MODEL 1
REMARK VINA RESULT:      -6.5      0.000      0.000
REMARK  Name = 
REMARK  5 active torsions:
REMARK  status: ('A' for Active; 'I' for Inactive)
REMARK    1  A    between atoms: C_1  and  C_2
REMARK    2  A    between atoms: C_2  and  C_3
REMARK    3  A    between atoms: C_2  and  N_6
REMARK    4  A    between atoms: N_6  and  C_7
REMARK    5  A    between atoms: C_8  and  C_10
REMARK                            x       y       z     vdW  Elec       q    Type
REMARK                         _______ _______ _______ _____ _____    ______ ____
ROOT
ATOM      1  C   UNL     1       4.230   4.815  17.352  0.00  0.00    +0.000 A 
ATOM      2  C   UNL     1       5.255   5.635  17.826  0.00  0.00    +0.000 A 
ATOM      3  C   UNL     1       6.330   5.979  17.002  0.00  0.00    +0.000 A 
ATOM      4 BR   UNL     1       7.596   7.226  17.668  0.00  0.00    +0.000 Br
ATOM      5  C   UNL     1       6.460   5.411  15.733  0.00  0.00    +0.000 A 
ATOM      6  C   UNL     1       5.474   4.531  15.277  0.00  0.00    +0.000 A 
ATOM      7  C   UNL     1       4.364   4.237  16.076  0.00  0.00    +0.000 A 
ATOM      8  O   UNL     1       5.537   3.900  14.059  0.00  0.00    +0.000 OA
ATOM      9  C   UNL     1       6.565   4.432  13.213  0.00  0.00    +0.000 C 
ATOM     10  C   UNL     1       7.827   4.730  14.000  0.00  0.00    +0.000 C 
ATOM     11  O   UNL     1       7.564   5.732  14.985  0.00  0.00    +0.000 OA
ENDROOT
BRANCH   1  14
ATOM     12  N   UNL     1       2.713   3.130  18.496  0.00  0.00    +0.000 N 
ATOM     13  C   UNL     1       3.568   1.980  18.223  0.00  0.00    +0.000 C 
ATOM     14  C   UNL     1       3.022   4.466  18.164  0.00  0.00    +0.000 C 
ATOM     15  O   UNL     1       2.329   5.411  18.542  0.00  0.00    +0.000 OA
BRANCH  12  17
ATOM     16  C   UNL     1       0.377   2.157  18.582  0.00  0.00    +0.000 C 
ATOM     17  C   UNL     1       1.501   2.908  19.308  0.00  0.00    +0.000 C 
BRANCH  17  18
ATOM     18  C   UNL     1       1.804   2.268  20.653  0.00  0.00    +0.000 C 
ATOM     19  C   UNL     1       2.758   2.864  21.667  0.00  0.00    +0.000 C 
ATOM     20  C   UNL     1       1.289   2.808  21.972  0.00  0.00    +0.000 C 
ENDBRANCH  17  18
ENDBRANCH  12  17
ENDBRANCH   1  14
TORSDOF 3
ENDMDL
MODEL 2
REMARK VINA RESULT:      -6.4      1.258      2.064
REMARK  Name = 
REMARK  5 active torsions:
REMARK  status: ('A' for Active; 'I' for Inactive)
REMARK    1  A    between atoms: C_1  and  C_2
REMARK    2  A    between atoms: C_2  and  C_3
REMARK    3  A    between atoms: C_2  and  N_6
REMARK    4  A    between atoms: N_6  and  C_7
REMARK    5  A    between atoms: C_8  and  C_10
REMARK                            x       y       z     vdW  Elec       q    Type
REMARK                         _______ _______ _______ _____ _____    ______ ____
ROOT
ATOM      1  C   UNL     1       5.017   3.995  17.768  0.00  0.00    +0.000 A 
ATOM      2  C   UNL     1       5.893   5.014  18.145  0.00  0.00    +0.000 A 
ATOM      3  C   UNL     1       6.691   5.655  17.194  0.00  0.00    +0.000 A 
ATOM      4 BR   UNL     1       7.735   7.135  17.763  0.00  0.00    +0.000 Br
ATOM      5  C   UNL     1       6.715   5.208  15.872  0.00  0.00    +0.000 A 
ATOM      6  C   UNL     1       5.893   4.140  15.498  0.00  0.00    +0.000 A 
ATOM      7  C   UNL     1       5.046   3.539  16.436  0.00  0.00    +0.000 A 
ATOM      8  O   UNL     1       5.877   3.613  14.231  0.00  0.00    +0.000 OA
ATOM      9  C   UNL     1       6.583   4.426  13.285  0.00  0.00    +0.000 C 
ATOM     10  C   UNL     1       7.864   4.980  13.881  0.00  0.00    +0.000 C 
ATOM     11  O   UNL     1       7.560   5.831  14.988  0.00  0.00    +0.000 OA
ENDROOT
BRANCH   1  14
ATOM     12  N   UNL     1       3.236   4.050  19.576  0.00  0.00    +0.000 N 
ATOM     13  C   UNL     1       3.050   5.496  19.530  0.00  0.00    +0.000 C 
ATOM     14  C   UNL     1       4.091   3.316  18.728  0.00  0.00    +0.000 C 
ATOM     15  O   UNL     1       4.105   2.085  18.718  0.00  0.00    +0.000 OA
BRANCH  12  17
ATOM     16  C   UNL     1       2.289   3.807  21.913  0.00  0.00    +0.000 C 
ATOM     17  C   UNL     1       2.361   3.272  20.476  0.00  0.00    +0.000 C 
BRANCH  17  18
ATOM     18  C   UNL     1       0.970   3.059  19.903  0.00  0.00    +0.000 C 
ATOM     19  C   UNL     1       0.612   3.326  18.456  0.00  0.00    +0.000 C 
ATOM     20  C   UNL     1       0.613   1.917  18.973  0.00  0.00    +0.000 C 
ENDBRANCH  17  18
ENDBRANCH  12  17
ENDBRANCH   1  14
TORSDOF 3
ENDMDL
MODEL 3
REMARK VINA RESULT:      -6.4      1.029      1.281
REMARK  Name = 
REMARK  5 active torsions:
REMARK  status: ('A' for Active; 'I' for Inactive)
REMARK    1  A    between atoms: C_1  and  C_2
REMARK    2  A    between atoms: C_2  and  C_3
REMARK    3  A    between atoms: C_2  and  N_6
REMARK    4  A    between atoms: N_6  and  C_7
REMARK    5  A    between atoms: C_8  and  C_10
REMARK                            x       y       z     vdW  Elec       q    Type
REMARK                         _______ _______ _______ _____ _____    ______ ____
ROOT
ATOM      1  C   UNL     1       4.681   4.003  17.380  0.00  0.00    +0.000 A 
ATOM      2  C   UNL     1       5.583   4.947  17.875  0.00  0.00    +0.000 A 
ATOM      3  C   UNL     1       6.506   5.562  17.026  0.00  0.00    +0.000 A 
ATOM      4 BR   UNL     1       7.586   6.948  17.745  0.00  0.00    +0.000 Br
ATOM      5  C   UNL     1       6.625   5.157  15.696  0.00  0.00    +0.000 A 
ATOM      6  C   UNL     1       5.775   4.160  15.208  0.00  0.00    +0.000 A 
ATOM      7  C   UNL     1       4.806   3.589  16.040  0.00  0.00    +0.000 A 
ATOM      8  O   UNL     1       5.844   3.676  13.926  0.00  0.00    +0.000 OA
ATOM      9  C   UNL     1       6.686   4.469  13.080  0.00  0.00    +0.000 C 
ATOM     10  C   UNL     1       7.939   4.915  13.811  0.00  0.00    +0.000 C 
ATOM     11  O   UNL     1       7.588   5.749  14.917  0.00  0.00    +0.000 OA
ENDROOT
BRANCH   1  14
ATOM     12  N   UNL     1       2.415   4.014  18.524  0.00  0.00    +0.000 N 
ATOM     13  C   UNL     1       1.990   5.289  17.957  0.00  0.00    +0.000 C 
ATOM     14  C   UNL     1       3.627   3.359  18.225  0.00  0.00    +0.000 C 
ATOM     15  O   UNL     1       3.872   2.220  18.625  0.00  0.00    +0.000 OA
BRANCH  12  17
ATOM     16  C   UNL     1       0.674   2.176  18.620  0.00  0.00    +0.000 C 
ATOM     17  C   UNL     1       1.447   3.276  19.360  0.00  0.00    +0.000 C 
BRANCH  17  18
ATOM     18  C   UNL     1       2.066   2.740  20.640  0.00  0.00    +0.000 C 
ATOM     19  C   UNL     1       2.388   3.605  21.840  0.00  0.00    +0.000 C 
ATOM     20  C   UNL     1       1.299   2.577  21.937  0.00  0.00    +0.000 C 
ENDBRANCH  17  18
ENDBRANCH  12  17
ENDBRANCH   1  14
TORSDOF 3
ENDMDL
MODEL 4
REMARK VINA RESULT:      -6.3      1.412      2.051
REMARK  Name = 
REMARK  5 active torsions:
REMARK  status: ('A' for Active; 'I' for Inactive)
REMARK    1  A    between atoms: C_1  and  C_2
REMARK    2  A    between atoms: C_2  and  C_3
REMARK    3  A    between atoms: C_2  and  N_6
REMARK    4  A    between atoms: N_6  and  C_7
REMARK    5  A    between atoms: C_8  and  C_10
REMARK                            x       y       z     vdW  Elec       q    Type
REMARK                         _______ _______ _______ _____ _____    ______ ____
ROOT
ATOM      1  C   UNL     1       4.947   4.847  17.943  0.00  0.00    +0.000 A 
ATOM      2  C   UNL     1       5.907   5.850  18.084  0.00  0.00    +0.000 A 
ATOM      3  C   UNL     1       6.735   6.199  17.013  0.00  0.00    +0.000 A 
ATOM      4 BR   UNL     1       7.901   7.679  17.239  0.00  0.00    +0.000 Br
ATOM      5  C   UNL     1       6.699   5.470  15.823  0.00  0.00    +0.000 A 
ATOM      6  C   UNL     1       5.789   4.416  15.697  0.00  0.00    +0.000 A 
ATOM      7  C   UNL     1       4.915   4.107  16.745  0.00  0.00    +0.000 A 
ATOM      8  O   UNL     1       5.708   3.624  14.578  0.00  0.00    +0.000 OA
ATOM      9  C   UNL     1       6.456   4.150  13.475  0.00  0.00    +0.000 C 
ATOM     10  C   UNL     1       7.788   4.717  13.931  0.00  0.00    +0.000 C 
ATOM     11  O   UNL     1       7.572   5.813  14.822  0.00  0.00    +0.000 OA
ENDROOT
BRANCH   1  14
ATOM     12  N   UNL     1       2.777   5.168  19.220  0.00  0.00    +0.000 N 
ATOM     13  C   UNL     1       2.256   6.201  18.332  0.00  0.00    +0.000 C 
ATOM     14  C   UNL     1       3.990   4.474  19.031  0.00  0.00    +0.000 C 
ATOM     15  O   UNL     1       4.313   3.516  19.735  0.00  0.00    +0.000 OA
BRANCH  12  17
ATOM     16  C   UNL     1       1.240   5.832  21.121  0.00  0.00    +0.000 C 
ATOM     17  C   UNL     1       1.909   4.705  20.321  0.00  0.00    +0.000 C 
BRANCH  17  18
ATOM     18  C   UNL     1       0.886   3.677  19.869  0.00  0.00    +0.000 C 
ATOM     19  C   UNL     1       1.026   2.859  18.603  0.00  0.00    +0.000 C 
ATOM     20  C   UNL     1       1.117   2.180  19.938  0.00  0.00    +0.000 C 
ENDBRANCH  17  18
ENDBRANCH  12  17
ENDBRANCH   1  14
TORSDOF 3
ENDMDL
MODEL 5
REMARK VINA RESULT:      -6.2      4.666      5.429
REMARK  Name = 
REMARK  5 active torsions:
REMARK  status: ('A' for Active; 'I' for Inactive)
REMARK    1  A    between atoms: C_1  and  C_2
REMARK    2  A    between atoms: C_2  and  C_3
REMARK    3  A    between atoms: C_2  and  N_6
REMARK    4  A    between atoms: N_6  and  C_7
REMARK    5  A    between atoms: C_8  and  C_10
REMARK                            x       y       z     vdW  Elec       q    Type
REMARK                         _______ _______ _______ _____ _____    ______ ____
ROOT
ATOM      1  C   UNL     1       2.790   7.327  17.904  0.00  0.00    +0.000 A 
ATOM      2  C   UNL     1       2.246   6.051  18.066  0.00  0.00    +0.000 A 
ATOM      3  C   UNL     1       3.007   4.913  17.793  0.00  0.00    +0.000 A 
ATOM      4 BR   UNL     1       2.247   3.220  18.193  0.00  0.00    +0.000 Br
ATOM      5  C   UNL     1       4.283   5.029  17.239  0.00  0.00    +0.000 A 
ATOM      6  C   UNL     1       4.810   6.303  17.005  0.00  0.00    +0.000 A 
ATOM      7  C   UNL     1       4.074   7.445  17.338  0.00  0.00    +0.000 A 
ATOM      8  O   UNL     1       6.040   6.513  16.432  0.00  0.00    +0.000 OA
ATOM      9  C   UNL     1       6.820   5.314  16.344  0.00  0.00    +0.000 C 
ATOM     10  C   UNL     1       5.965   4.127  15.938  0.00  0.00    +0.000 C 
ATOM     11  O   UNL     1       4.968   3.881  16.932  0.00  0.00    +0.000 OA
ENDROOT
BRANCH   1  14
ATOM     12  N   UNL     1       1.445   8.769  19.503  0.00  0.00    +0.000 N 
ATOM     13  C   UNL     1       1.584   7.865  20.640  0.00  0.00    +0.000 C 
ATOM     14  C   UNL     1       2.046   8.581  18.241  0.00  0.00    +0.000 C 
ATOM     15  O   UNL     1       2.009   9.444  17.363  0.00  0.00    +0.000 OA
BRANCH  12  17
ATOM     16  C   UNL     1      -0.679  10.104  19.157  0.00  0.00    +0.000 C 
ATOM     17  C   UNL     1       0.746  10.050  19.724  0.00  0.00    +0.000 C 
BRANCH  17  18
ATOM     18  C   UNL     1       0.770  10.488  21.179  0.00  0.00    +0.000 C 
ATOM     19  C   UNL     1      -0.029  11.657  21.714  0.00  0.00    +0.000 C 
ATOM     20  C   UNL     1      -0.378  10.261  22.141  0.00  0.00    +0.000 C 
ENDBRANCH  17  18
ENDBRANCH  12  17
ENDBRANCH   1  14
TORSDOF 3
ENDMDL
MODEL 6
REMARK VINA RESULT:      -6.2      5.657      7.743
REMARK  Name = 
REMARK  5 active torsions:
REMARK  status: ('A' for Active; 'I' for Inactive)
REMARK    1  A    between atoms: C_1  and  C_2
REMARK    2  A    between atoms: C_2  and  C_3
REMARK    3  A    between atoms: C_2  and  N_6
REMARK    4  A    between atoms: N_6  and  C_7
REMARK    5  A    between atoms: C_8  and  C_10
REMARK                            x       y       z     vdW  Elec       q    Type
REMARK                         _______ _______ _______ _____ _____    ______ ____
ROOT
ATOM      1  C   UNL     1       1.447   8.636  19.426  0.00  0.00    +0.000 A 
ATOM      2  C   UNL     1       1.203   8.719  20.798  0.00  0.00    +0.000 A 
ATOM      3  C   UNL     1       0.270   9.628  21.302  0.00  0.00    +0.000 A 
ATOM      4 BR   UNL     1      -0.119   9.565  23.159  0.00  0.00    +0.000 Br
ATOM      5  C   UNL     1      -0.346  10.553  20.457  0.00  0.00    +0.000 A 
ATOM      6  C   UNL     1      -0.054  10.526  19.090  0.00  0.00    +0.000 A 
ATOM      7  C   UNL     1       0.831   9.573  18.574  0.00  0.00    +0.000 A 
ATOM      8  O   UNL     1      -0.585  11.418  18.191  0.00  0.00    +0.000 OA
ATOM      9  C   UNL     1      -1.652  12.195  18.749  0.00  0.00    +0.000 C 
ATOM     10  C   UNL     1      -1.341  12.619  20.173  0.00  0.00    +0.000 C 
ATOM     11  O   UNL     1      -1.210  11.466  21.007  0.00  0.00    +0.000 OA
ENDROOT
BRANCH   1  14
ATOM     12  N   UNL     1       2.596   6.373  19.405  0.00  0.00    +0.000 N 
ATOM     13  C   UNL     1       1.853   5.840  20.542  0.00  0.00    +0.000 C 
ATOM     14  C   UNL     1       2.385   7.639  18.822  0.00  0.00    +0.000 C 
ATOM     15  O   UNL     1       2.944   7.981  17.779  0.00  0.00    +0.000 OA
BRANCH  12  17
ATOM     16  C   UNL     1       4.909   5.341  19.394  0.00  0.00    +0.000 C 
ATOM     17  C   UNL     1       3.538   5.469  18.715  0.00  0.00    +0.000 C 
BRANCH  17  18
ATOM     18  C   UNL     1       2.939   4.102  18.432  0.00  0.00    +0.000 C 
ATOM     19  C   UNL     1       1.663   3.894  17.644  0.00  0.00    +0.000 C 
ATOM     20  C   UNL     1       2.973   3.439  17.069  0.00  0.00    +0.000 C 
ENDBRANCH  17  18
ENDBRANCH  12  17
ENDBRANCH   1  14
TORSDOF 3
ENDMDL
MODEL 7
REMARK VINA RESULT:      -6.1      4.503      5.695
REMARK  Name = 
REMARK  5 active torsions:
REMARK  status: ('A' for Active; 'I' for Inactive)
REMARK    1  A    between atoms: C_1  and  C_2
REMARK    2  A    between atoms: C_2  and  C_3
REMARK    3  A    between atoms: C_2  and  N_6
REMARK    4  A    between atoms: N_6  and  C_7
REMARK    5  A    between atoms: C_8  and  C_10
REMARK                            x       y       z     vdW  Elec       q    Type
REMARK                         _______ _______ _______ _____ _____    ______ ____
ROOT
ATOM      1  C   UNL     1       2.685   7.247  17.990  0.00  0.00    +0.000 A 
ATOM      2  C   UNL     1       4.030   7.153  17.628  0.00  0.00    +0.000 A 
ATOM      3  C   UNL     1       4.604   5.914  17.335  0.00  0.00    +0.000 A 
ATOM      4 BR   UNL     1       6.391   5.892  16.696  0.00  0.00    +0.000 Br
ATOM      5  C   UNL     1       3.877   4.736  17.515  0.00  0.00    +0.000 A 
ATOM      6  C   UNL     1       2.549   4.814  17.946  0.00  0.00    +0.000 A 
ATOM      7  C   UNL     1       1.953   6.059  18.178  0.00  0.00    +0.000 A 
ATOM      8  O   UNL     1       1.770   3.709  18.183  0.00  0.00    +0.000 OA
ATOM      9  C   UNL     1       2.366   2.499  17.697  0.00  0.00    +0.000 C 
ATOM     10  C   UNL     1       3.859   2.471  17.969  0.00  0.00    +0.000 C 
ATOM     11  O   UNL     1       4.502   3.540  17.271  0.00  0.00    +0.000 OA
ENDROOT
BRANCH   1  14
ATOM     12  N   UNL     1       1.409   8.839  19.500  0.00  0.00    +0.000 N 
ATOM     13  C   UNL     1       1.511   8.000  20.689  0.00  0.00    +0.000 C 
ATOM     14  C   UNL     1       1.999   8.551  18.252  0.00  0.00    +0.000 C 
ATOM     15  O   UNL     1       1.997   9.361  17.324  0.00  0.00    +0.000 OA
BRANCH  12  17
ATOM     16  C   UNL     1      -0.651  10.247  19.064  0.00  0.00    +0.000 C 
ATOM     17  C   UNL     1       0.767  10.161  19.645  0.00  0.00    +0.000 C 
BRANCH  17  18
ATOM     18  C   UNL     1       0.804  10.678  21.073  0.00  0.00    +0.000 C 
ATOM     19  C   UNL     1       0.052  11.908  21.537  0.00  0.00    +0.000 C 
ATOM     20  C   UNL     1      -0.358  10.554  22.038  0.00  0.00    +0.000 C 
ENDBRANCH  17  18
ENDBRANCH  12  17
ENDBRANCH   1  14
TORSDOF 3
ENDMDL
MODEL 8
REMARK VINA RESULT:      -6.0      5.085      6.511
REMARK  Name = 
REMARK  5 active torsions:
REMARK  status: ('A' for Active; 'I' for Inactive)
REMARK    1  A    between atoms: C_1  and  C_2
REMARK    2  A    between atoms: C_2  and  C_3
REMARK    3  A    between atoms: C_2  and  N_6
REMARK    4  A    between atoms: N_6  and  C_7
REMARK    5  A    between atoms: C_8  and  C_10
REMARK                            x       y       z     vdW  Elec       q    Type
REMARK                         _______ _______ _______ _____ _____    ______ ____
ROOT
ATOM      1  C   UNL     1       1.987   7.101  19.920  0.00  0.00    +0.000 A 
ATOM      2  C   UNL     1       1.734   5.929  20.635  0.00  0.00    +0.000 A 
ATOM      3  C   UNL     1       2.419   4.749  20.334  0.00  0.00    +0.000 A 
ATOM      4 BR   UNL     1       2.133   3.245  21.455  0.00  0.00    +0.000 Br
ATOM      5  C   UNL     1       3.280   4.691  19.236  0.00  0.00    +0.000 A 
ATOM      6  C   UNL     1       3.486   5.842  18.470  0.00  0.00    +0.000 A 
ATOM      7  C   UNL     1       2.850   7.041  18.810  0.00  0.00    +0.000 A 
ATOM      8  O   UNL     1       4.287   5.868  17.355  0.00  0.00    +0.000 OA
ATOM      9  C   UNL     1       5.080   4.683  17.217  0.00  0.00    +0.000 C 
ATOM     10  C   UNL     1       4.284   3.441  17.573  0.00  0.00    +0.000 C 
ATOM     11  O   UNL     1       3.885   3.494  18.944  0.00  0.00    +0.000 OA
ENDROOT
BRANCH   1  14
ATOM     12  N   UNL     1       1.186   9.420  19.266  0.00  0.00    +0.000 N 
ATOM     13  C   UNL     1       1.511   9.274  17.852  0.00  0.00    +0.000 C 
ATOM     14  C   UNL     1       1.333   8.409  20.239  0.00  0.00    +0.000 C 
ATOM     15  O   UNL     1       0.913   8.541  21.389  0.00  0.00    +0.000 OA
BRANCH  12  17
ATOM     16  C   UNL     1       1.473  11.816  20.036  0.00  0.00    +0.000 C 
ATOM     17  C   UNL     1       0.517  10.664  19.694  0.00  0.00    +0.000 C 
BRANCH  17  18
ATOM     18  C   UNL     1      -0.556  11.119  18.720  0.00  0.00    +0.000 C 
ATOM     19  C   UNL     1      -1.790  10.303  18.394  0.00  0.00    +0.000 C 
ATOM     20  C   UNL     1      -1.931  11.592  19.149  0.00  0.00    +0.000 C 
ENDBRANCH  17  18
ENDBRANCH  12  17
ENDBRANCH   1  14
TORSDOF 3
ENDMDL
MODEL 9
REMARK VINA RESULT:      -6.0      4.693      5.782
REMARK  Name = 
REMARK  5 active torsions:
REMARK  status: ('A' for Active; 'I' for Inactive)
REMARK    1  A    between atoms: C_1  and  C_2
REMARK    2  A    between atoms: C_2  and  C_3
REMARK    3  A    between atoms: C_2  and  N_6
REMARK    4  A    between atoms: N_6  and  C_7
REMARK    5  A    between atoms: C_8  and  C_10
REMARK                            x       y       z     vdW  Elec       q    Type
REMARK                         _______ _______ _______ _____ _____    ______ ____
ROOT
ATOM      1  C   UNL     1       2.758   7.367  17.923  0.00  0.00    +0.000 A 
ATOM      2  C   UNL     1       2.300   6.066  18.139  0.00  0.00    +0.000 A 
ATOM      3  C   UNL     1       3.149   4.973  17.952  0.00  0.00    +0.000 A 
ATOM      4 BR   UNL     1       2.498   3.253  18.421  0.00  0.00    +0.000 Br
ATOM      5  C   UNL     1       4.432   5.153  17.432  0.00  0.00    +0.000 A 
ATOM      6  C   UNL     1       4.876   6.447  17.144  0.00  0.00    +0.000 A 
ATOM      7  C   UNL     1       4.049   7.549  17.392  0.00  0.00    +0.000 A 
ATOM      8  O   UNL     1       6.107   6.715  16.599  0.00  0.00    +0.000 OA
ATOM      9  C   UNL     1       6.972   5.573  16.601  0.00  0.00    +0.000 C 
ATOM     10  C   UNL     1       6.218   4.308  16.235  0.00  0.00    +0.000 C 
ATOM     11  O   UNL     1       5.208   4.043  17.210  0.00  0.00    +0.000 OA
ENDROOT
BRANCH   1  14
ATOM     12  N   UNL     1       1.374   8.861  19.439  0.00  0.00    +0.000 N 
ATOM     13  C   UNL     1       1.666   8.114  20.658  0.00  0.00    +0.000 C 
ATOM     14  C   UNL     1       1.916   8.580  18.168  0.00  0.00    +0.000 C 
ATOM     15  O   UNL     1       1.744   9.327  17.204  0.00  0.00    +0.000 OA
BRANCH  12  17
ATOM     16  C   UNL     1      -0.619   9.979  20.532  0.00  0.00    +0.000 C 
ATOM     17  C   UNL     1       0.566  10.091  19.563  0.00  0.00    +0.000 C 
BRANCH  17  18
ATOM     18  C   UNL     1       1.409  11.317  19.871  0.00  0.00    +0.000 C 
ATOM     19  C   UNL     1       1.952  12.247  18.808  0.00  0.00    +0.000 C 
ATOM     20  C   UNL     1       0.894  12.738  19.753  0.00  0.00    +0.000 C 
ENDBRANCH  17  18
ENDBRANCH  12  17
ENDBRANCH   1  14
TORSDOF 3
ENDMDL
