MODEL 1
REMARK VINA RESULT:      -7.9      0.000      0.000
REMARK  Name = 
REMARK  8 active torsions:
REMARK  status: ('A' for Active; 'I' for Inactive)
REMARK    1  A    between atoms: C_1  and  O_2
REMARK    2  A    between atoms: O_2  and  C_3
REMARK    3  A    between atoms: C_6  and  N_7
REMARK    4  A    between atoms: C_8  and  C_10
REMARK    5  A    between atoms: N_14  and  S_15
REMARK    6  A    between atoms: S_15  and  C_18
REMARK    7  A    between atoms: C_29  and  O_30
REMARK    8  A    between atoms: O_30  and  C_31
REMARK                            x       y       z     vdW  Elec       q    Type
REMARK                         _______ _______ _______ _____ _____    ______ ____
ROOT
ATOM      1  C   UNL     1       1.484   9.804  21.566  0.00  0.00    +0.000 C 
ATOM      2  C   UNL     1       0.992   9.394  22.951  0.00  0.00    +0.000 C 
ATOM      3  C   UNL     1      -0.528   9.443  23.059  0.00  0.00    +0.000 C 
ATOM      4  C   UNL     1      -1.099  10.790  22.608  0.00  0.00    +0.000 C 
ATOM      5  N   UNL     1      -0.615  11.147  21.229  0.00  0.00    +0.000 NA
ATOM      6  C   UNL     1       0.898  11.150  21.155  0.00  0.00    +0.000 C 
ENDROOT
BRANCH   1   8
ATOM      7  N   UNL     1       1.988   7.555  20.738  0.00  0.00    +0.000 N 
ATOM      8  C   UNL     1       1.255   8.708  20.526  0.00  0.00    +0.000 C 
ATOM      9  O   UNL     1       0.544   8.936  19.549  0.00  0.00    +0.000 OA
ATOM     10  H   UNL     1       2.640   7.576  21.520  0.00  0.00    +0.000 HD
BRANCH   7  14
ATOM     11  C   UNL     1       2.157   3.984  18.500  0.00  0.00    +0.000 A 
ATOM     12  C   UNL     1       2.596   5.191  17.936  0.00  0.00    +0.000 A 
ATOM     13  C   UNL     1       2.548   6.385  18.655  0.00  0.00    +0.000 A 
ATOM     14  C   UNL     1       2.011   6.405  19.934  0.00  0.00    +0.000 A 
ATOM     15  C   UNL     1       1.459   5.229  20.454  0.00  0.00    +0.000 A 
ATOM     16  C   UNL     1       1.534   4.011  19.758  0.00  0.00    +0.000 A 
BRANCH  11  18
ATOM     17  C   UNL     1       3.419   1.993  18.290  0.00  0.00    +0.000 C 
ATOM     18  O   UNL     1       2.322   2.794  17.842  0.00  0.00    +0.000 OA
ENDBRANCH  11  18
BRANCH  16  19
ATOM     19  O   UNL     1       0.985   2.984  20.478  0.00  0.00    +0.000 OA
ATOM     20  C   UNL     1       1.600   2.574  21.689  0.00  0.00    +0.000 C 
ENDBRANCH  16  19
ENDBRANCH   7  14
ENDBRANCH   1   8
BRANCH   5  21
ATOM     21  S   UNL     1      -1.213  12.685  20.664  0.00  0.00    +0.000 S 
ATOM     22  O   UNL     1      -1.635  13.441  21.818  0.00  0.00    +0.000 OA
ATOM     23  O   UNL     1      -0.193  13.221  19.772  0.00  0.00    +0.000 OA
BRANCH  21  24
ATOM     24  C   UNL     1      -2.589  12.304  19.653  0.00  0.00    +0.000 A 
ATOM     25  C   UNL     1      -3.893  12.675  20.058  0.00  0.00    +0.000 A 
ATOM     26  C   UNL     1      -5.065  12.252  19.380  0.00  0.00    +0.000 A 
ATOM     27  C   UNL     1      -5.032  11.414  18.253  0.00  0.00    +0.000 A 
ATOM     28  C   UNL     1      -3.741  11.028  17.841  0.00  0.00    +0.000 A 
ATOM     29  N   UNL     1      -3.390  10.237  16.822  0.00  0.00    +0.000 NA
ATOM     30  O   UNL     1      -2.010  10.164  16.858  0.00  0.00    +0.000 OA
ATOM     31  N   UNL     1      -1.484  10.929  17.881  0.00  0.00    +0.000 NA
ATOM     32  C   UNL     1      -2.528  11.466  18.528  0.00  0.00    +0.000 A 
ENDBRANCH  21  24
ENDBRANCH   5  21
TORSDOF 6
ENDMDL
MODEL 2
REMARK VINA RESULT:      -7.9      0.770      1.658
REMARK  Name = 
REMARK  8 active torsions:
REMARK  status: ('A' for Active; 'I' for Inactive)
REMARK    1  A    between atoms: C_1  and  O_2
REMARK    2  A    between atoms: O_2  and  C_3
REMARK    3  A    between atoms: C_6  and  N_7
REMARK    4  A    between atoms: C_8  and  C_10
REMARK    5  A    between atoms: N_14  and  S_15
REMARK    6  A    between atoms: S_15  and  C_18
REMARK    7  A    between atoms: C_29  and  O_30
REMARK    8  A    between atoms: O_30  and  C_31
REMARK                            x       y       z     vdW  Elec       q    Type
REMARK                         _______ _______ _______ _____ _____    ______ ____
ROOT
ATOM      1  C   UNL     1       1.548   9.759  21.564  0.00  0.00    +0.000 C 
ATOM      2  C   UNL     1       0.993   9.351  22.926  0.00  0.00    +0.000 C 
ATOM      3  C   UNL     1      -0.531   9.348  22.947  0.00  0.00    +0.000 C 
ATOM      4  C   UNL     1      -1.122  10.667  22.443  0.00  0.00    +0.000 C 
ATOM      5  N   UNL     1      -0.573  11.022  21.087  0.00  0.00    +0.000 NA
ATOM      6  C   UNL     1       0.940  11.077  21.099  0.00  0.00    +0.000 C 
ENDROOT
BRANCH   1   8
ATOM      7  N   UNL     1       1.913   7.418  20.944  0.00  0.00    +0.000 N 
ATOM      8  C   UNL     1       1.418   8.640  20.531  0.00  0.00    +0.000 C 
ATOM      9  O   UNL     1       0.991   8.898  19.408  0.00  0.00    +0.000 OA
ATOM     10  H   UNL     1       2.362   7.402  21.858  0.00  0.00    +0.000 HD
BRANCH   7  14
ATOM     11  C   UNL     1       2.023   3.967  18.522  0.00  0.00    +0.000 A 
ATOM     12  C   UNL     1       1.261   3.978  19.699  0.00  0.00    +0.000 A 
ATOM     13  C   UNL     1       1.210   5.106  20.518  0.00  0.00    +0.000 A 
ATOM     14  C   UNL     1       1.963   6.228  20.202  0.00  0.00    +0.000 A 
ATOM     15  C   UNL     1       2.819   6.178  19.097  0.00  0.00    +0.000 A 
ATOM     16  C   UNL     1       2.853   5.064  18.242  0.00  0.00    +0.000 A 
BRANCH  11  18
ATOM     17  C   UNL     1       2.868   1.833  17.944  0.00  0.00    +0.000 C 
ATOM     18  O   UNL     1       1.970   2.908  17.655  0.00  0.00    +0.000 OA
ENDBRANCH  11  18
BRANCH  16  19
ATOM     19  O   UNL     1       3.715   5.257  17.196  0.00  0.00    +0.000 OA
ATOM     20  C   UNL     1       5.051   4.789  17.296  0.00  0.00    +0.000 C 
ENDBRANCH  16  19
ENDBRANCH   7  14
ENDBRANCH   1   8
BRANCH   5  21
ATOM     21  S   UNL     1      -1.191  12.528  20.464  0.00  0.00    +0.000 S 
ATOM     22  O   UNL     1      -1.657  13.308  21.586  0.00  0.00    +0.000 OA
ATOM     23  O   UNL     1      -0.162  13.062  19.582  0.00  0.00    +0.000 OA
BRANCH  21  24
ATOM     24  C   UNL     1      -2.533  12.088  19.433  0.00  0.00    +0.000 A 
ATOM     25  C   UNL     1      -3.847  12.499  19.762  0.00  0.00    +0.000 A 
ATOM     26  C   UNL     1      -4.999  12.039  19.074  0.00  0.00    +0.000 A 
ATOM     27  C   UNL     1      -4.935  11.122  18.012  0.00  0.00    +0.000 A 
ATOM     28  C   UNL     1      -3.635  10.696  17.676  0.00  0.00    +0.000 A 
ATOM     29  N   UNL     1      -3.256   9.830  16.730  0.00  0.00    +0.000 NA
ATOM     30  O   UNL     1      -1.880   9.748  16.822  0.00  0.00    +0.000 OA
ATOM     31  N   UNL     1      -1.382  10.580  17.807  0.00  0.00    +0.000 NA
ATOM     32  C   UNL     1      -2.442  11.171  18.375  0.00  0.00    +0.000 A 
ENDBRANCH  21  24
ENDBRANCH   5  21
TORSDOF 6
ENDMDL
MODEL 3
REMARK VINA RESULT:      -7.8      1.546      2.361
REMARK  Name = 
REMARK  8 active torsions:
REMARK  status: ('A' for Active; 'I' for Inactive)
REMARK    1  A    between atoms: C_1  and  O_2
REMARK    2  A    between atoms: O_2  and  C_3
REMARK    3  A    between atoms: C_6  and  N_7
REMARK    4  A    between atoms: C_8  and  C_10
REMARK    5  A    between atoms: N_14  and  S_15
REMARK    6  A    between atoms: S_15  and  C_18
REMARK    7  A    between atoms: C_29  and  O_30
REMARK    8  A    between atoms: O_30  and  C_31
REMARK                            x       y       z     vdW  Elec       q    Type
REMARK                         _______ _______ _______ _____ _____    ______ ____
ROOT
ATOM      1  C   UNL     1       1.615   9.779  21.241  0.00  0.00    +0.000 C 
ATOM      2  C   UNL     1       1.288   9.416  22.687  0.00  0.00    +0.000 C 
ATOM      3  C   UNL     1      -0.207   9.206  22.902  0.00  0.00    +0.000 C 
ATOM      4  C   UNL     1      -1.038  10.385  22.390  0.00  0.00    +0.000 C 
ATOM      5  N   UNL     1      -0.709  10.696  20.955  0.00  0.00    +0.000 NA
ATOM      6  C   UNL     1       0.771  10.958  20.770  0.00  0.00    +0.000 C 
ENDROOT
BRANCH   1   8
ATOM      7  N   UNL     1       2.031   7.398  20.844  0.00  0.00    +0.000 N 
ATOM      8  C   UNL     1       1.529   8.570  20.310  0.00  0.00    +0.000 C 
ATOM      9  O   UNL     1       1.129   8.718  19.157  0.00  0.00    +0.000 OA
ATOM     10  H   UNL     1       2.455   7.472  21.767  0.00  0.00    +0.000 HD
BRANCH   7  14
ATOM     11  C   UNL     1       2.256   3.746  18.747  0.00  0.00    +0.000 A 
ATOM     12  C   UNL     1       1.470   3.848  19.905  0.00  0.00    +0.000 A 
ATOM     13  C   UNL     1       1.381   5.043  20.616  0.00  0.00    +0.000 A 
ATOM     14  C   UNL     1       2.118   6.148  20.214  0.00  0.00    +0.000 A 
ATOM     15  C   UNL     1       2.997   6.016  19.134  0.00  0.00    +0.000 A 
ATOM     16  C   UNL     1       3.070   4.830  18.384  0.00  0.00    +0.000 A 
BRANCH  11  18
ATOM     17  C   UNL     1       3.231   1.634  18.309  0.00  0.00    +0.000 C 
ATOM     18  O   UNL     1       2.241   2.611  17.979  0.00  0.00    +0.000 OA
ENDBRANCH  11  18
BRANCH  16  19
ATOM     19  O   UNL     1       3.949   4.946  17.341  0.00  0.00    +0.000 OA
ATOM     20  C   UNL     1       5.311   4.599  17.533  0.00  0.00    +0.000 C 
ENDBRANCH  16  19
ENDBRANCH   7  14
ENDBRANCH   1   8
BRANCH   5  21
ATOM     21  S   UNL     1      -1.609  12.046  20.317  0.00  0.00    +0.000 S 
ATOM     22  O   UNL     1      -2.569  12.445  21.317  0.00  0.00    +0.000 OA
ATOM     23  O   UNL     1      -0.624  13.003  19.828  0.00  0.00    +0.000 OA
BRANCH  21  24
ATOM     24  C   UNL     1      -2.429  11.429  18.901  0.00  0.00    +0.000 A 
ATOM     25  C   UNL     1      -1.719  10.666  17.944  0.00  0.00    +0.000 A 
ATOM     26  C   UNL     1      -2.270  10.281  16.695  0.00  0.00    +0.000 A 
ATOM     27  C   UNL     1      -3.568  10.637  16.294  0.00  0.00    +0.000 A 
ATOM     28  C   UNL     1      -4.287  11.404  17.232  0.00  0.00    +0.000 A 
ATOM     29  N   UNL     1      -5.526  11.899  17.135  0.00  0.00    +0.000 NA
ATOM     30  O   UNL     1      -5.751  12.586  18.312  0.00  0.00    +0.000 OA
ATOM     31  N   UNL     1      -4.668  12.508  19.167  0.00  0.00    +0.000 NA
ATOM     32  C   UNL     1      -3.730  11.799  18.524  0.00  0.00    +0.000 A 
ENDBRANCH  21  24
ENDBRANCH   5  21
TORSDOF 6
ENDMDL
MODEL 4
REMARK VINA RESULT:      -7.6      3.766      9.308
REMARK  Name = 
REMARK  8 active torsions:
REMARK  status: ('A' for Active; 'I' for Inactive)
REMARK    1  A    between atoms: C_1  and  O_2
REMARK    2  A    between atoms: O_2  and  C_3
REMARK    3  A    between atoms: C_6  and  N_7
REMARK    4  A    between atoms: C_8  and  C_10
REMARK    5  A    between atoms: N_14  and  S_15
REMARK    6  A    between atoms: S_15  and  C_18
REMARK    7  A    between atoms: C_29  and  O_30
REMARK    8  A    between atoms: O_30  and  C_31
REMARK                            x       y       z     vdW  Elec       q    Type
REMARK                         _______ _______ _______ _____ _____    ______ ____
ROOT
ATOM      1  C   UNL     1       0.992   4.308  20.381  0.00  0.00    +0.000 C 
ATOM      2  C   UNL     1       1.265   3.352  21.539  0.00  0.00    +0.000 C 
ATOM      3  C   UNL     1       2.729   2.931  21.603  0.00  0.00    +0.000 C 
ATOM      4  C   UNL     1       3.237   2.391  20.264  0.00  0.00    +0.000 C 
ATOM      5  N   UNL     1       2.976   3.372  19.152  0.00  0.00    +0.000 NA
ATOM      6  C   UNL     1       1.507   3.734  19.067  0.00  0.00    +0.000 C 
ENDROOT
BRANCH   1   8
ATOM      7  N   UNL     1       0.546   6.707  20.590  0.00  0.00    +0.000 N 
ATOM      8  C   UNL     1       1.509   5.718  20.664  0.00  0.00    +0.000 C 
ATOM      9  O   UNL     1       2.712   5.900  20.836  0.00  0.00    +0.000 OA
ATOM     10  H   UNL     1      -0.383   6.407  20.300  0.00  0.00    +0.000 HD
BRANCH   7  14
ATOM     11  C   UNL     1       0.879  10.874  21.154  0.00  0.00    +0.000 A 
ATOM     12  C   UNL     1       1.480  10.262  20.044  0.00  0.00    +0.000 A 
ATOM     13  C   UNL     1       1.386   8.886  19.837  0.00  0.00    +0.000 A 
ATOM     14  C   UNL     1       0.733   8.087  20.764  0.00  0.00    +0.000 A 
ATOM     15  C   UNL     1       0.239   8.674  21.933  0.00  0.00    +0.000 A 
ATOM     16  C   UNL     1       0.293  10.063  22.139  0.00  0.00    +0.000 A 
BRANCH  11  18
ATOM     17  C   UNL     1       0.011  12.933  20.374  0.00  0.00    +0.000 C 
ATOM     18  O   UNL     1       0.862  12.237  21.288  0.00  0.00    +0.000 OA
ENDBRANCH  11  18
BRANCH  16  19
ATOM     19  O   UNL     1      -0.302  10.422  23.319  0.00  0.00    +0.000 OA
ATOM     20  C   UNL     1      -1.545  11.104  23.296  0.00  0.00    +0.000 C 
ENDBRANCH  16  19
ENDBRANCH   7  14
ENDBRANCH   1   8
BRANCH   5  21
ATOM     21  S   UNL     1       3.512   2.806  17.592  0.00  0.00    +0.000 S 
ATOM     22  O   UNL     1       4.038   1.474  17.766  0.00  0.00    +0.000 OA
ATOM     23  O   UNL     1       2.410   3.041  16.668  0.00  0.00    +0.000 OA
BRANCH  21  24
ATOM     24  C   UNL     1       4.787   3.904  17.115  0.00  0.00    +0.000 A 
ATOM     25  C   UNL     1       5.057   4.127  15.744  0.00  0.00    +0.000 A 
ATOM     26  C   UNL     1       6.179   4.863  15.284  0.00  0.00    +0.000 A 
ATOM     27  C   UNL     1       7.128   5.425  16.153  0.00  0.00    +0.000 A 
ATOM     28  C   UNL     1       6.879   5.206  17.522  0.00  0.00    +0.000 A 
ATOM     29  N   UNL     1       7.600   5.601  18.577  0.00  0.00    +0.000 NA
ATOM     30  O   UNL     1       6.936   5.118  19.689  0.00  0.00    +0.000 OA
ATOM     31  N   UNL     1       5.783   4.441  19.344  0.00  0.00    +0.000 NA
ATOM     32  C   UNL     1       5.722   4.455  18.005  0.00  0.00    +0.000 A 
ENDBRANCH  21  24
ENDBRANCH   5  21
TORSDOF 6
ENDMDL
MODEL 5
REMARK VINA RESULT:      -7.6      1.439      1.763
REMARK  Name = 
REMARK  8 active torsions:
REMARK  status: ('A' for Active; 'I' for Inactive)
REMARK    1  A    between atoms: C_1  and  O_2
REMARK    2  A    between atoms: O_2  and  C_3
REMARK    3  A    between atoms: C_6  and  N_7
REMARK    4  A    between atoms: C_8  and  C_10
REMARK    5  A    between atoms: N_14  and  S_15
REMARK    6  A    between atoms: S_15  and  C_18
REMARK    7  A    between atoms: C_29  and  O_30
REMARK    8  A    between atoms: O_30  and  C_31
REMARK                            x       y       z     vdW  Elec       q    Type
REMARK                         _______ _______ _______ _____ _____    ______ ____
ROOT
ATOM      1  C   UNL     1       1.449   9.255  21.816  0.00  0.00    +0.000 C 
ATOM      2  C   UNL     1       0.916   9.327  23.245  0.00  0.00    +0.000 C 
ATOM      3  C   UNL     1      -0.585   9.594  23.284  0.00  0.00    +0.000 C 
ATOM      4  C   UNL     1      -0.979  10.813  22.447  0.00  0.00    +0.000 C 
ATOM      5  N   UNL     1      -0.461  10.694  21.039  0.00  0.00    +0.000 NA
ATOM      6  C   UNL     1       1.040  10.486  21.018  0.00  0.00    +0.000 C 
ENDROOT
BRANCH   1   8
ATOM      7  N   UNL     1       2.132   7.300  20.509  0.00  0.00    +0.000 N 
ATOM      8  C   UNL     1       1.076   7.942  21.128  0.00  0.00    +0.000 C 
ATOM      9  O   UNL     1      -0.102   7.595  21.080  0.00  0.00    +0.000 OA
ATOM     10  H   UNL     1       3.025   7.789  20.522  0.00  0.00    +0.000 HD
BRANCH   7  14
ATOM     11  C   UNL     1       2.132   3.616  18.454  0.00  0.00    +0.000 A 
ATOM     12  C   UNL     1       2.330   4.815  17.753  0.00  0.00    +0.000 A 
ATOM     13  C   UNL     1       2.333   6.045  18.410  0.00  0.00    +0.000 A 
ATOM     14  C   UNL     1       2.084   6.105  19.773  0.00  0.00    +0.000 A 
ATOM     15  C   UNL     1       1.764   4.927  20.454  0.00  0.00    +0.000 A 
ATOM     16  C   UNL     1       1.795   3.676  19.815  0.00  0.00    +0.000 A 
BRANCH  11  18
ATOM     17  C   UNL     1       3.474   1.699  18.097  0.00  0.00    +0.000 C 
ATOM     18  O   UNL     1       2.258   2.402  17.831  0.00  0.00    +0.000 OA
ENDBRANCH  11  18
BRANCH  16  19
ATOM     19  O   UNL     1       1.508   2.658  20.685  0.00  0.00    +0.000 OA
ATOM     20  C   UNL     1       1.700   2.854  22.077  0.00  0.00    +0.000 C 
ENDBRANCH  16  19
ENDBRANCH   7  14
ENDBRANCH   1   8
BRANCH   5  21
ATOM     21  S   UNL     1      -0.859  12.064  20.037  0.00  0.00    +0.000 S 
ATOM     22  O   UNL     1      -1.470  13.061  20.882  0.00  0.00    +0.000 OA
ATOM     23  O   UNL     1       0.346  12.385  19.283  0.00  0.00    +0.000 OA
BRANCH  21  24
ATOM     24  C   UNL     1      -2.016  11.465  18.871  0.00  0.00    +0.000 A 
ATOM     25  C   UNL     1      -1.575  10.729  17.746  0.00  0.00    +0.000 A 
ATOM     26  C   UNL     1      -2.431  10.362  16.675  0.00  0.00    +0.000 A 
ATOM     27  C   UNL     1      -3.791  10.710  16.635  0.00  0.00    +0.000 A 
ATOM     28  C   UNL     1      -4.245  11.451  17.744  0.00  0.00    +0.000 A 
ATOM     29  N   UNL     1      -5.470  11.932  17.984  0.00  0.00    +0.000 NA
ATOM     30  O   UNL     1      -5.384  12.594  19.194  0.00  0.00    +0.000 OA
ATOM     31  N   UNL     1      -4.115  12.511  19.735  0.00  0.00    +0.000 NA
ATOM     32  C   UNL     1      -3.372  11.826  18.855  0.00  0.00    +0.000 A 
ENDBRANCH  21  24
ENDBRANCH   5  21
TORSDOF 6
ENDMDL
MODEL 6
REMARK VINA RESULT:      -7.5      6.004      9.124
REMARK  Name = 
REMARK  8 active torsions:
REMARK  status: ('A' for Active; 'I' for Inactive)
REMARK    1  A    between atoms: C_1  and  O_2
REMARK    2  A    between atoms: O_2  and  C_3
REMARK    3  A    between atoms: C_6  and  N_7
REMARK    4  A    between atoms: C_8  and  C_10
REMARK    5  A    between atoms: N_14  and  S_15
REMARK    6  A    between atoms: S_15  and  C_18
REMARK    7  A    between atoms: C_29  and  O_30
REMARK    8  A    between atoms: O_30  and  C_31
REMARK                            x       y       z     vdW  Elec       q    Type
REMARK                         _______ _______ _______ _____ _____    ______ ____
ROOT
ATOM      1  C   UNL     1       7.373   5.819  18.216  0.00  0.00    +0.000 C 
ATOM      2  C   UNL     1       7.595   4.840  17.066  0.00  0.00    +0.000 C 
ATOM      3  C   UNL     1       6.423   4.823  16.092  0.00  0.00    +0.000 C 
ATOM      4  C   UNL     1       5.083   4.604  16.799  0.00  0.00    +0.000 C 
ATOM      5  N   UNL     1       4.887   5.605  17.906  0.00  0.00    +0.000 NA
ATOM      6  C   UNL     1       6.033   5.567  18.896  0.00  0.00    +0.000 C 
ENDROOT
BRANCH   1   8
ATOM      7  N   UNL     1       8.323   8.036  18.641  0.00  0.00    +0.000 N 
ATOM      8  C   UNL     1       7.561   7.272  17.779  0.00  0.00    +0.000 C 
ATOM      9  O   UNL     1       6.969   7.688  16.785  0.00  0.00    +0.000 OA
ATOM     10  H   UNL     1       8.628   7.576  19.497  0.00  0.00    +0.000 HD
BRANCH   7  14
ATOM     11  C   UNL     1       9.214  12.157  18.507  0.00  0.00    +0.000 A 
ATOM     12  C   UNL     1       8.324  11.596  17.579  0.00  0.00    +0.000 A 
ATOM     13  C   UNL     1       8.015  10.237  17.601  0.00  0.00    +0.000 A 
ATOM     14  C   UNL     1       8.631   9.400  18.521  0.00  0.00    +0.000 A 
ATOM     15  C   UNL     1       9.610   9.930  19.367  0.00  0.00    +0.000 A 
ATOM     16  C   UNL     1       9.905  11.303  19.382  0.00  0.00    +0.000 A 
BRANCH  11  18
ATOM     17  C   UNL     1       8.492  14.235  19.381  0.00  0.00    +0.000 C 
ATOM     18  O   UNL     1       9.417  13.510  18.565  0.00  0.00    +0.000 OA
ENDBRANCH  11  18
BRANCH  16  19
ATOM     19  O   UNL     1      10.848  11.606  20.328  0.00  0.00    +0.000 OA
ATOM     20  C   UNL     1      12.185  11.859  19.925  0.00  0.00    +0.000 C 
ENDBRANCH  16  19
ENDBRANCH   7  14
ENDBRANCH   1   8
BRANCH   5  21
ATOM     21  S   UNL     1       3.386   5.395  18.769  0.00  0.00    +0.000 S 
ATOM     22  O   UNL     1       2.612   4.401  18.066  0.00  0.00    +0.000 OA
ATOM     23  O   UNL     1       3.739   5.191  20.167  0.00  0.00    +0.000 OA
BRANCH  21  24
ATOM     24  C   UNL     1       2.587   6.950  18.693  0.00  0.00    +0.000 A 
ATOM     25  C   UNL     1       2.801   7.805  17.586  0.00  0.00    +0.000 A 
ATOM     26  C   UNL     1       2.328   9.142  17.536  0.00  0.00    +0.000 A 
ATOM     27  C   UNL     1       1.617   9.737  18.591  0.00  0.00    +0.000 A 
ATOM     28  C   UNL     1       1.402   8.902  19.705  0.00  0.00    +0.000 A 
ATOM     29  N   UNL     1       0.776   9.182  20.853  0.00  0.00    +0.000 NA
ATOM     30  O   UNL     1       0.854   8.032  21.615  0.00  0.00    +0.000 OA
ATOM     31  N   UNL     1       1.504   7.015  20.944  0.00  0.00    +0.000 NA
ATOM     32  C   UNL     1       1.879   7.521  19.761  0.00  0.00    +0.000 A 
ENDBRANCH  21  24
ENDBRANCH   5  21
TORSDOF 6
ENDMDL
MODEL 7
REMARK VINA RESULT:      -7.4      4.909      7.977
REMARK  Name = 
REMARK  8 active torsions:
REMARK  status: ('A' for Active; 'I' for Inactive)
REMARK    1  A    between atoms: C_1  and  O_2
REMARK    2  A    between atoms: O_2  and  C_3
REMARK    3  A    between atoms: C_6  and  N_7
REMARK    4  A    between atoms: C_8  and  C_10
REMARK    5  A    between atoms: N_14  and  S_15
REMARK    6  A    between atoms: S_15  and  C_18
REMARK    7  A    between atoms: C_29  and  O_30
REMARK    8  A    between atoms: O_30  and  C_31
REMARK                            x       y       z     vdW  Elec       q    Type
REMARK                         _______ _______ _______ _____ _____    ______ ____
ROOT
ATOM      1  C   UNL     1      -2.633   9.697  17.625  0.00  0.00    +0.000 C 
ATOM      2  C   UNL     1      -2.536   9.971  16.126  0.00  0.00    +0.000 C 
ATOM      3  C   UNL     1      -3.130  11.323  15.750  0.00  0.00    +0.000 C 
ATOM      4  C   UNL     1      -4.551  11.504  16.288  0.00  0.00    +0.000 C 
ATOM      5  N   UNL     1      -4.603  11.254  17.772  0.00  0.00    +0.000 NA
ATOM      6  C   UNL     1      -4.062   9.883  18.122  0.00  0.00    +0.000 C 
ENDROOT
BRANCH   1   8
ATOM      7  N   UNL     1      -2.162  11.399  19.322  0.00  0.00    +0.000 N 
ATOM      8  C   UNL     1      -1.610  10.504  18.425  0.00  0.00    +0.000 C 
ATOM      9  O   UNL     1      -0.414  10.390  18.170  0.00  0.00    +0.000 OA
ATOM     10  H   UNL     1      -3.178  11.472  19.315  0.00  0.00    +0.000 HD
BRANCH   7  14
ATOM     11  C   UNL     1       0.084  14.066  21.696  0.00  0.00    +0.000 A 
ATOM     12  C   UNL     1      -0.618  13.009  22.294  0.00  0.00    +0.000 A 
ATOM     13  C   UNL     1      -1.368  12.115  21.531  0.00  0.00    +0.000 A 
ATOM     14  C   UNL     1      -1.476  12.292  20.159  0.00  0.00    +0.000 A 
ATOM     15  C   UNL     1      -0.880  13.415  19.574  0.00  0.00    +0.000 A 
ATOM     16  C   UNL     1      -0.090  14.303  20.323  0.00  0.00    +0.000 A 
BRANCH  11  18
ATOM     17  C   UNL     1       0.338  16.067  22.934  0.00  0.00    +0.000 C 
ATOM     18  O   UNL     1       0.922  14.864  22.429  0.00  0.00    +0.000 OA
ENDBRANCH  11  18
BRANCH  16  19
ATOM     19  O   UNL     1       0.441  15.291  19.537  0.00  0.00    +0.000 OA
ATOM     20  C   UNL     1      -0.426  16.196  18.873  0.00  0.00    +0.000 C 
ENDBRANCH  16  19
ENDBRANCH   7  14
ENDBRANCH   1   8
BRANCH   5  21
ATOM     21  S   UNL     1      -6.202  11.422  18.445  0.00  0.00    +0.000 S 
ATOM     22  O   UNL     1      -6.995  12.182  17.508  0.00  0.00    +0.000 OA
ATOM     23  O   UNL     1      -6.624  10.085  18.842  0.00  0.00    +0.000 OA
BRANCH  21  24
ATOM     24  C   UNL     1      -5.988  12.323  19.928  0.00  0.00    +0.000 A 
ATOM     25  C   UNL     1      -5.005  13.338  20.008  0.00  0.00    +0.000 A 
ATOM     26  C   UNL     1      -4.658  13.989  21.220  0.00  0.00    +0.000 A 
ATOM     27  C   UNL     1      -5.254  13.671  22.452  0.00  0.00    +0.000 A 
ATOM     28  C   UNL     1      -6.230  12.657  22.392  0.00  0.00    +0.000 A 
ATOM     29  N   UNL     1      -6.955  12.134  23.387  0.00  0.00    +0.000 NA
ATOM     30  O   UNL     1      -7.751  11.165  22.804  0.00  0.00    +0.000 OA
ATOM     31  N   UNL     1      -7.551  11.090  21.440  0.00  0.00    +0.000 NA
ATOM     32  C   UNL     1      -6.599  11.987  21.146  0.00  0.00    +0.000 A 
ENDBRANCH  21  24
ENDBRANCH   5  21
TORSDOF 6
ENDMDL
MODEL 8
REMARK VINA RESULT:      -7.4      1.387      1.827
REMARK  Name = 
REMARK  8 active torsions:
REMARK  status: ('A' for Active; 'I' for Inactive)
REMARK    1  A    between atoms: C_1  and  O_2
REMARK    2  A    between atoms: O_2  and  C_3
REMARK    3  A    between atoms: C_6  and  N_7
REMARK    4  A    between atoms: C_8  and  C_10
REMARK    5  A    between atoms: N_14  and  S_15
REMARK    6  A    between atoms: S_15  and  C_18
REMARK    7  A    between atoms: C_29  and  O_30
REMARK    8  A    between atoms: O_30  and  C_31
REMARK                            x       y       z     vdW  Elec       q    Type
REMARK                         _______ _______ _______ _____ _____    ______ ____
ROOT
ATOM      1  C   UNL     1       1.613   9.780  21.322  0.00  0.00    +0.000 C 
ATOM      2  C   UNL     1       1.131   9.331  22.699  0.00  0.00    +0.000 C 
ATOM      3  C   UNL     1      -0.390   9.300  22.792  0.00  0.00    +0.000 C 
ATOM      4  C   UNL     1      -1.026  10.620  22.349  0.00  0.00    +0.000 C 
ATOM      5  N   UNL     1      -0.549  11.016  20.977  0.00  0.00    +0.000 NA
ATOM      6  C   UNL     1       0.962  11.097  20.918  0.00  0.00    +0.000 C 
ENDROOT
BRANCH   1   8
ATOM      7  N   UNL     1       1.978   7.458  20.632  0.00  0.00    +0.000 N 
ATOM      8  C   UNL     1       1.451   8.683  20.269  0.00  0.00    +0.000 C 
ATOM      9  O   UNL     1       0.974   8.961  19.171  0.00  0.00    +0.000 OA
ATOM     10  H   UNL     1       2.466   7.427  21.526  0.00  0.00    +0.000 HD
BRANCH   7  14
ATOM     11  C   UNL     1       2.171   3.827  18.495  0.00  0.00    +0.000 A 
ATOM     12  C   UNL     1       2.604   5.021  17.898  0.00  0.00    +0.000 A 
ATOM     13  C   UNL     1       2.549   6.234  18.584  0.00  0.00    +0.000 A 
ATOM     14  C   UNL     1       2.010   6.286  19.861  0.00  0.00    +0.000 A 
ATOM     15  C   UNL     1       1.464   5.123  20.413  0.00  0.00    +0.000 A 
ATOM     16  C   UNL     1       1.547   3.886  19.751  0.00  0.00    +0.000 A 
BRANCH  11  18
ATOM     17  C   UNL     1       3.472   1.858  18.311  0.00  0.00    +0.000 C 
ATOM     18  O   UNL     1       2.345   2.620  17.871  0.00  0.00    +0.000 OA
ENDBRANCH  11  18
BRANCH  16  19
ATOM     19  O   UNL     1       1.003   2.876  20.499  0.00  0.00    +0.000 OA
ATOM     20  C   UNL     1       1.554   2.576  21.772  0.00  0.00    +0.000 C 
ENDBRANCH  16  19
ENDBRANCH   7  14
ENDBRANCH   1   8
BRANCH   5  21
ATOM     21  S   UNL     1      -1.221  12.526  20.421  0.00  0.00    +0.000 S 
ATOM     22  O   UNL     1      -1.649  13.268  21.582  0.00  0.00    +0.000 OA
ATOM     23  O   UNL     1      -0.242  13.100  19.507  0.00  0.00    +0.000 OA
BRANCH  21  24
ATOM     24  C   UNL     1      -2.601  12.086  19.441  0.00  0.00    +0.000 A 
ATOM     25  C   UNL     1      -2.415  11.652  18.106  0.00  0.00    +0.000 A 
ATOM     26  C   UNL     1      -3.488  11.446  17.202  0.00  0.00    +0.000 A 
ATOM     27  C   UNL     1      -4.831  11.667  17.550  0.00  0.00    +0.000 A 
ATOM     28  C   UNL     1      -5.033  12.107  18.873  0.00  0.00    +0.000 A 
ATOM     29  N   UNL     1      -6.182  12.409  19.488  0.00  0.00    +0.000 NA
ATOM     30  O   UNL     1      -5.833  12.801  20.767  0.00  0.00    +0.000 OA
ATOM     31  N   UNL     1      -4.470  12.723  20.974  0.00  0.00    +0.000 NA
ATOM     32  C   UNL     1      -3.934  12.315  19.814  0.00  0.00    +0.000 A 
ENDBRANCH  21  24
ENDBRANCH   5  21
TORSDOF 6
ENDMDL
MODEL 9
REMARK VINA RESULT:      -7.4      5.951      9.160
REMARK  Name = 
REMARK  8 active torsions:
REMARK  status: ('A' for Active; 'I' for Inactive)
REMARK    1  A    between atoms: C_1  and  O_2
REMARK    2  A    between atoms: O_2  and  C_3
REMARK    3  A    between atoms: C_6  and  N_7
REMARK    4  A    between atoms: C_8  and  C_10
REMARK    5  A    between atoms: N_14  and  S_15
REMARK    6  A    between atoms: S_15  and  C_18
REMARK    7  A    between atoms: C_29  and  O_30
REMARK    8  A    between atoms: O_30  and  C_31
REMARK                            x       y       z     vdW  Elec       q    Type
REMARK                         _______ _______ _______ _____ _____    ______ ____
ROOT
ATOM      1  C   UNL     1       7.304   5.645  18.322  0.00  0.00    +0.000 C 
ATOM      2  C   UNL     1       7.711   4.750  17.154  0.00  0.00    +0.000 C 
ATOM      3  C   UNL     1       6.609   4.637  16.107  0.00  0.00    +0.000 C 
ATOM      4  C   UNL     1       5.267   4.229  16.719  0.00  0.00    +0.000 C 
ATOM      5  N   UNL     1       4.885   5.149  17.847  0.00  0.00    +0.000 NA
ATOM      6  C   UNL     1       5.967   5.205  18.905  0.00  0.00    +0.000 C 
ENDROOT
BRANCH   1   8
ATOM      7  N   UNL     1       8.326   7.855  18.588  0.00  0.00    +0.000 N 
ATOM      8  C   UNL     1       7.338   7.127  17.951  0.00  0.00    +0.000 C 
ATOM      9  O   UNL     1       6.466   7.590  17.219  0.00  0.00    +0.000 OA
ATOM     10  H   UNL     1       8.883   7.349  19.274  0.00  0.00    +0.000 HD
BRANCH   7  14
ATOM     11  C   UNL     1       9.028  12.012  18.472  0.00  0.00    +0.000 A 
ATOM     12  C   UNL     1       8.185  11.413  17.525  0.00  0.00    +0.000 A 
ATOM     13  C   UNL     1       7.939  10.040  17.541  0.00  0.00    +0.000 A 
ATOM     14  C   UNL     1       8.573   9.232  18.473  0.00  0.00    +0.000 A 
ATOM     15  C   UNL     1       9.508   9.805  19.341  0.00  0.00    +0.000 A 
ATOM     16  C   UNL     1       9.739  11.191  19.362  0.00  0.00    +0.000 A 
BRANCH  11  18
ATOM     17  C   UNL     1       8.411  14.021  19.561  0.00  0.00    +0.000 C 
ATOM     18  O   UNL     1       9.167  13.374  18.535  0.00  0.00    +0.000 OA
ENDBRANCH  11  18
BRANCH  16  19
ATOM     19  O   UNL     1      10.646  11.537  20.328  0.00  0.00    +0.000 OA
ATOM     20  C   UNL     1      11.949  11.948  19.946  0.00  0.00    +0.000 C 
ENDBRANCH  16  19
ENDBRANCH   7  14
ENDBRANCH   1   8
BRANCH   5  21
ATOM     21  S   UNL     1       3.372   4.724  18.603  0.00  0.00    +0.000 S 
ATOM     22  O   UNL     1       2.499   4.209  17.576  0.00  0.00    +0.000 OA
ATOM     23  O   UNL     1       3.706   3.901  19.758  0.00  0.00    +0.000 OA
BRANCH  21  24
ATOM     24  C   UNL     1       2.738   6.223  19.243  0.00  0.00    +0.000 A 
ATOM     25  C   UNL     1       2.123   6.248  20.517  0.00  0.00    +0.000 A 
ATOM     26  C   UNL     1       1.436   7.381  21.025  0.00  0.00    +0.000 A 
ATOM     27  C   UNL     1       1.296   8.574  20.298  0.00  0.00    +0.000 A 
ATOM     28  C   UNL     1       1.896   8.565  19.023  0.00  0.00    +0.000 A 
ATOM     29  N   UNL     1       1.923   9.535  18.103  0.00  0.00    +0.000 NA
ATOM     30  O   UNL     1       2.620   9.017  17.029  0.00  0.00    +0.000 OA
ATOM     31  N   UNL     1       3.059   7.730  17.274  0.00  0.00    +0.000 NA
ATOM     32  C   UNL     1       2.612   7.404  18.496  0.00  0.00    +0.000 A 
ENDBRANCH  21  24
ENDBRANCH   5  21
TORSDOF 6
ENDMDL
