MODEL 1
REMARK VINA RESULT:      -7.4      0.000      0.000
REMARK  Name = 
REMARK  7 active torsions:
REMARK  status: ('A' for Active; 'I' for Inactive)
REMARK    1  A    between atoms: C_1  and  O_2
REMARK    2  A    between atoms: O_2  and  C_3
REMARK    3  A    between atoms: C_6  and  C_7
REMARK    4  A    between atoms: C_7  and  C_8
REMARK    5  A    between atoms: N_9  and  O_10
REMARK    6  A    between atoms: N_11  and  C_12
REMARK    7  A    between atoms: C_15  and  N_16
REMARK                            x       y       z     vdW  Elec       q    Type
REMARK                         _______ _______ _______ _____ _____    ______ ____
ROOT
ATOM      1  C   UNL     1       2.895   4.496  19.706  0.00  0.00    +0.000 C 
ATOM      2  N   UNL     1       1.725   3.935  19.603  0.00  0.00    +0.000 NA
ATOM      3  N   UNL     1       3.227   5.768  20.169  0.00  0.00    +0.000 N 
ATOM      4  H   UNL     1       3.818   5.765  20.997  0.00  0.00    +0.000 HD
ENDROOT
BRANCH   3   5
ATOM      5  C   UNL     1       2.384   6.896  20.118  0.00  0.00    +0.000 A 
ATOM      6  C   UNL     1       1.542   7.257  21.199  0.00  0.00    +0.000 A 
ATOM      7  C   UNL     1       0.721   8.411  21.215  0.00  0.00    +0.000 A 
ATOM      8  C   UNL     1       0.667   9.303  20.124  0.00  0.00    +0.000 A 
ATOM      9  C   UNL     1       1.447   8.973  19.000  0.00  0.00    +0.000 A 
ATOM     10  N   UNL     1       1.617   9.570  17.811  0.00  0.00    +0.000 NA
ATOM     11  O   UNL     1       2.511   8.795  17.101  0.00  0.00    +0.000 OA
ATOM     12  N   UNL     1       2.923   7.692  17.825  0.00  0.00    +0.000 NA
ATOM     13  C   UNL     1       2.287   7.772  19.004  0.00  0.00    +0.000 A 
BRANCH   8  14
ATOM     14  N   UNL     1      -0.142  10.505  20.173  0.00  0.00    +0.000 N 
ATOM     15  O   UNL     1       0.267  11.424  20.896  0.00  0.00    +0.000 OA
ATOM     16  O   UNL     1      -1.178  10.560  19.500  0.00  0.00    +0.000 OA
ENDBRANCH   8  14
ENDBRANCH   3   5
BRANCH   2  17
ATOM     17  O   UNL     1       0.684   4.696  20.138  0.00  0.00    +0.000 OA
ATOM     18  H   UNL     1       0.634   5.440  19.511  0.00  0.00    +0.000 HD
ENDBRANCH   2  17
BRANCH   1  19
ATOM     19  C   UNL     1       4.111   3.627  19.323  0.00  0.00    +0.000 C 
BRANCH  19  23
ATOM     20  C   UNL     1       6.680   5.102  16.160  0.00  0.00    +0.000 A 
ATOM     21  C   UNL     1       5.370   4.704  15.883  0.00  0.00    +0.000 A 
ATOM     22  C   UNL     1       4.526   4.258  16.905  0.00  0.00    +0.000 A 
ATOM     23  C   UNL     1       4.988   4.191  18.225  0.00  0.00    +0.000 A 
ATOM     24  C   UNL     1       6.303   4.595  18.498  0.00  0.00    +0.000 A 
ATOM     25  C   UNL     1       7.144   5.047  17.473  0.00  0.00    +0.000 A 
BRANCH  20  27
ATOM     26  C   UNL     1       7.118   4.812  13.847  0.00  0.00    +0.000 C 
ATOM     27  O   UNL     1       7.409   5.483  15.067  0.00  0.00    +0.000 OA
ENDBRANCH  20  27
ENDBRANCH  19  23
ENDBRANCH   1  19
TORSDOF 6
ENDMDL
MODEL 2
REMARK VINA RESULT:      -7.3      0.175      1.156
REMARK  Name = 
REMARK  7 active torsions:
REMARK  status: ('A' for Active; 'I' for Inactive)
REMARK    1  A    between atoms: C_1  and  O_2
REMARK    2  A    between atoms: O_2  and  C_3
REMARK    3  A    between atoms: C_6  and  C_7
REMARK    4  A    between atoms: C_7  and  C_8
REMARK    5  A    between atoms: N_9  and  O_10
REMARK    6  A    between atoms: N_11  and  C_12
REMARK    7  A    between atoms: C_15  and  N_16
REMARK                            x       y       z     vdW  Elec       q    Type
REMARK                         _______ _______ _______ _____ _____    ______ ____
ROOT
ATOM      1  C   UNL     1       2.957   4.517  19.757  0.00  0.00    +0.000 C 
ATOM      2  N   UNL     1       1.790   3.955  19.621  0.00  0.00    +0.000 NA
ATOM      3  N   UNL     1       3.272   5.801  20.196  0.00  0.00    +0.000 N 
ATOM      4  H   UNL     1       3.829   5.821  21.048  0.00  0.00    +0.000 HD
ENDROOT
BRANCH   3   5
ATOM      5  C   UNL     1       2.435   6.928  20.077  0.00  0.00    +0.000 A 
ATOM      6  C   UNL     1       1.564   7.332  21.119  0.00  0.00    +0.000 A 
ATOM      7  C   UNL     1       0.747   8.489  21.067  0.00  0.00    +0.000 A 
ATOM      8  C   UNL     1       0.728   9.338  19.942  0.00  0.00    +0.000 A 
ATOM      9  C   UNL     1       1.539   8.964  18.854  0.00  0.00    +0.000 A 
ATOM     10  N   UNL     1       1.746   9.514  17.649  0.00  0.00    +0.000 NA
ATOM     11  O   UNL     1       2.657   8.710  16.995  0.00  0.00    +0.000 OA
ATOM     12  N   UNL     1       3.044   7.634  17.772  0.00  0.00    +0.000 NA
ATOM     13  C   UNL     1       2.374   7.761  18.929  0.00  0.00    +0.000 A 
BRANCH   8  14
ATOM     14  N   UNL     1      -0.078  10.543  19.921  0.00  0.00    +0.000 N 
ATOM     15  O   UNL     1      -1.140  10.492  19.284  0.00  0.00    +0.000 OA
ATOM     16  O   UNL     1       0.318  11.543  20.530  0.00  0.00    +0.000 OA
ENDBRANCH   8  14
ENDBRANCH   3   5
BRANCH   2  17
ATOM     17  O   UNL     1       0.731   4.732  20.091  0.00  0.00    +0.000 OA
ATOM     18  H   UNL     1       0.786   4.590  21.053  0.00  0.00    +0.000 HD
ENDBRANCH   2  17
BRANCH   1  19
ATOM     19  C   UNL     1       4.185   3.635  19.450  0.00  0.00    +0.000 C 
BRANCH  19  23
ATOM     20  C   UNL     1       6.513   5.041  16.076  0.00  0.00    +0.000 A 
ATOM     21  C   UNL     1       7.070   5.002  17.356  0.00  0.00    +0.000 A 
ATOM     22  C   UNL     1       6.335   4.519  18.443  0.00  0.00    +0.000 A 
ATOM     23  C   UNL     1       5.018   4.077  18.265  0.00  0.00    +0.000 A 
ATOM     24  C   UNL     1       4.464   4.116  16.977  0.00  0.00    +0.000 A 
ATOM     25  C   UNL     1       5.206   4.596  15.890  0.00  0.00    +0.000 A 
BRANCH  20  27
ATOM     26  C   UNL     1       7.307   4.920  13.844  0.00  0.00    +0.000 C 
ATOM     27  O   UNL     1       7.326   5.569  15.110  0.00  0.00    +0.000 OA
ENDBRANCH  20  27
ENDBRANCH  19  23
ENDBRANCH   1  19
TORSDOF 6
ENDMDL
MODEL 3
REMARK VINA RESULT:      -7.2      3.931      5.374
REMARK  Name = 
REMARK  7 active torsions:
REMARK  status: ('A' for Active; 'I' for Inactive)
REMARK    1  A    between atoms: C_1  and  O_2
REMARK    2  A    between atoms: O_2  and  C_3
REMARK    3  A    between atoms: C_6  and  C_7
REMARK    4  A    between atoms: C_7  and  C_8
REMARK    5  A    between atoms: N_9  and  O_10
REMARK    6  A    between atoms: N_11  and  C_12
REMARK    7  A    between atoms: C_15  and  N_16
REMARK                            x       y       z     vdW  Elec       q    Type
REMARK                         _______ _______ _______ _____ _____    ______ ____
ROOT
ATOM      1  C   UNL     1       6.551   5.552  17.583  0.00  0.00    +0.000 C 
ATOM      2  N   UNL     1       7.368   5.054  18.466  0.00  0.00    +0.000 NA
ATOM      3  N   UNL     1       5.183   5.800  17.686  0.00  0.00    +0.000 N 
ATOM      4  H   UNL     1       4.933   6.781  17.592  0.00  0.00    +0.000 HD
ENDROOT
BRANCH   3   5
ATOM      5  C   UNL     1       4.292   5.098  18.521  0.00  0.00    +0.000 A 
ATOM      6  C   UNL     1       3.633   5.720  19.611  0.00  0.00    +0.000 A 
ATOM      7  C   UNL     1       2.687   5.071  20.442  0.00  0.00    +0.000 A 
ATOM      8  C   UNL     1       2.331   3.720  20.253  0.00  0.00    +0.000 A 
ATOM      9  C   UNL     1       2.987   3.033  19.214  0.00  0.00    +0.000 A 
ATOM     10  N   UNL     1       2.910   1.769  18.775  0.00  0.00    +0.000 NA
ATOM     11  O   UNL     1       3.785   1.661  17.714  0.00  0.00    +0.000 OA
ATOM     12  N   UNL     1       4.436   2.853  17.461  0.00  0.00    +0.000 NA
ATOM     13  C   UNL     1       3.964   3.725  18.368  0.00  0.00    +0.000 A 
BRANCH   8  14
ATOM     14  N   UNL     1       1.328   3.082  21.082  0.00  0.00    +0.000 N 
ATOM     15  O   UNL     1       0.221   2.878  20.562  0.00  0.00    +0.000 OA
ATOM     16  O   UNL     1       1.616   2.770  22.243  0.00  0.00    +0.000 OA
ENDBRANCH   8  14
ENDBRANCH   3   5
BRANCH   2  17
ATOM     17  O   UNL     1       6.788   4.849  19.719  0.00  0.00    +0.000 OA
ATOM     18  H   UNL     1       7.519   5.080  20.321  0.00  0.00    +0.000 HD
ENDBRANCH   2  17
BRANCH   1  19
ATOM     19  C   UNL     1       7.173   5.994  16.242  0.00  0.00    +0.000 C 
BRANCH  19  23
ATOM     20  C   UNL     1       5.966   3.618  12.825  0.00  0.00    +0.000 A 
ATOM     21  C   UNL     1       5.150   3.703  13.955  0.00  0.00    +0.000 A 
ATOM     22  C   UNL     1       5.518   4.494  15.048  0.00  0.00    +0.000 A 
ATOM     23  C   UNL     1       6.724   5.206  15.030  0.00  0.00    +0.000 A 
ATOM     24  C   UNL     1       7.539   5.119  13.892  0.00  0.00    +0.000 A 
ATOM     25  C   UNL     1       7.163   4.331  12.797  0.00  0.00    +0.000 A 
BRANCH  20  27
ATOM     26  C   UNL     1       4.256   3.125  11.257  0.00  0.00    +0.000 C 
ATOM     27  O   UNL     1       5.506   2.784  11.843  0.00  0.00    +0.000 OA
ENDBRANCH  20  27
ENDBRANCH  19  23
ENDBRANCH   1  19
TORSDOF 6
ENDMDL
MODEL 4
REMARK VINA RESULT:      -7.2      1.389      2.066
REMARK  Name = 
REMARK  7 active torsions:
REMARK  status: ('A' for Active; 'I' for Inactive)
REMARK    1  A    between atoms: C_1  and  O_2
REMARK    2  A    between atoms: O_2  and  C_3
REMARK    3  A    between atoms: C_6  and  C_7
REMARK    4  A    between atoms: C_7  and  C_8
REMARK    5  A    between atoms: N_9  and  O_10
REMARK    6  A    between atoms: N_11  and  C_12
REMARK    7  A    between atoms: C_15  and  N_16
REMARK                            x       y       z     vdW  Elec       q    Type
REMARK                         _______ _______ _______ _____ _____    ______ ____
ROOT
ATOM      1  C   UNL     1       2.762   4.986  19.846  0.00  0.00    +0.000 C 
ATOM      2  N   UNL     1       1.567   4.515  20.056  0.00  0.00    +0.000 NA
ATOM      3  N   UNL     1       3.200   6.309  19.827  0.00  0.00    +0.000 N 
ATOM      4  H   UNL     1       3.889   6.527  20.543  0.00  0.00    +0.000 HD
ENDROOT
BRANCH   3   5
ATOM      5  C   UNL     1       2.402   7.423  19.496  0.00  0.00    +0.000 A 
ATOM      6  C   UNL     1       2.264   7.880  18.162  0.00  0.00    +0.000 A 
ATOM      7  C   UNL     1       1.431   8.957  17.774  0.00  0.00    +0.000 A 
ATOM      8  C   UNL     1       0.668   9.685  18.710  0.00  0.00    +0.000 A 
ATOM      9  C   UNL     1       0.799   9.308  20.060  0.00  0.00    +0.000 A 
ATOM     10  N   UNL     1       0.251   9.781  21.189  0.00  0.00    +0.000 NA
ATOM     11  O   UNL     1       0.743   9.013  22.223  0.00  0.00    +0.000 OA
ATOM     12  N   UNL     1       1.613   8.039  21.771  0.00  0.00    +0.000 NA
ATOM     13  C   UNL     1       1.670   8.191  20.438  0.00  0.00    +0.000 A 
BRANCH   8  14
ATOM     14  N   UNL     1      -0.215  10.755  18.293  0.00  0.00    +0.000 N 
ATOM     15  O   UNL     1       0.172  11.913  18.507  0.00  0.00    +0.000 OA
ATOM     16  O   UNL     1      -1.289  10.473  17.750  0.00  0.00    +0.000 OA
ENDBRANCH   8  14
ENDBRANCH   3   5
BRANCH   2  17
ATOM     17  O   UNL     1       0.633   5.487  20.417  0.00  0.00    +0.000 OA
ATOM     18  H   UNL     1       0.842   5.630  21.358  0.00  0.00    +0.000 HD
ENDBRANCH   2  17
BRANCH   1  19
ATOM     19  C   UNL     1       3.885   3.947  19.645  0.00  0.00    +0.000 C 
BRANCH  19  23
ATOM     20  C   UNL     1       6.715   4.678  16.445  0.00  0.00    +0.000 A 
ATOM     21  C   UNL     1       5.442   4.176  16.166  0.00  0.00    +0.000 A 
ATOM     22  C   UNL     1       4.513   3.969  17.191  0.00  0.00    +0.000 A 
ATOM     23  C   UNL     1       4.852   4.251  18.520  0.00  0.00    +0.000 A 
ATOM     24  C   UNL     1       6.131   4.756  18.795  0.00  0.00    +0.000 A 
ATOM     25  C   UNL     1       7.057   4.968  17.764  0.00  0.00    +0.000 A 
BRANCH  20  27
ATOM     26  C   UNL     1       6.906   4.788  14.083  0.00  0.00    +0.000 C 
ATOM     27  O   UNL     1       7.537   4.799  15.358  0.00  0.00    +0.000 OA
ENDBRANCH  20  27
ENDBRANCH  19  23
ENDBRANCH   1  19
TORSDOF 6
ENDMDL
MODEL 5
REMARK VINA RESULT:      -7.2      2.958      7.886
REMARK  Name = 
REMARK  7 active torsions:
REMARK  status: ('A' for Active; 'I' for Inactive)
REMARK    1  A    between atoms: C_1  and  O_2
REMARK    2  A    between atoms: O_2  and  C_3
REMARK    3  A    between atoms: C_6  and  C_7
REMARK    4  A    between atoms: C_7  and  C_8
REMARK    5  A    between atoms: N_9  and  O_10
REMARK    6  A    between atoms: N_11  and  C_12
REMARK    7  A    between atoms: C_15  and  N_16
REMARK                            x       y       z     vdW  Elec       q    Type
REMARK                         _______ _______ _______ _____ _____    ______ ____
ROOT
ATOM      1  C   UNL     1       2.260   7.735  18.695  0.00  0.00    +0.000 C 
ATOM      2  N   UNL     1       2.042   7.840  19.974  0.00  0.00    +0.000 NA
ATOM      3  N   UNL     1       2.461   6.591  17.924  0.00  0.00    +0.000 N 
ATOM      4  H   UNL     1       1.752   6.444  17.209  0.00  0.00    +0.000 HD
ENDROOT
BRANCH   3   5
ATOM      5  C   UNL     1       3.003   5.379  18.397  0.00  0.00    +0.000 A 
ATOM      6  C   UNL     1       4.325   5.292  18.899  0.00  0.00    +0.000 A 
ATOM      7  C   UNL     1       4.893   4.111  19.437  0.00  0.00    +0.000 A 
ATOM      8  C   UNL     1       4.175   2.899  19.501  0.00  0.00    +0.000 A 
ATOM      9  C   UNL     1       2.870   2.911  18.973  0.00  0.00    +0.000 A 
ATOM     10  N   UNL     1       1.933   1.959  18.855  0.00  0.00    +0.000 NA
ATOM     11  O   UNL     1       0.837   2.549  18.262  0.00  0.00    +0.000 OA
ATOM     12  N   UNL     1       1.057   3.887  17.990  0.00  0.00    +0.000 NA
ATOM     13  C   UNL     1       2.303   4.145  18.420  0.00  0.00    +0.000 A 
BRANCH   8  14
ATOM     14  N   UNL     1       4.753   1.711  20.095  0.00  0.00    +0.000 N 
ATOM     15  O   UNL     1       4.826   0.705  19.373  0.00  0.00    +0.000 OA
ATOM     16  O   UNL     1       5.143   1.752  21.267  0.00  0.00    +0.000 OA
ENDBRANCH   8  14
ENDBRANCH   3   5
BRANCH   2  17
ATOM     17  O   UNL     1       1.887   6.615  20.623  0.00  0.00    +0.000 OA
ATOM     18  H   UNL     1       2.659   6.601  21.217  0.00  0.00    +0.000 HD
ENDBRANCH   2  17
BRANCH   1  19
ATOM     19  C   UNL     1       2.237   9.047  17.882  0.00  0.00    +0.000 C 
BRANCH  19  23
ATOM     20  C   UNL     1      -1.053  11.663  18.936  0.00  0.00    +0.000 A 
ATOM     21  C   UNL     1       0.263  12.019  19.239  0.00  0.00    +0.000 A 
ATOM     22  C   UNL     1       1.331  11.195  18.873  0.00  0.00    +0.000 A 
ATOM     23  C   UNL     1       1.095   9.987  18.205  0.00  0.00    +0.000 A 
ATOM     24  C   UNL     1      -0.228   9.635  17.900  0.00  0.00    +0.000 A 
ATOM     25  C   UNL     1      -1.295  10.466  18.264  0.00  0.00    +0.000 A 
BRANCH  20  27
ATOM     26  C   UNL     1      -1.633  13.378  20.468  0.00  0.00    +0.000 C 
ATOM     27  O   UNL     1      -2.005  12.539  19.381  0.00  0.00    +0.000 OA
ENDBRANCH  20  27
ENDBRANCH  19  23
ENDBRANCH   1  19
TORSDOF 6
ENDMDL
MODEL 6
REMARK VINA RESULT:      -7.2      3.011      7.756
REMARK  Name = 
REMARK  7 active torsions:
REMARK  status: ('A' for Active; 'I' for Inactive)
REMARK    1  A    between atoms: C_1  and  O_2
REMARK    2  A    between atoms: O_2  and  C_3
REMARK    3  A    between atoms: C_6  and  C_7
REMARK    4  A    between atoms: C_7  and  C_8
REMARK    5  A    between atoms: N_9  and  O_10
REMARK    6  A    between atoms: N_11  and  C_12
REMARK    7  A    between atoms: C_15  and  N_16
REMARK                            x       y       z     vdW  Elec       q    Type
REMARK                         _______ _______ _______ _____ _____    ______ ____
ROOT
ATOM      1  C   UNL     1       1.935   8.084  18.973  0.00  0.00    +0.000 C 
ATOM      2  N   UNL     1       1.909   8.177  20.271  0.00  0.00    +0.000 NA
ATOM      3  N   UNL     1       2.023   6.948  18.170  0.00  0.00    +0.000 N 
ATOM      4  H   UNL     1       1.217   6.804  17.567  0.00  0.00    +0.000 HD
ENDROOT
BRANCH   3   5
ATOM      5  C   UNL     1       2.634   5.735  18.545  0.00  0.00    +0.000 A 
ATOM      6  C   UNL     1       1.882   4.617  18.982  0.00  0.00    +0.000 A 
ATOM      7  C   UNL     1       2.446   3.361  19.314  0.00  0.00    +0.000 A 
ATOM      8  C   UNL     1       3.835   3.126  19.249  0.00  0.00    +0.000 A 
ATOM      9  C   UNL     1       4.641   4.215  18.866  0.00  0.00    +0.000 A 
ATOM     10  N   UNL     1       5.968   4.351  18.719  0.00  0.00    +0.000 NA
ATOM     11  O   UNL     1       6.193   5.650  18.314  0.00  0.00    +0.000 OA
ATOM     12  N   UNL     1       5.014   6.363  18.198  0.00  0.00    +0.000 NA
ATOM     13  C   UNL     1       4.035   5.506  18.529  0.00  0.00    +0.000 A 
BRANCH   8  14
ATOM     14  N   UNL     1       4.394   1.823  19.548  0.00  0.00    +0.000 N 
ATOM     15  O   UNL     1       4.116   0.904  18.765  0.00  0.00    +0.000 OA
ATOM     16  O   UNL     1       5.113   1.691  20.545  0.00  0.00    +0.000 OA
ENDBRANCH   8  14
ENDBRANCH   3   5
BRANCH   2  17
ATOM     17  O   UNL     1       1.856   6.945  20.924  0.00  0.00    +0.000 OA
ATOM     18  H   UNL     1       2.426   6.392  20.360  0.00  0.00    +0.000 HD
ENDBRANCH   2  17
BRANCH   1  19
ATOM     19  C   UNL     1       1.787   9.403  18.186  0.00  0.00    +0.000 C 
BRANCH  19  23
ATOM     20  C   UNL     1      -2.115  11.286  18.188  0.00  0.00    +0.000 A 
ATOM     21  C   UNL     1      -1.896  10.108  17.472  0.00  0.00    +0.000 A 
ATOM     22  C   UNL     1      -0.648   9.478  17.493  0.00  0.00    +0.000 A 
ATOM     23  C   UNL     1       0.409  10.029  18.227  0.00  0.00    +0.000 A 
ATOM     24  C   UNL     1       0.184  11.211  18.947  0.00  0.00    +0.000 A 
ATOM     25  C   UNL     1      -1.070  11.837  18.928  0.00  0.00    +0.000 A 
BRANCH  20  27
ATOM     26  C   UNL     1      -4.110  11.410  16.910  0.00  0.00    +0.000 C 
ATOM     27  O   UNL     1      -3.369  11.818  18.054  0.00  0.00    +0.000 OA
ENDBRANCH  20  27
ENDBRANCH  19  23
ENDBRANCH   1  19
TORSDOF 6
ENDMDL
MODEL 7
REMARK VINA RESULT:      -7.2      2.914      7.861
REMARK  Name = 
REMARK  7 active torsions:
REMARK  status: ('A' for Active; 'I' for Inactive)
REMARK    1  A    between atoms: C_1  and  O_2
REMARK    2  A    between atoms: O_2  and  C_3
REMARK    3  A    between atoms: C_6  and  C_7
REMARK    4  A    between atoms: C_7  and  C_8
REMARK    5  A    between atoms: N_9  and  O_10
REMARK    6  A    between atoms: N_11  and  C_12
REMARK    7  A    between atoms: C_15  and  N_16
REMARK                            x       y       z     vdW  Elec       q    Type
REMARK                         _______ _______ _______ _____ _____    ______ ____
ROOT
ATOM      1  C   UNL     1       1.970   8.105  18.954  0.00  0.00    +0.000 C 
ATOM      2  N   UNL     1       1.899   8.167  20.252  0.00  0.00    +0.000 NA
ATOM      3  N   UNL     1       2.076   6.987  18.127  0.00  0.00    +0.000 N 
ATOM      4  H   UNL     1       1.290   6.866  17.493  0.00  0.00    +0.000 HD
ENDROOT
BRANCH   3   5
ATOM      5  C   UNL     1       2.663   5.760  18.494  0.00  0.00    +0.000 A 
ATOM      6  C   UNL     1       1.885   4.641  18.883  0.00  0.00    +0.000 A 
ATOM      7  C   UNL     1       2.426   3.372  19.205  0.00  0.00    +0.000 A 
ATOM      8  C   UNL     1       3.813   3.123  19.176  0.00  0.00    +0.000 A 
ATOM      9  C   UNL     1       4.643   4.210  18.842  0.00  0.00    +0.000 A 
ATOM     10  N   UNL     1       5.974   4.334  18.738  0.00  0.00    +0.000 NA
ATOM     11  O   UNL     1       6.225   5.639  18.368  0.00  0.00    +0.000 OA
ATOM     12  N   UNL     1       5.059   6.368  18.232  0.00  0.00    +0.000 NA
ATOM     13  C   UNL     1       4.061   5.515  18.514  0.00  0.00    +0.000 A 
BRANCH   8  14
ATOM     14  N   UNL     1       4.350   1.808  19.463  0.00  0.00    +0.000 N 
ATOM     15  O   UNL     1       5.037   1.697  20.488  0.00  0.00    +0.000 OA
ATOM     16  O   UNL     1       4.098   0.874  18.694  0.00  0.00    +0.000 OA
ENDBRANCH   8  14
ENDBRANCH   3   5
BRANCH   2  17
ATOM     17  O   UNL     1       1.812   6.920  20.873  0.00  0.00    +0.000 OA
ATOM     18  H   UNL     1       2.541   6.963  21.517  0.00  0.00    +0.000 HD
ENDBRANCH   2  17
BRANCH   1  19
ATOM     19  C   UNL     1       1.862   9.443  18.194  0.00  0.00    +0.000 C 
BRANCH  19  23
ATOM     20  C   UNL     1      -1.926  11.458  18.801  0.00  0.00    +0.000 A 
ATOM     21  C   UNL     1      -0.769  11.914  19.436  0.00  0.00    +0.000 A 
ATOM     22  C   UNL     1       0.462  11.288  19.219  0.00  0.00    +0.000 A 
ATOM     23  C   UNL     1       0.551  10.181  18.367  0.00  0.00    +0.000 A 
ATOM     24  C   UNL     1      -0.613   9.728  17.730  0.00  0.00    +0.000 A 
ATOM     25  C   UNL     1      -1.844  10.361  17.945  0.00  0.00    +0.000 A 
BRANCH  20  27
ATOM     26  C   UNL     1      -4.271  11.678  18.522  0.00  0.00    +0.000 C 
ATOM     27  O   UNL     1      -3.069  12.136  19.128  0.00  0.00    +0.000 OA
ENDBRANCH  20  27
ENDBRANCH  19  23
ENDBRANCH   1  19
TORSDOF 6
ENDMDL
MODEL 8
REMARK VINA RESULT:      -7.2      2.964      7.803
REMARK  Name = 
REMARK  7 active torsions:
REMARK  status: ('A' for Active; 'I' for Inactive)
REMARK    1  A    between atoms: C_1  and  O_2
REMARK    2  A    between atoms: O_2  and  C_3
REMARK    3  A    between atoms: C_6  and  C_7
REMARK    4  A    between atoms: C_7  and  C_8
REMARK    5  A    between atoms: N_9  and  O_10
REMARK    6  A    between atoms: N_11  and  C_12
REMARK    7  A    between atoms: C_15  and  N_16
REMARK                            x       y       z     vdW  Elec       q    Type
REMARK                         _______ _______ _______ _____ _____    ______ ____
ROOT
ATOM      1  C   UNL     1       2.278   7.722  18.655  0.00  0.00    +0.000 C 
ATOM      2  N   UNL     1       2.059   7.833  19.933  0.00  0.00    +0.000 NA
ATOM      3  N   UNL     1       2.479   6.574  17.890  0.00  0.00    +0.000 N 
ATOM      4  H   UNL     1       1.771   6.425  17.175  0.00  0.00    +0.000 HD
ENDROOT
BRANCH   3   5
ATOM      5  C   UNL     1       3.019   5.364  18.369  0.00  0.00    +0.000 A 
ATOM      6  C   UNL     1       4.343   5.274  18.864  0.00  0.00    +0.000 A 
ATOM      7  C   UNL     1       4.910   4.095  19.407  0.00  0.00    +0.000 A 
ATOM      8  C   UNL     1       4.186   2.887  19.485  0.00  0.00    +0.000 A 
ATOM      9  C   UNL     1       2.878   2.901  18.965  0.00  0.00    +0.000 A 
ATOM     10  N   UNL     1       1.936   1.952  18.861  0.00  0.00    +0.000 NA
ATOM     11  O   UNL     1       0.838   2.543  18.270  0.00  0.00    +0.000 OA
ATOM     12  N   UNL     1       1.063   3.877  17.987  0.00  0.00    +0.000 NA
ATOM     13  C   UNL     1       2.313   4.132  18.406  0.00  0.00    +0.000 A 
BRANCH   8  14
ATOM     14  N   UNL     1       4.762   1.700  20.084  0.00  0.00    +0.000 N 
ATOM     15  O   UNL     1       5.121   1.790  21.267  0.00  0.00    +0.000 OA
ATOM     16  O   UNL     1       4.863   0.672  19.407  0.00  0.00    +0.000 OA
ENDBRANCH   8  14
ENDBRANCH   3   5
BRANCH   2  17
ATOM     17  O   UNL     1       1.901   6.610  20.588  0.00  0.00    +0.000 OA
ATOM     18  H   UNL     1       0.935   6.488  20.557  0.00  0.00    +0.000 HD
ENDBRANCH   2  17
BRANCH   1  19
ATOM     19  C   UNL     1       2.259   9.030  17.837  0.00  0.00    +0.000 C 
BRANCH  19  23
ATOM     20  C   UNL     1      -0.731  11.981  18.899  0.00  0.00    +0.000 A 
ATOM     21  C   UNL     1      -1.111  10.727  18.415  0.00  0.00    +0.000 A 
ATOM     22  C   UNL     1      -0.152   9.760  18.102  0.00  0.00    +0.000 A 
ATOM     23  C   UNL     1       1.211  10.039  18.257  0.00  0.00    +0.000 A 
ATOM     24  C   UNL     1       1.588  11.298  18.745  0.00  0.00    +0.000 A 
ATOM     25  C   UNL     1       0.623  12.263  19.064  0.00  0.00    +0.000 A 
BRANCH  20  27
ATOM     26  C   UNL     1      -2.975  12.271  19.613  0.00  0.00    +0.000 C 
ATOM     27  O   UNL     1      -1.765  12.846  19.133  0.00  0.00    +0.000 OA
ENDBRANCH  20  27
ENDBRANCH  19  23
ENDBRANCH   1  19
TORSDOF 6
ENDMDL
MODEL 9
REMARK VINA RESULT:      -7.1      2.774      5.035
REMARK  Name = 
REMARK  7 active torsions:
REMARK  status: ('A' for Active; 'I' for Inactive)
REMARK    1  A    between atoms: C_1  and  O_2
REMARK    2  A    between atoms: O_2  and  C_3
REMARK    3  A    between atoms: C_6  and  C_7
REMARK    4  A    between atoms: C_7  and  C_8
REMARK    5  A    between atoms: N_9  and  O_10
REMARK    6  A    between atoms: N_11  and  C_12
REMARK    7  A    between atoms: C_15  and  N_16
REMARK                            x       y       z     vdW  Elec       q    Type
REMARK                         _______ _______ _______ _____ _____    ______ ____
ROOT
ATOM      1  C   UNL     1       6.726   5.586  17.607  0.00  0.00    +0.000 C 
ATOM      2  N   UNL     1       7.487   5.239  18.605  0.00  0.00    +0.000 NA
ATOM      3  N   UNL     1       5.347   5.787  17.577  0.00  0.00    +0.000 N 
ATOM      4  H   UNL     1       5.073   6.738  17.339  0.00  0.00    +0.000 HD
ENDROOT
BRANCH   3   5
ATOM      5  C   UNL     1       4.416   5.160  18.429  0.00  0.00    +0.000 A 
ATOM      6  C   UNL     1       4.420   3.760  18.646  0.00  0.00    +0.000 A 
ATOM      7  C   UNL     1       3.542   3.092  19.536  0.00  0.00    +0.000 A 
ATOM      8  C   UNL     1       2.565   3.785  20.279  0.00  0.00    +0.000 A 
ATOM      9  C   UNL     1       2.481   5.175  20.071  0.00  0.00    +0.000 A 
ATOM     10  N   UNL     1       1.677   6.119  20.582  0.00  0.00    +0.000 NA
ATOM     11  O   UNL     1       2.059   7.317  20.014  0.00  0.00    +0.000 OA
ATOM     12  N   UNL     1       3.110   7.155  19.131  0.00  0.00    +0.000 NA
ATOM     13  C   UNL     1       3.398   5.844  19.144  0.00  0.00    +0.000 A 
BRANCH   8  14
ATOM     14  N   UNL     1       1.704   3.095  21.219  0.00  0.00    +0.000 N 
ATOM     15  O   UNL     1       0.638   2.647  20.775  0.00  0.00    +0.000 OA
ATOM     16  O   UNL     1       2.066   2.983  22.396  0.00  0.00    +0.000 OA
ENDBRANCH   8  14
ENDBRANCH   3   5
BRANCH   2  17
ATOM     17  O   UNL     1       6.818   5.170  19.828  0.00  0.00    +0.000 OA
ATOM     18  H   UNL     1       7.557   5.179  20.463  0.00  0.00    +0.000 HD
ENDBRANCH   2  17
BRANCH   1  19
ATOM     19  C   UNL     1       7.436   5.881  16.270  0.00  0.00    +0.000 C 
BRANCH  19  23
ATOM     20  C   UNL     1       6.023   3.577  12.883  0.00  0.00    +0.000 A 
ATOM     21  C   UNL     1       7.073   4.485  12.735  0.00  0.00    +0.000 A 
ATOM     22  C   UNL     1       7.554   5.208  13.831  0.00  0.00    +0.000 A 
ATOM     23  C   UNL     1       6.980   5.040  15.097  0.00  0.00    +0.000 A 
ATOM     24  C   UNL     1       5.927   4.125  15.240  0.00  0.00    +0.000 A 
ATOM     25  C   UNL     1       5.451   3.398  14.141  0.00  0.00    +0.000 A 
BRANCH  20  27
ATOM     26  C   UNL     1       4.266   3.146  11.349  0.00  0.00    +0.000 C 
ATOM     27  O   UNL     1       5.625   2.963  11.727  0.00  0.00    +0.000 OA
ENDBRANCH  20  27
ENDBRANCH  19  23
ENDBRANCH   1  19
TORSDOF 6
ENDMDL
