MODEL 1
REMARK VINA RESULT:      -8.2      0.000      0.000
REMARK  Name = 
REMARK  7 active torsions:
REMARK  status: ('A' for Active; 'I' for Inactive)
REMARK    1  A    between atoms: N_2  and  C_4
REMARK    2  A    between atoms: C_7  and  S_8
REMARK    3  A    between atoms: S_8  and  N_11
REMARK    4  A    between atoms: N_11  and  C_12
REMARK    5  A    between atoms: C_12  and  C_13
REMARK    6  A    between atoms: C_13  and  C_14
REMARK    7  A    between atoms: C_13  and  N_20
REMARK                            x       y       z     vdW  Elec       q    Type
REMARK                         _______ _______ _______ _____ _____    ______ ____
ROOT
ATOM      1  N   UNL     1       3.785   6.153  19.719  0.00  0.00    +0.000 NA
ATOM      2  H   UNL     1       3.333   6.078  20.631  0.00  0.00    +0.000 HD
ENDROOT
BRANCH   1   3
ATOM      3  S   UNL     1       2.785   6.828  18.554  0.00  0.00    +0.000 S 
ATOM      4  O   UNL     1       1.896   5.803  18.068  0.00  0.00    +0.000 OA
ATOM      5  O   UNL     1       3.630   7.600  17.677  0.00  0.00    +0.000 OA
BRANCH   3   9
ATOM      6  C   UNL     1       0.492   9.897  21.031  0.00  0.00    +0.000 A 
ATOM      7  C   UNL     1       0.756  10.156  19.677  0.00  0.00    +0.000 A 
ATOM      8  C   UNL     1       1.416   9.195  18.905  0.00  0.00    +0.000 A 
ATOM      9  C   UNL     1       1.813   7.991  19.496  0.00  0.00    +0.000 A 
ATOM     10  C   UNL     1       1.525   7.719  20.837  0.00  0.00    +0.000 A 
ATOM     11  C   UNL     1       0.869   8.677  21.612  0.00  0.00    +0.000 A 
BRANCH   6  13
ATOM     12  O   UNL     1      -0.688  11.877  21.269  0.00  0.00    +0.000 OA
ATOM     13  N   UNL     1      -0.168  10.919  21.855  0.00  0.00    +0.000 N 
ATOM     14  O   UNL     1      -0.148  10.768  23.084  0.00  0.00    +0.000 OA
ENDBRANCH   6  13
ENDBRANCH   3   9
ENDBRANCH   1   3
BRANCH   1  15
ATOM     15  C   UNL     1       4.776   5.114  19.372  0.00  0.00    +0.000 C 
BRANCH  15  16
ATOM     16  C   UNL     1       4.384   4.139  18.200  0.00  0.00    +0.000 C 
BRANCH  16  17
ATOM     17  C   UNL     1       5.360   4.308  17.028  0.00  0.00    +0.000 A 
ATOM     18  C   UNL     1       4.910   4.246  15.701  0.00  0.00    +0.000 A 
ATOM     19  C   UNL     1       5.792   4.462  14.642  0.00  0.00    +0.000 A 
ATOM     20  C   UNL     1       7.110   4.752  14.934  0.00  0.00    +0.000 A 
ATOM     21  N   UNL     1       7.599   4.804  16.189  0.00  0.00    +0.000 NA
ATOM     22  C   UNL     1       6.721   4.572  17.195  0.00  0.00    +0.000 A 
ENDBRANCH  16  17
BRANCH  16  23
ATOM     23  N   UNL     1       4.289   2.722  18.687  0.00  0.00    +0.000 NA
ATOM     24  C   UNL     1       3.276   1.889  17.977  0.00  0.00    +0.000 C 
ATOM     25  C   UNL     1       1.804   2.116  18.394  0.00  0.00    +0.000 C 
ATOM     26  O   UNL     1       1.626   2.036  19.815  0.00  0.00    +0.000 OA
ATOM     27  C   UNL     1       2.514   2.937  20.472  0.00  0.00    +0.000 C 
ATOM     28  C   UNL     1       3.970   2.588  20.135  0.00  0.00    +0.000 C 
ENDBRANCH  16  23
ENDBRANCH  15  16
ENDBRANCH   1  15
TORSDOF 7
ENDMDL
MODEL 2
REMARK VINA RESULT:      -8.2      3.482      7.485
REMARK  Name = 
REMARK  7 active torsions:
REMARK  status: ('A' for Active; 'I' for Inactive)
REMARK    1  A    between atoms: N_2  and  C_4
REMARK    2  A    between atoms: C_7  and  S_8
REMARK    3  A    between atoms: S_8  and  N_11
REMARK    4  A    between atoms: N_11  and  C_12
REMARK    5  A    between atoms: C_12  and  C_13
REMARK    6  A    between atoms: C_13  and  C_14
REMARK    7  A    between atoms: C_13  and  N_20
REMARK                            x       y       z     vdW  Elec       q    Type
REMARK                         _______ _______ _______ _____ _____    ______ ____
ROOT
ATOM      1  N   UNL     1       5.569   6.133  17.906  0.00  0.00    +0.000 NA
ATOM      2  H   UNL     1       4.893   6.430  17.201  0.00  0.00    +0.000 HD
ENDROOT
BRANCH   1   3
ATOM      3  S   UNL     1       7.043   5.686  17.241  0.00  0.00    +0.000 S 
ATOM      4  O   UNL     1       7.592   4.615  18.032  0.00  0.00    +0.000 OA
ATOM      5  O   UNL     1       7.768   6.905  16.979  0.00  0.00    +0.000 OA
BRANCH   3   9
ATOM      6  C   UNL     1       5.939   3.765  13.254  0.00  0.00    +0.000 A 
ATOM      7  C   UNL     1       5.034   3.709  14.325  0.00  0.00    +0.000 A 
ATOM      8  C   UNL     1       5.350   4.340  15.532  0.00  0.00    +0.000 A 
ATOM      9  C   UNL     1       6.572   5.010  15.659  0.00  0.00    +0.000 A 
ATOM     10  C   UNL     1       7.462   5.092  14.584  0.00  0.00    +0.000 A 
ATOM     11  C   UNL     1       7.151   4.460  13.378  0.00  0.00    +0.000 A 
BRANCH   6  13
ATOM     12  O   UNL     1       6.498   2.340  11.514  0.00  0.00    +0.000 OA
ATOM     13  N   UNL     1       5.625   3.072  11.997  0.00  0.00    +0.000 N 
ATOM     14  O   UNL     1       4.514   3.277  11.490  0.00  0.00    +0.000 OA
ENDBRANCH   6  13
ENDBRANCH   3   9
ENDBRANCH   1   3
BRANCH   1  15
ATOM     15  C   UNL     1       5.036   5.466  19.111  0.00  0.00    +0.000 C 
BRANCH  15  16
ATOM     16  C   UNL     1       3.471   5.315  19.189  0.00  0.00    +0.000 C 
BRANCH  16  17
ATOM     17  C   UNL     1       2.805   6.694  19.091  0.00  0.00    +0.000 A 
ATOM     18  C   UNL     1       2.818   7.416  17.889  0.00  0.00    +0.000 A 
ATOM     19  C   UNL     1       2.157   8.641  17.789  0.00  0.00    +0.000 A 
ATOM     20  C   UNL     1       1.480   9.113  18.897  0.00  0.00    +0.000 A 
ATOM     21  N   UNL     1       1.452   8.470  20.081  0.00  0.00    +0.000 NA
ATOM     22  C   UNL     1       2.118   7.292  20.150  0.00  0.00    +0.000 A 
ENDBRANCH  16  17
BRANCH  16  23
ATOM     23  N   UNL     1       2.971   4.347  18.155  0.00  0.00    +0.000 NA
ATOM     24  C   UNL     1       1.508   4.071  18.222  0.00  0.00    +0.000 C 
ATOM     25  C   UNL     1       1.055   3.095  19.333  0.00  0.00    +0.000 C 
ATOM     26  O   UNL     1       1.805   1.873  19.319  0.00  0.00    +0.000 OA
ATOM     27  C   UNL     1       3.202   2.154  19.388  0.00  0.00    +0.000 C 
ATOM     28  C   UNL     1       3.631   3.012  18.191  0.00  0.00    +0.000 C 
ENDBRANCH  16  23
ENDBRANCH  15  16
ENDBRANCH   1  15
TORSDOF 7
ENDMDL
MODEL 3
REMARK VINA RESULT:      -8.1      3.471      7.314
REMARK  Name = 
REMARK  7 active torsions:
REMARK  status: ('A' for Active; 'I' for Inactive)
REMARK    1  A    between atoms: N_2  and  C_4
REMARK    2  A    between atoms: C_7  and  S_8
REMARK    3  A    between atoms: S_8  and  N_11
REMARK    4  A    between atoms: N_11  and  C_12
REMARK    5  A    between atoms: C_12  and  C_13
REMARK    6  A    between atoms: C_13  and  C_14
REMARK    7  A    between atoms: C_13  and  N_20
REMARK                            x       y       z     vdW  Elec       q    Type
REMARK                         _______ _______ _______ _____ _____    ______ ____
ROOT
ATOM      1  N   UNL     1       6.026   4.340  18.549  0.00  0.00    +0.000 NA
ATOM      2  H   UNL     1       6.120   3.344  18.753  0.00  0.00    +0.000 HD
ENDROOT
BRANCH   1   3
ATOM      3  S   UNL     1       7.257   4.919  17.568  0.00  0.00    +0.000 S 
ATOM      4  O   UNL     1       8.442   4.138  17.818  0.00  0.00    +0.000 OA
ATOM      5  O   UNL     1       7.239   6.357  17.682  0.00  0.00    +0.000 OA
BRANCH   3   9
ATOM      6  C   UNL     1       5.894   3.708  13.387  0.00  0.00    +0.000 A 
ATOM      7  C   UNL     1       5.119   3.349  14.501  0.00  0.00    +0.000 A 
ATOM      8  C   UNL     1       5.510   3.762  15.778  0.00  0.00    +0.000 A 
ATOM      9  C   UNL     1       6.676   4.519  15.929  0.00  0.00    +0.000 A 
ATOM     10  C   UNL     1       7.434   4.903  14.819  0.00  0.00    +0.000 A 
ATOM     11  C   UNL     1       7.048   4.489  13.542  0.00  0.00    +0.000 A 
BRANCH   6  13
ATOM     12  O   UNL     1       4.448   3.680  11.576  0.00  0.00    +0.000 OA
ATOM     13  N   UNL     1       5.505   3.244  12.048  0.00  0.00    +0.000 N 
ATOM     14  O   UNL     1       6.251   2.434  11.482  0.00  0.00    +0.000 OA
ENDBRANCH   6  13
ENDBRANCH   3   9
ENDBRANCH   1   3
BRANCH   1  15
ATOM     15  C   UNL     1       5.413   5.186  19.594  0.00  0.00    +0.000 C 
BRANCH  15  16
ATOM     16  C   UNL     1       3.842   5.153  19.686  0.00  0.00    +0.000 C 
BRANCH  16  17
ATOM     17  C   UNL     1       3.250   6.386  18.988  0.00  0.00    +0.000 A 
ATOM     18  C   UNL     1       2.315   7.202  19.642  0.00  0.00    +0.000 A 
ATOM     19  C   UNL     1       1.828   8.356  19.027  0.00  0.00    +0.000 A 
ATOM     20  C   UNL     1       2.301   8.679  17.769  0.00  0.00    +0.000 A 
ATOM     21  N   UNL     1       3.183   7.920  17.090  0.00  0.00    +0.000 NA
ATOM     22  C   UNL     1       3.624   6.797  17.708  0.00  0.00    +0.000 A 
ENDBRANCH  16  17
BRANCH  16  23
ATOM     23  N   UNL     1       3.299   3.859  19.152  0.00  0.00    +0.000 NA
ATOM     24  C   UNL     1       1.835   3.873  18.867  0.00  0.00    +0.000 C 
ATOM     25  C   UNL     1       0.907   3.739  20.097  0.00  0.00    +0.000 C 
ATOM     26  O   UNL     1       1.256   2.618  20.919  0.00  0.00    +0.000 OA
ATOM     27  C   UNL     1       2.631   2.692  21.291  0.00  0.00    +0.000 C 
ATOM     28  C   UNL     1       3.521   2.685  20.040  0.00  0.00    +0.000 C 
ENDBRANCH  16  23
ENDBRANCH  15  16
ENDBRANCH   1  15
TORSDOF 7
ENDMDL
MODEL 4
REMARK VINA RESULT:      -7.7      3.296      7.565
REMARK  Name = 
REMARK  7 active torsions:
REMARK  status: ('A' for Active; 'I' for Inactive)
REMARK    1  A    between atoms: N_2  and  C_4
REMARK    2  A    between atoms: C_7  and  S_8
REMARK    3  A    between atoms: S_8  and  N_11
REMARK    4  A    between atoms: N_11  and  C_12
REMARK    5  A    between atoms: C_12  and  C_13
REMARK    6  A    between atoms: C_13  and  C_14
REMARK    7  A    between atoms: C_13  and  N_20
REMARK                            x       y       z     vdW  Elec       q    Type
REMARK                         _______ _______ _______ _____ _____    ______ ____
ROOT
ATOM      1  N   UNL     1       5.363   6.608  17.848  0.00  0.00    +0.000 NA
ATOM      2  H   UNL     1       5.538   7.545  17.481  0.00  0.00    +0.000 HD
ENDROOT
BRANCH   1   3
ATOM      3  S   UNL     1       6.718   5.622  17.777  0.00  0.00    +0.000 S 
ATOM      4  O   UNL     1       6.579   4.587  18.769  0.00  0.00    +0.000 OA
ATOM      5  O   UNL     1       7.865   6.494  17.724  0.00  0.00    +0.000 OA
BRANCH   3   9
ATOM      6  C   UNL     1       6.170   3.825  13.620  0.00  0.00    +0.000 A 
ATOM      7  C   UNL     1       7.125   4.835  13.819  0.00  0.00    +0.000 A 
ATOM      8  C   UNL     1       7.328   5.351  15.102  0.00  0.00    +0.000 A 
ATOM      9  C   UNL     1       6.568   4.861  16.170  0.00  0.00    +0.000 A 
ATOM     10  C   UNL     1       5.637   3.836  15.979  0.00  0.00    +0.000 A 
ATOM     11  C   UNL     1       5.430   3.320  14.699  0.00  0.00    +0.000 A 
BRANCH   6  13
ATOM     12  O   UNL     1       4.780   3.395  11.816  0.00  0.00    +0.000 OA
ATOM     13  N   UNL     1       5.929   3.306  12.267  0.00  0.00    +0.000 N 
ATOM     14  O   UNL     1       6.886   2.796  11.668  0.00  0.00    +0.000 OA
ENDBRANCH   6  13
ENDBRANCH   3   9
ENDBRANCH   1   3
BRANCH   1  15
ATOM     15  C   UNL     1       4.003   6.060  17.670  0.00  0.00    +0.000 C 
BRANCH  15  16
ATOM     16  C   UNL     1       3.080   6.060  18.945  0.00  0.00    +0.000 C 
BRANCH  16  17
ATOM     17  C   UNL     1       2.339   7.400  19.056  0.00  0.00    +0.000 A 
ATOM     18  C   UNL     1       2.122   8.198  17.923  0.00  0.00    +0.000 A 
ATOM     19  C   UNL     1       1.393   9.385  18.020  0.00  0.00    +0.000 A 
ATOM     20  C   UNL     1       0.881   9.741  19.253  0.00  0.00    +0.000 A 
ATOM     21  N   UNL     1       1.076   9.021  20.375  0.00  0.00    +0.000 NA
ATOM     22  C   UNL     1       1.803   7.883  20.251  0.00  0.00    +0.000 A 
ENDBRANCH  16  17
BRANCH  16  23
ATOM     23  N   UNL     1       2.155   4.877  18.940  0.00  0.00    +0.000 NA
ATOM     24  C   UNL     1       1.421   4.659  20.219  0.00  0.00    +0.000 C 
ATOM     25  C   UNL     1       2.233   4.002  21.360  0.00  0.00    +0.000 C 
ATOM     26  O   UNL     1       2.887   2.798  20.935  0.00  0.00    +0.000 OA
ATOM     27  C   UNL     1       3.689   3.056  19.785  0.00  0.00    +0.000 C 
ATOM     28  C   UNL     1       2.818   3.578  18.635  0.00  0.00    +0.000 C 
ENDBRANCH  16  23
ENDBRANCH  15  16
ENDBRANCH   1  15
TORSDOF 7
ENDMDL
MODEL 5
REMARK VINA RESULT:      -7.6      1.468      1.856
REMARK  Name = 
REMARK  7 active torsions:
REMARK  status: ('A' for Active; 'I' for Inactive)
REMARK    1  A    between atoms: N_2  and  C_4
REMARK    2  A    between atoms: C_7  and  S_8
REMARK    3  A    between atoms: S_8  and  N_11
REMARK    4  A    between atoms: N_11  and  C_12
REMARK    5  A    between atoms: C_12  and  C_13
REMARK    6  A    between atoms: C_13  and  C_14
REMARK    7  A    between atoms: C_13  and  N_20
REMARK                            x       y       z     vdW  Elec       q    Type
REMARK                         _______ _______ _______ _____ _____    ______ ____
ROOT
ATOM      1  N   UNL     1       4.024   6.194  19.554  0.00  0.00    +0.000 NA
ATOM      2  H   UNL     1       4.376   6.881  20.223  0.00  0.00    +0.000 HD
ENDROOT
BRANCH   1   3
ATOM      3  S   UNL     1       2.350   6.195  19.447  0.00  0.00    +0.000 S 
ATOM      4  O   UNL     1       1.814   5.737  20.703  0.00  0.00    +0.000 OA
ATOM      5  O   UNL     1       2.014   5.574  18.189  0.00  0.00    +0.000 OA
BRANCH   3   9
ATOM      6  C   UNL     1       1.169  10.573  18.958  0.00  0.00    +0.000 A 
ATOM      7  C   UNL     1       0.911   9.917  20.172  0.00  0.00    +0.000 A 
ATOM      8  C   UNL     1       1.317   8.590  20.339  0.00  0.00    +0.000 A 
ATOM      9  C   UNL     1       1.966   7.930  19.290  0.00  0.00    +0.000 A 
ATOM     10  C   UNL     1       2.250   8.592  18.091  0.00  0.00    +0.000 A 
ATOM     11  C   UNL     1       1.844   9.916  17.919  0.00  0.00    +0.000 A 
BRANCH   6  13
ATOM     12  O   UNL     1      -0.467  12.128  18.431  0.00  0.00    +0.000 OA
ATOM     13  N   UNL     1       0.712  11.956  18.766  0.00  0.00    +0.000 N 
ATOM     14  O   UNL     1       1.539  12.864  18.933  0.00  0.00    +0.000 OA
ENDBRANCH   6  13
ENDBRANCH   3   9
ENDBRANCH   1   3
BRANCH   1  15
ATOM     15  C   UNL     1       4.805   4.950  19.394  0.00  0.00    +0.000 C 
BRANCH  15  16
ATOM     16  C   UNL     1       4.417   4.036  18.173  0.00  0.00    +0.000 C 
BRANCH  16  17
ATOM     17  C   UNL     1       5.403   4.258  17.018  0.00  0.00    +0.000 A 
ATOM     18  C   UNL     1       4.953   4.336  15.692  0.00  0.00    +0.000 A 
ATOM     19  C   UNL     1       5.846   4.601  14.653  0.00  0.00    +0.000 A 
ATOM     20  C   UNL     1       7.178   4.798  14.967  0.00  0.00    +0.000 A 
ATOM     21  N   UNL     1       7.666   4.714  16.220  0.00  0.00    +0.000 NA
ATOM     22  C   UNL     1       6.775   4.439  17.204  0.00  0.00    +0.000 A 
ENDBRANCH  16  17
BRANCH  16  23
ATOM     23  N   UNL     1       4.314   2.597  18.589  0.00  0.00    +0.000 NA
ATOM     24  C   UNL     1       3.153   1.866  18.006  0.00  0.00    +0.000 C 
ATOM     25  C   UNL     1       1.782   2.140  18.665  0.00  0.00    +0.000 C 
ATOM     26  O   UNL     1       1.824   1.977  20.090  0.00  0.00    +0.000 OA
ATOM     27  C   UNL     1       2.858   2.787  20.645  0.00  0.00    +0.000 C 
ATOM     28  C   UNL     1       4.219   2.386  20.060  0.00  0.00    +0.000 C 
ENDBRANCH  16  23
ENDBRANCH  15  16
ENDBRANCH   1  15
TORSDOF 7
ENDMDL
MODEL 6
REMARK VINA RESULT:      -7.6      0.582      1.452
REMARK  Name = 
REMARK  7 active torsions:
REMARK  status: ('A' for Active; 'I' for Inactive)
REMARK    1  A    between atoms: N_2  and  C_4
REMARK    2  A    between atoms: C_7  and  S_8
REMARK    3  A    between atoms: S_8  and  N_11
REMARK    4  A    between atoms: N_11  and  C_12
REMARK    5  A    between atoms: C_12  and  C_13
REMARK    6  A    between atoms: C_13  and  C_14
REMARK    7  A    between atoms: C_13  and  N_20
REMARK                            x       y       z     vdW  Elec       q    Type
REMARK                         _______ _______ _______ _____ _____    ______ ____
ROOT
ATOM      1  N   UNL     1       3.784   6.146  19.758  0.00  0.00    +0.000 NA
ATOM      2  H   UNL     1       3.395   6.129  20.702  0.00  0.00    +0.000 HD
ENDROOT
BRANCH   1   3
ATOM      3  S   UNL     1       2.732   6.816  18.636  0.00  0.00    +0.000 S 
ATOM      4  O   UNL     1       1.765   5.814  18.265  0.00  0.00    +0.000 OA
ATOM      5  O   UNL     1       3.544   7.506  17.665  0.00  0.00    +0.000 OA
BRANCH   3   9
ATOM      6  C   UNL     1       0.372   9.910  21.015  0.00  0.00    +0.000 A 
ATOM      7  C   UNL     1       0.853   8.760  21.660  0.00  0.00    +0.000 A 
ATOM      8  C   UNL     1       1.618   7.835  20.943  0.00  0.00    +0.000 A 
ATOM      9  C   UNL     1       1.885   8.065  19.589  0.00  0.00    +0.000 A 
ATOM     10  C   UNL     1       1.432   9.224  18.953  0.00  0.00    +0.000 A 
ATOM     11  C   UNL     1       0.664  10.148  19.665  0.00  0.00    +0.000 A 
BRANCH   6  13
ATOM     12  O   UNL     1      -0.332  10.908  22.986  0.00  0.00    +0.000 OA
ATOM     13  N   UNL     1      -0.463  10.866  21.756  0.00  0.00    +0.000 N 
ATOM     14  O   UNL     1      -1.259  11.558  21.106  0.00  0.00    +0.000 OA
ENDBRANCH   6  13
ENDBRANCH   3   9
ENDBRANCH   1   3
BRANCH   1  15
ATOM     15  C   UNL     1       4.704   5.050  19.390  0.00  0.00    +0.000 C 
BRANCH  15  16
ATOM     16  C   UNL     1       4.270   4.156  18.169  0.00  0.00    +0.000 C 
BRANCH  16  17
ATOM     17  C   UNL     1       5.228   4.377  16.991  0.00  0.00    +0.000 A 
ATOM     18  C   UNL     1       6.592   4.622  17.209  0.00  0.00    +0.000 A 
ATOM     19  C   UNL     1       7.470   4.759  16.132  0.00  0.00    +0.000 A 
ATOM     20  C   UNL     1       6.963   4.634  14.853  0.00  0.00    +0.000 A 
ATOM     21  N   UNL     1       5.660   4.419  14.588  0.00  0.00    +0.000 NA
ATOM     22  C   UNL     1       4.831   4.307  15.655  0.00  0.00    +0.000 A 
ENDBRANCH  16  17
BRANCH  16  23
ATOM     23  N   UNL     1       4.157   2.713  18.571  0.00  0.00    +0.000 NA
ATOM     24  C   UNL     1       3.041   1.974  17.915  0.00  0.00    +0.000 C 
ATOM     25  C   UNL     1       1.629   2.231  18.493  0.00  0.00    +0.000 C 
ATOM     26  O   UNL     1       1.587   2.061  19.916  0.00  0.00    +0.000 OA
ATOM     27  C   UNL     1       2.578   2.878  20.537  0.00  0.00    +0.000 C 
ATOM     28  C   UNL     1       3.976   2.494  20.033  0.00  0.00    +0.000 C 
ENDBRANCH  16  23
ENDBRANCH  15  16
ENDBRANCH   1  15
TORSDOF 7
ENDMDL
MODEL 7
REMARK VINA RESULT:      -7.5      3.375      7.583
REMARK  Name = 
REMARK  7 active torsions:
REMARK  status: ('A' for Active; 'I' for Inactive)
REMARK    1  A    between atoms: N_2  and  C_4
REMARK    2  A    between atoms: C_7  and  S_8
REMARK    3  A    between atoms: S_8  and  N_11
REMARK    4  A    between atoms: N_11  and  C_12
REMARK    5  A    between atoms: C_12  and  C_13
REMARK    6  A    between atoms: C_13  and  C_14
REMARK    7  A    between atoms: C_13  and  N_20
REMARK                            x       y       z     vdW  Elec       q    Type
REMARK                         _______ _______ _______ _____ _____    ______ ____
ROOT
ATOM      1  N   UNL     1       5.178   6.330  18.495  0.00  0.00    +0.000 NA
ATOM      2  H   UNL     1       5.415   7.306  18.308  0.00  0.00    +0.000 HD
ENDROOT
BRANCH   1   3
ATOM      3  S   UNL     1       6.481   5.295  18.281  0.00  0.00    +0.000 S 
ATOM      4  O   UNL     1       6.230   4.089  19.027  0.00  0.00    +0.000 OA
ATOM      5  O   UNL     1       7.673   6.085  18.462  0.00  0.00    +0.000 OA
BRANCH   3   9
ATOM      6  C   UNL     1       6.384   4.107  13.878  0.00  0.00    +0.000 A 
ATOM      7  C   UNL     1       5.475   3.523  14.774  0.00  0.00    +0.000 A 
ATOM      8  C   UNL     1       5.471   3.923  16.113  0.00  0.00    +0.000 A 
ATOM      9  C   UNL     1       6.383   4.893  16.545  0.00  0.00    +0.000 A 
ATOM     10  C   UNL     1       7.269   5.496  15.648  0.00  0.00    +0.000 A 
ATOM     11  C   UNL     1       7.278   5.097  14.310  0.00  0.00    +0.000 A 
BRANCH   6  13
ATOM     12  O   UNL     1       5.602   2.796  12.133  0.00  0.00    +0.000 OA
ATOM     13  N   UNL     1       6.415   3.663  12.477  0.00  0.00    +0.000 N 
ATOM     14  O   UNL     1       7.265   4.170  11.732  0.00  0.00    +0.000 OA
ENDBRANCH   6  13
ENDBRANCH   3   9
ENDBRANCH   1   3
BRANCH   1  15
ATOM     15  C   UNL     1       3.798   5.903  18.187  0.00  0.00    +0.000 C 
BRANCH  15  16
ATOM     16  C   UNL     1       2.797   5.854  19.400  0.00  0.00    +0.000 C 
BRANCH  16  17
ATOM     17  C   UNL     1       2.110   7.216  19.569  0.00  0.00    +0.000 A 
ATOM     18  C   UNL     1       1.502   7.569  20.783  0.00  0.00    +0.000 A 
ATOM     19  C   UNL     1       0.935   8.833  20.951  0.00  0.00    +0.000 A 
ATOM     20  C   UNL     1       1.002   9.728  19.900  0.00  0.00    +0.000 A 
ATOM     21  N   UNL     1       1.556   9.433  18.708  0.00  0.00    +0.000 NA
ATOM     22  C   UNL     1       2.083   8.191  18.571  0.00  0.00    +0.000 A 
ENDBRANCH  16  17
BRANCH  16  23
ATOM     23  N   UNL     1       1.823   4.720  19.249  0.00  0.00    +0.000 NA
ATOM     24  C   UNL     1       1.126   4.331  20.508  0.00  0.00    +0.000 C 
ATOM     25  C   UNL     1       1.949   3.474  21.498  0.00  0.00    +0.000 C 
ATOM     26  O   UNL     1       2.535   2.329  20.865  0.00  0.00    +0.000 OA
ATOM     27  C   UNL     1       3.308   2.735  19.737  0.00  0.00    +0.000 C 
ATOM     28  C   UNL     1       2.419   3.463  18.719  0.00  0.00    +0.000 C 
ENDBRANCH  16  23
ENDBRANCH  15  16
ENDBRANCH   1  15
TORSDOF 7
ENDMDL
MODEL 8
REMARK VINA RESULT:      -7.4      3.368      7.459
REMARK  Name = 
REMARK  7 active torsions:
REMARK  status: ('A' for Active; 'I' for Inactive)
REMARK    1  A    between atoms: N_2  and  C_4
REMARK    2  A    between atoms: C_7  and  S_8
REMARK    3  A    between atoms: S_8  and  N_11
REMARK    4  A    between atoms: N_11  and  C_12
REMARK    5  A    between atoms: C_12  and  C_13
REMARK    6  A    between atoms: C_13  and  C_14
REMARK    7  A    between atoms: C_13  and  N_20
REMARK                            x       y       z     vdW  Elec       q    Type
REMARK                         _______ _______ _______ _____ _____    ______ ____
ROOT
ATOM      1  N   UNL     1       5.017   5.896  18.957  0.00  0.00    +0.000 NA
ATOM      2  H   UNL     1       5.396   6.843  18.895  0.00  0.00    +0.000 HD
ENDROOT
BRANCH   1   3
ATOM      3  S   UNL     1       6.181   4.716  18.704  0.00  0.00    +0.000 S 
ATOM      4  O   UNL     1       5.690   3.471  19.239  0.00  0.00    +0.000 OA
ATOM      5  O   UNL     1       7.444   5.286  19.103  0.00  0.00    +0.000 OA
BRANCH   3   9
ATOM      6  C   UNL     1       6.416   4.178  14.181  0.00  0.00    +0.000 A 
ATOM      7  C   UNL     1       5.439   3.485  14.912  0.00  0.00    +0.000 A 
ATOM      8  C   UNL     1       5.334   3.687  16.291  0.00  0.00    +0.000 A 
ATOM      9  C   UNL     1       6.214   4.570  16.926  0.00  0.00    +0.000 A 
ATOM     10  C   UNL     1       7.169   5.283  16.196  0.00  0.00    +0.000 A 
ATOM     11  C   UNL     1       7.279   5.082  14.818  0.00  0.00    +0.000 A 
BRANCH   6  13
ATOM     12  O   UNL     1       7.436   4.563  12.136  0.00  0.00    +0.000 OA
ATOM     13  N   UNL     1       6.552   3.940  12.737  0.00  0.00    +0.000 N 
ATOM     14  O   UNL     1       5.763   3.145  12.209  0.00  0.00    +0.000 OA
ENDBRANCH   6  13
ENDBRANCH   3   9
ENDBRANCH   1   3
BRANCH   1  15
ATOM     15  C   UNL     1       3.618   5.702  18.524  0.00  0.00    +0.000 C 
BRANCH  15  16
ATOM     16  C   UNL     1       2.509   5.972  19.608  0.00  0.00    +0.000 C 
BRANCH  16  17
ATOM     17  C   UNL     1       2.041   7.432  19.527  0.00  0.00    +0.000 A 
ATOM     18  C   UNL     1       2.128   8.149  18.324  0.00  0.00    +0.000 A 
ATOM     19  C   UNL     1       1.643   9.455  18.241  0.00  0.00    +0.000 A 
ATOM     20  C   UNL     1       1.065  10.014  19.365  0.00  0.00    +0.000 A 
ATOM     21  N   UNL     1       0.974   9.376  20.549  0.00  0.00    +0.000 NA
ATOM     22  C   UNL     1       1.470   8.115  20.602  0.00  0.00    +0.000 A 
ENDBRANCH  16  17
BRANCH  16  23
ATOM     23  N   UNL     1       1.382   4.987  19.482  0.00  0.00    +0.000 NA
ATOM     24  C   UNL     1       1.191   4.111  20.673  0.00  0.00    +0.000 C 
ATOM     25  C   UNL     1       2.185   2.935  20.813  0.00  0.00    +0.000 C 
ATOM     26  O   UNL     1       2.272   2.153  19.614  0.00  0.00    +0.000 OA
ATOM     27  C   UNL     1       2.586   2.993  18.504  0.00  0.00    +0.000 C 
ATOM     28  C   UNL     1       1.500   4.061  18.322  0.00  0.00    +0.000 C 
ENDBRANCH  16  23
ENDBRANCH  15  16
ENDBRANCH   1  15
TORSDOF 7
ENDMDL
MODEL 9
REMARK VINA RESULT:      -7.4      3.425      7.097
REMARK  Name = 
REMARK  7 active torsions:
REMARK  status: ('A' for Active; 'I' for Inactive)
REMARK    1  A    between atoms: N_2  and  C_4
REMARK    2  A    between atoms: C_7  and  S_8
REMARK    3  A    between atoms: S_8  and  N_11
REMARK    4  A    between atoms: N_11  and  C_12
REMARK    5  A    between atoms: C_12  and  C_13
REMARK    6  A    between atoms: C_13  and  C_14
REMARK    7  A    between atoms: C_13  and  N_20
REMARK                            x       y       z     vdW  Elec       q    Type
REMARK                         _______ _______ _______ _____ _____    ______ ____
ROOT
ATOM      1  N   UNL     1       5.413   6.400  18.746  0.00  0.00    +0.000 NA
ATOM      2  H   UNL     1       4.896   7.037  18.138  0.00  0.00    +0.000 HD
ENDROOT
BRANCH   1   3
ATOM      3  S   UNL     1       6.950   6.059  18.167  0.00  0.00    +0.000 S 
ATOM      4  O   UNL     1       7.494   4.969  18.935  0.00  0.00    +0.000 OA
ATOM      5  O   UNL     1       7.631   7.322  18.025  0.00  0.00    +0.000 OA
BRANCH   3   9
ATOM      6  C   UNL     1       6.001   4.348  14.046  0.00  0.00    +0.000 A 
ATOM      7  C   UNL     1       5.163   5.328  14.600  0.00  0.00    +0.000 A 
ATOM      8  C   UNL     1       5.480   5.888  15.841  0.00  0.00    +0.000 A 
ATOM      9  C   UNL     1       6.625   5.456  16.519  0.00  0.00    +0.000 A 
ATOM     10  C   UNL     1       7.477   4.502  15.955  0.00  0.00    +0.000 A 
ATOM     11  C   UNL     1       7.162   3.938  14.718  0.00  0.00    +0.000 A 
BRANCH   6  13
ATOM     12  O   UNL     1       4.450   3.594  12.498  0.00  0.00    +0.000 OA
ATOM     13  N   UNL     1       5.651   3.731  12.759  0.00  0.00    +0.000 N 
ATOM     14  O   UNL     1       6.580   3.371  12.023  0.00  0.00    +0.000 OA
ENDBRANCH   6  13
ENDBRANCH   3   9
ENDBRANCH   1   3
BRANCH   1  15
ATOM     15  C   UNL     1       4.629   5.390  19.485  0.00  0.00    +0.000 C 
BRANCH  15  16
ATOM     16  C   UNL     1       3.087   5.339  19.173  0.00  0.00    +0.000 C 
BRANCH  16  17
ATOM     17  C   UNL     1       2.518   6.763  19.105  0.00  0.00    +0.000 A 
ATOM     18  C   UNL     1       2.479   7.465  17.891  0.00  0.00    +0.000 A 
ATOM     19  C   UNL     1       1.903   8.734  17.823  0.00  0.00    +0.000 A 
ATOM     20  C   UNL     1       1.363   9.272  18.975  0.00  0.00    +0.000 A 
ATOM     21  N   UNL     1       1.391   8.649  20.170  0.00  0.00    +0.000 NA
ATOM     22  C   UNL     1       1.973   7.425  20.206  0.00  0.00    +0.000 A 
ENDBRANCH  16  17
BRANCH  16  23
ATOM     23  N   UNL     1       2.815   4.539  17.931  0.00  0.00    +0.000 NA
ATOM     24  C   UNL     1       1.416   4.037  17.812  0.00  0.00    +0.000 C 
ATOM     25  C   UNL     1       1.068   2.799  18.671  0.00  0.00    +0.000 C 
ATOM     26  O   UNL     1       2.009   1.732  18.490  0.00  0.00    +0.000 OA
ATOM     27  C   UNL     1       3.334   2.201  18.737  0.00  0.00    +0.000 C 
ATOM     28  C   UNL     1       3.683   3.339  17.769  0.00  0.00    +0.000 C 
ENDBRANCH  16  23
ENDBRANCH  15  16
ENDBRANCH   1  15
TORSDOF 7
ENDMDL
