MODEL 1
REMARK VINA RESULT:      -7.2      0.000      0.000
REMARK  Name = 
REMARK  2 active torsions:
REMARK  status: ('A' for Active; 'I' for Inactive)
REMARK    1  A    between atoms: O_1  and  C_2
REMARK    2  A    between atoms: C_8  and  C_9
REMARK                            x       y       z     vdW  Elec       q    Type
REMARK                         _______ _______ _______ _____ _____    ______ ____
ROOT
ATOM      1  C   UNL     1       5.001   4.313  17.032  0.00  0.00    +0.000 A 
ATOM      2  N   UNL     1       4.670   5.471  16.514  0.00  0.00    +0.000 NA
ATOM      3  C   UNL     1       3.905   6.029  17.515  0.00  0.00    +0.000 A 
ATOM      4  C   UNL     1       3.240   7.259  17.620  0.00  0.00    +0.000 A 
ATOM      5  C   UNL     1       2.529   7.567  18.792  0.00  0.00    +0.000 A 
ATOM      6  N   UNL     1       1.815   8.693  19.151  0.00  0.00    +0.000 NA
ATOM      7  C   UNL     1       1.405   8.488  20.392  0.00  0.00    +0.000 A 
ATOM      8  N   UNL     1       1.758   7.223  20.803  0.00  0.00    +0.000 N 
ATOM      9  C   UNL     1       2.503   6.635  19.825  0.00  0.00    +0.000 A 
ATOM     10  C   UNL     1       3.146   5.407  19.752  0.00  0.00    +0.000 A 
ATOM     11  C   UNL     1       3.836   5.144  18.585  0.00  0.00    +0.000 A 
ATOM     12  O   UNL     1       4.549   4.027  18.272  0.00  0.00    +0.000 OA
ATOM     13  H   UNL     1       1.525   6.814  21.696  0.00  0.00    +0.000 HD
ENDROOT
BRANCH   7  14
ATOM     14  C   UNL     1       0.692   9.414  21.273  0.00  0.00    +0.000 A 
ATOM     15  C   UNL     1       0.095   8.969  22.451  0.00  0.00    +0.000 A 
ATOM     16  C   UNL     1      -0.564   9.894  23.247  0.00  0.00    +0.000 A 
ATOM     17  N   UNL     1      -0.669  11.209  22.949  0.00  0.00    +0.000 NA
ATOM     18  C   UNL     1      -0.096  11.617  21.800  0.00  0.00    +0.000 A 
ATOM     19  C   UNL     1       0.590  10.772  20.945  0.00  0.00    +0.000 A 
ENDBRANCH   7  14
BRANCH   1  20
ATOM     20  O   UNL     1       5.743   3.402  16.448  0.00  0.00    +0.000 OA
ATOM     21  H   UNL     1       6.285   3.947  15.856  0.00  0.00    +0.000 HD
ENDBRANCH   1  20
TORSDOF 2
ENDMDL
MODEL 2
REMARK VINA RESULT:      -7.1      5.264      8.145
REMARK  Name = 
REMARK  2 active torsions:
REMARK  status: ('A' for Active; 'I' for Inactive)
REMARK    1  A    between atoms: O_1  and  C_2
REMARK    2  A    between atoms: C_8  and  C_9
REMARK                            x       y       z     vdW  Elec       q    Type
REMARK                         _______ _______ _______ _____ _____    ______ ____
ROOT
ATOM      1  C   UNL     1       1.627   2.728  21.502  0.00  0.00    +0.000 A 
ATOM      2  N   UNL     1       1.023   3.206  20.442  0.00  0.00    +0.000 NA
ATOM      3  C   UNL     1       2.070   3.370  19.561  0.00  0.00    +0.000 A 
ATOM      4  C   UNL     1       2.127   3.841  18.241  0.00  0.00    +0.000 A 
ATOM      5  C   UNL     1       3.362   3.889  17.572  0.00  0.00    +0.000 A 
ATOM      6  N   UNL     1       3.685   4.287  16.291  0.00  0.00    +0.000 NA
ATOM      7  C   UNL     1       4.982   4.065  16.152  0.00  0.00    +0.000 A 
ATOM      8  N   UNL     1       5.514   3.623  17.343  0.00  0.00    +0.000 N 
ATOM      9  C   UNL     1       4.504   3.467  18.245  0.00  0.00    +0.000 A 
ATOM     10  C   UNL     1       4.485   3.001  19.553  0.00  0.00    +0.000 A 
ATOM     11  C   UNL     1       3.251   2.966  20.172  0.00  0.00    +0.000 A 
ATOM     12  O   UNL     1       2.965   2.547  21.436  0.00  0.00    +0.000 OA
ATOM     13  H   UNL     1       6.490   3.423  17.507  0.00  0.00    +0.000 HD
ENDROOT
BRANCH   7  14
ATOM     14  C   UNL     1       5.804   4.222  14.952  0.00  0.00    +0.000 A 
ATOM     15  C   UNL     1       6.926   5.048  14.953  0.00  0.00    +0.000 A 
ATOM     16  C   UNL     1       7.667   5.155  13.786  0.00  0.00    +0.000 A 
ATOM     17  N   UNL     1       7.366   4.508  12.638  0.00  0.00    +0.000 NA
ATOM     18  C   UNL     1       6.271   3.724  12.654  0.00  0.00    +0.000 A 
ATOM     19  C   UNL     1       5.473   3.547  13.770  0.00  0.00    +0.000 A 
ENDBRANCH   7  14
BRANCH   1  20
ATOM     20  O   UNL     1       1.042   2.403  22.630  0.00  0.00    +0.000 OA
ATOM     21  H   UNL     1       0.109   2.388  22.365  0.00  0.00    +0.000 HD
ENDBRANCH   1  20
TORSDOF 2
ENDMDL
MODEL 3
REMARK VINA RESULT:      -7.1      0.156      1.086
REMARK  Name = 
REMARK  2 active torsions:
REMARK  status: ('A' for Active; 'I' for Inactive)
REMARK    1  A    between atoms: O_1  and  C_2
REMARK    2  A    between atoms: C_8  and  C_9
REMARK                            x       y       z     vdW  Elec       q    Type
REMARK                         _______ _______ _______ _____ _____    ______ ____
ROOT
ATOM      1  C   UNL     1       5.138   4.358  16.916  0.00  0.00    +0.000 A 
ATOM      2  N   UNL     1       4.771   5.505  16.399  0.00  0.00    +0.000 NA
ATOM      3  C   UNL     1       4.004   6.046  17.407  0.00  0.00    +0.000 A 
ATOM      4  C   UNL     1       3.308   7.259  17.516  0.00  0.00    +0.000 A 
ATOM      5  C   UNL     1       2.603   7.553  18.696  0.00  0.00    +0.000 A 
ATOM      6  N   UNL     1       1.864   8.660  19.059  0.00  0.00    +0.000 NA
ATOM      7  C   UNL     1       1.474   8.449  20.306  0.00  0.00    +0.000 A 
ATOM      8  N   UNL     1       1.865   7.195  20.717  0.00  0.00    +0.000 N 
ATOM      9  C   UNL     1       2.613   6.623  19.731  0.00  0.00    +0.000 A 
ATOM     10  C   UNL     1       3.287   5.411  19.655  0.00  0.00    +0.000 A 
ATOM     11  C   UNL     1       3.970   5.163  18.480  0.00  0.00    +0.000 A 
ATOM     12  O   UNL     1       4.708   4.064  18.162  0.00  0.00    +0.000 OA
ATOM     13  H   UNL     1       1.653   6.783  21.613  0.00  0.00    +0.000 HD
ENDROOT
BRANCH   7  14
ATOM     14  C   UNL     1       0.748   9.359  21.193  0.00  0.00    +0.000 A 
ATOM     15  C   UNL     1       0.523  10.686  20.832  0.00  0.00    +0.000 A 
ATOM     16  C   UNL     1      -0.174  11.500  21.712  0.00  0.00    +0.000 A 
ATOM     17  N   UNL     1      -0.649  11.087  22.909  0.00  0.00    +0.000 NA
ATOM     18  C   UNL     1      -0.410   9.804  23.244  0.00  0.00    +0.000 A 
ATOM     19  C   UNL     1       0.268   8.914  22.431  0.00  0.00    +0.000 A 
ENDBRANCH   7  14
BRANCH   1  20
ATOM     20  O   UNL     1       5.896   3.464  16.326  0.00  0.00    +0.000 OA
ATOM     21  H   UNL     1       6.268   2.994  17.089  0.00  0.00    +0.000 HD
ENDBRANCH   1  20
TORSDOF 2
ENDMDL
MODEL 4
REMARK VINA RESULT:      -7.1      5.224      8.136
REMARK  Name = 
REMARK  2 active torsions:
REMARK  status: ('A' for Active; 'I' for Inactive)
REMARK    1  A    between atoms: O_1  and  C_2
REMARK    2  A    between atoms: C_8  and  C_9
REMARK                            x       y       z     vdW  Elec       q    Type
REMARK                         _______ _______ _______ _____ _____    ______ ____
ROOT
ATOM      1  C   UNL     1       1.667   2.781  21.468  0.00  0.00    +0.000 A 
ATOM      2  N   UNL     1       1.065   3.286  20.418  0.00  0.00    +0.000 NA
ATOM      3  C   UNL     1       2.107   3.431  19.528  0.00  0.00    +0.000 A 
ATOM      4  C   UNL     1       2.163   3.912  18.212  0.00  0.00    +0.000 A 
ATOM      5  C   UNL     1       3.392   3.935  17.531  0.00  0.00    +0.000 A 
ATOM      6  N   UNL     1       3.712   4.336  16.250  0.00  0.00    +0.000 NA
ATOM      7  C   UNL     1       5.002   4.081  16.096  0.00  0.00    +0.000 A 
ATOM      8  N   UNL     1       5.534   3.614  17.276  0.00  0.00    +0.000 N 
ATOM      9  C   UNL     1       4.530   3.476  18.188  0.00  0.00    +0.000 A 
ATOM     10  C   UNL     1       4.511   2.998  19.491  0.00  0.00    +0.000 A 
ATOM     11  C   UNL     1       3.283   2.989  20.123  0.00  0.00    +0.000 A 
ATOM     12  O   UNL     1       2.998   2.566  21.386  0.00  0.00    +0.000 OA
ATOM     13  H   UNL     1       6.505   3.386  17.428  0.00  0.00    +0.000 HD
ENDROOT
BRANCH   7  14
ATOM     14  C   UNL     1       5.815   4.228  14.889  0.00  0.00    +0.000 A 
ATOM     15  C   UNL     1       5.503   3.532  13.723  0.00  0.00    +0.000 A 
ATOM     16  C   UNL     1       6.308   3.714  12.609  0.00  0.00    +0.000 A 
ATOM     17  N   UNL     1       7.389   4.527  12.584  0.00  0.00    +0.000 NA
ATOM     18  C   UNL     1       7.681   5.182  13.724  0.00  0.00    +0.000 A 
ATOM     19  C   UNL     1       6.934   5.071  14.883  0.00  0.00    +0.000 A 
ENDBRANCH   7  14
BRANCH   1  20
ATOM     20  O   UNL     1       1.085   2.461  22.599  0.00  0.00    +0.000 OA
ATOM     21  H   UNL     1       0.232   2.120  22.286  0.00  0.00    +0.000 HD
ENDBRANCH   1  20
TORSDOF 2
ENDMDL
MODEL 5
REMARK VINA RESULT:      -7.0      3.556      7.370
REMARK  Name = 
REMARK  2 active torsions:
REMARK  status: ('A' for Active; 'I' for Inactive)
REMARK    1  A    between atoms: O_1  and  C_2
REMARK    2  A    between atoms: C_8  and  C_9
REMARK                            x       y       z     vdW  Elec       q    Type
REMARK                         _______ _______ _______ _____ _____    ______ ____
ROOT
ATOM      1  C   UNL     1      -0.689  11.603  22.601  0.00  0.00    +0.000 A 
ATOM      2  N   UNL     1      -0.543  11.800  21.314  0.00  0.00    +0.000 NA
ATOM      3  C   UNL     1       0.165  10.684  20.927  0.00  0.00    +0.000 A 
ATOM      4  C   UNL     1       0.651  10.259  19.682  0.00  0.00    +0.000 A 
ATOM      5  C   UNL     1       1.348   9.043  19.585  0.00  0.00    +0.000 A 
ATOM      6  N   UNL     1       1.905   8.400  18.498  0.00  0.00    +0.000 NA
ATOM      7  C   UNL     1       2.379   7.251  18.953  0.00  0.00    +0.000 A 
ATOM      8  N   UNL     1       2.224   7.185  20.319  0.00  0.00    +0.000 N 
ATOM      9  C   UNL     1       1.540   8.287  20.738  0.00  0.00    +0.000 A 
ATOM     10  C   UNL     1       1.077   8.680  21.986  0.00  0.00    +0.000 A 
ATOM     11  C   UNL     1       0.395   9.880  22.037  0.00  0.00    +0.000 A 
ATOM     12  O   UNL     1      -0.161  10.476  23.128  0.00  0.00    +0.000 OA
ATOM     13  H   UNL     1       2.541   6.428  20.905  0.00  0.00    +0.000 HD
ENDROOT
BRANCH   7  14
ATOM     14  C   UNL     1       2.980   6.156  18.191  0.00  0.00    +0.000 A 
ATOM     15  C   UNL     1       4.193   6.324  17.527  0.00  0.00    +0.000 A 
ATOM     16  C   UNL     1       4.715   5.248  16.823  0.00  0.00    +0.000 A 
ATOM     17  N   UNL     1       4.115   4.040  16.737  0.00  0.00    +0.000 NA
ATOM     18  C   UNL     1       2.937   3.901  17.376  0.00  0.00    +0.000 A 
ATOM     19  C   UNL     1       2.341   4.912  18.109  0.00  0.00    +0.000 A 
ENDBRANCH   7  14
BRANCH   1  20
ATOM     20  O   UNL     1      -1.311  12.408  23.430  0.00  0.00    +0.000 OA
ATOM     21  H   UNL     1      -0.792  12.286  24.241  0.00  0.00    +0.000 HD
ENDBRANCH   1  20
TORSDOF 2
ENDMDL
MODEL 6
REMARK VINA RESULT:      -7.0      3.566      7.306
REMARK  Name = 
REMARK  2 active torsions:
REMARK  status: ('A' for Active; 'I' for Inactive)
REMARK    1  A    between atoms: O_1  and  C_2
REMARK    2  A    between atoms: C_8  and  C_9
REMARK                            x       y       z     vdW  Elec       q    Type
REMARK                         _______ _______ _______ _____ _____    ______ ____
ROOT
ATOM      1  C   UNL     1      -0.575  11.747  22.461  0.00  0.00    +0.000 A 
ATOM      2  N   UNL     1      -0.424  11.910  21.170  0.00  0.00    +0.000 NA
ATOM      3  C   UNL     1       0.250  10.764  20.809  0.00  0.00    +0.000 A 
ATOM      4  C   UNL     1       0.722  10.296  19.574  0.00  0.00    +0.000 A 
ATOM      5  C   UNL     1       1.382   9.057  19.505  0.00  0.00    +0.000 A 
ATOM      6  N   UNL     1       1.919   8.373  18.433  0.00  0.00    +0.000 NA
ATOM      7  C   UNL     1       2.358   7.221  18.915  0.00  0.00    +0.000 A 
ATOM      8  N   UNL     1       2.201   7.191  20.282  0.00  0.00    +0.000 N 
ATOM      9  C   UNL     1       1.551   8.323  20.675  0.00  0.00    +0.000 A 
ATOM     10  C   UNL     1       1.101   8.758  21.914  0.00  0.00    +0.000 A 
ATOM     11  C   UNL     1       0.455   9.979  21.937  0.00  0.00    +0.000 A 
ATOM     12  O   UNL     1      -0.082  10.617  23.014  0.00  0.00    +0.000 OA
ATOM     13  H   UNL     1       2.495   6.438  20.886  0.00  0.00    +0.000 HD
ENDROOT
BRANCH   7  14
ATOM     14  C   UNL     1       2.925   6.091  18.179  0.00  0.00    +0.000 A 
ATOM     15  C   UNL     1       2.229   4.890  18.059  0.00  0.00    +0.000 A 
ATOM     16  C   UNL     1       2.816   3.855  17.346  0.00  0.00    +0.000 A 
ATOM     17  N   UNL     1       4.032   3.936  16.761  0.00  0.00    +0.000 NA
ATOM     18  C   UNL     1       4.694   5.101  16.898  0.00  0.00    +0.000 A 
ATOM     19  C   UNL     1       4.189   6.192  17.583  0.00  0.00    +0.000 A 
ENDBRANCH   7  14
BRANCH   1  20
ATOM     20  O   UNL     1      -1.172  12.589  23.271  0.00  0.00    +0.000 OA
ATOM     21  H   UNL     1      -1.973  12.094  23.506  0.00  0.00    +0.000 HD
ENDBRANCH   1  20
TORSDOF 2
ENDMDL
MODEL 7
REMARK VINA RESULT:      -7.0      1.678      2.165
REMARK  Name = 
REMARK  2 active torsions:
REMARK  status: ('A' for Active; 'I' for Inactive)
REMARK    1  A    between atoms: O_1  and  C_2
REMARK    2  A    between atoms: C_8  and  C_9
REMARK                            x       y       z     vdW  Elec       q    Type
REMARK                         _______ _______ _______ _____ _____    ______ ____
ROOT
ATOM      1  C   UNL     1       3.891   2.052  18.781  0.00  0.00    +0.000 A 
ATOM      2  N   UNL     1       4.152   3.128  18.080  0.00  0.00    +0.000 NA
ATOM      3  C   UNL     1       3.442   4.095  18.757  0.00  0.00    +0.000 A 
ATOM      4  C   UNL     1       3.285   5.473  18.544  0.00  0.00    +0.000 A 
ATOM      5  C   UNL     1       2.489   6.226  19.423  0.00  0.00    +0.000 A 
ATOM      6  N   UNL     1       2.189   7.573  19.448  0.00  0.00    +0.000 NA
ATOM      7  C   UNL     1       1.453   7.767  20.530  0.00  0.00    +0.000 A 
ATOM      8  N   UNL     1       1.196   6.564  21.147  0.00  0.00    +0.000 N 
ATOM      9  C   UNL     1       1.872   5.579  20.489  0.00  0.00    +0.000 A 
ATOM     10  C   UNL     1       2.001   4.217  20.726  0.00  0.00    +0.000 A 
ATOM     11  C   UNL     1       2.795   3.514  19.841  0.00  0.00    +0.000 A 
ATOM     12  O   UNL     1       3.086   2.184  19.859  0.00  0.00    +0.000 OA
ATOM     13  H   UNL     1       0.623   6.440  21.969  0.00  0.00    +0.000 HD
ENDROOT
BRANCH   7  14
ATOM     14  C   UNL     1       0.957   9.032  21.072  0.00  0.00    +0.000 A 
ATOM     15  C   UNL     1       1.133  10.228  20.380  0.00  0.00    +0.000 A 
ATOM     16  C   UNL     1       0.638  11.395  20.942  0.00  0.00    +0.000 A 
ATOM     17  N   UNL     1      -0.005  11.448  22.130  0.00  0.00    +0.000 NA
ATOM     18  C   UNL     1      -0.155  10.283  22.789  0.00  0.00    +0.000 A 
ATOM     19  C   UNL     1       0.297   9.067  22.307  0.00  0.00    +0.000 A 
ENDBRANCH   7  14
BRANCH   1  20
ATOM     20  O   UNL     1       4.348   0.849  18.529  0.00  0.00    +0.000 OA
ATOM     21  H   UNL     1       3.573   0.302  18.733  0.00  0.00    +0.000 HD
ENDBRANCH   1  20
TORSDOF 2
ENDMDL
MODEL 8
REMARK VINA RESULT:      -6.8      1.760      1.975
REMARK  Name = 
REMARK  2 active torsions:
REMARK  status: ('A' for Active; 'I' for Inactive)
REMARK    1  A    between atoms: O_1  and  C_2
REMARK    2  A    between atoms: C_8  and  C_9
REMARK                            x       y       z     vdW  Elec       q    Type
REMARK                         _______ _______ _______ _____ _____    ______ ____
ROOT
ATOM      1  C   UNL     1       3.826   1.928  18.737  0.00  0.00    +0.000 A 
ATOM      2  N   UNL     1       3.938   2.944  17.916  0.00  0.00    +0.000 NA
ATOM      3  C   UNL     1       3.313   3.953  18.616  0.00  0.00    +0.000 A 
ATOM      4  C   UNL     1       3.080   5.304  18.318  0.00  0.00    +0.000 A 
ATOM      5  C   UNL     1       2.409   6.115  19.248  0.00  0.00    +0.000 A 
ATOM      6  N   UNL     1       2.073   7.454  19.209  0.00  0.00    +0.000 NA
ATOM      7  C   UNL     1       1.512   7.727  20.376  0.00  0.00    +0.000 A 
ATOM      8  N   UNL     1       1.395   6.577  21.123  0.00  0.00    +0.000 N 
ATOM      9  C   UNL     1       1.989   5.552  20.449  0.00  0.00    +0.000 A 
ATOM     10  C   UNL     1       2.199   4.218  20.774  0.00  0.00    +0.000 A 
ATOM     11  C   UNL     1       2.864   3.456  19.834  0.00  0.00    +0.000 A 
ATOM     12  O   UNL     1       3.198   2.138  19.915  0.00  0.00    +0.000 OA
ATOM     13  H   UNL     1       0.963   6.514  22.033  0.00  0.00    +0.000 HD
ENDROOT
BRANCH   7  14
ATOM     14  C   UNL     1       1.066   9.025  20.883  0.00  0.00    +0.000 A 
ATOM     15  C   UNL     1       0.454   9.137  22.129  0.00  0.00    +0.000 A 
ATOM     16  C   UNL     1       0.056  10.394  22.559  0.00  0.00    +0.000 A 
ATOM     17  N   UNL     1       0.221  11.526  21.837  0.00  0.00    +0.000 NA
ATOM     18  C   UNL     1       0.804  11.395  20.630  0.00  0.00    +0.000 A 
ATOM     19  C   UNL     1       1.242  10.185  20.119  0.00  0.00    +0.000 A 
ENDBRANCH   7  14
BRANCH   1  20
ATOM     20  O   UNL     1       4.277   0.716  18.516  0.00  0.00    +0.000 OA
ATOM     21  H   UNL     1       3.453   0.203  18.512  0.00  0.00    +0.000 HD
ENDBRANCH   1  20
TORSDOF 2
ENDMDL
MODEL 9
REMARK VINA RESULT:      -6.8      2.057      2.816
REMARK  Name = 
REMARK  2 active torsions:
REMARK  status: ('A' for Active; 'I' for Inactive)
REMARK    1  A    between atoms: O_1  and  C_2
REMARK    2  A    between atoms: C_8  and  C_9
REMARK                            x       y       z     vdW  Elec       q    Type
REMARK                         _______ _______ _______ _____ _____    ______ ____
ROOT
ATOM      1  C   UNL     1       3.625   1.920  18.638  0.00  0.00    +0.000 A 
ATOM      2  N   UNL     1       3.097   2.245  19.794  0.00  0.00    +0.000 NA
ATOM      3  C   UNL     1       2.859   3.592  19.637  0.00  0.00    +0.000 A 
ATOM      4  C   UNL     1       2.305   4.558  20.489  0.00  0.00    +0.000 A 
ATOM      5  C   UNL     1       2.175   5.885  20.046  0.00  0.00    +0.000 A 
ATOM      6  N   UNL     1       1.659   7.004  20.668  0.00  0.00    +0.000 NA
ATOM      7  C   UNL     1       1.715   7.980  19.776  0.00  0.00    +0.000 A 
ATOM      8  N   UNL     1       2.339   7.539  18.632  0.00  0.00    +0.000 N 
ATOM      9  C   UNL     1       2.606   6.208  18.762  0.00  0.00    +0.000 A 
ATOM     10  C   UNL     1       3.163   5.278  17.895  0.00  0.00    +0.000 A 
ATOM     11  C   UNL     1       3.270   3.985  18.368  0.00  0.00    +0.000 A 
ATOM     12  O   UNL     1       3.768   2.898  17.717  0.00  0.00    +0.000 OA
ATOM     13  H   UNL     1       2.540   8.105  17.822  0.00  0.00    +0.000 HD
ENDROOT
BRANCH   7  14
ATOM     14  C   UNL     1       1.203   9.346  19.897  0.00  0.00    +0.000 A 
ATOM     15  C   UNL     1       1.083  10.169  18.780  0.00  0.00    +0.000 A 
ATOM     16  C   UNL     1       0.588  11.453  18.956  0.00  0.00    +0.000 A 
ATOM     17  N   UNL     1       0.217  11.961  20.152  0.00  0.00    +0.000 NA
ATOM     18  C   UNL     1       0.352  11.154  21.222  0.00  0.00    +0.000 A 
ATOM     19  C   UNL     1       0.828   9.857  21.146  0.00  0.00    +0.000 A 
ENDBRANCH   7  14
BRANCH   1  20
ATOM     20  O   UNL     1       4.026   0.720  18.294  0.00  0.00    +0.000 OA
ATOM     21  H   UNL     1       4.930   0.900  17.991  0.00  0.00    +0.000 HD
ENDBRANCH   1  20
TORSDOF 2
ENDMDL
