MODEL 1
REMARK VINA RESULT:      -8.7      0.000      0.000
REMARK  Name = 
REMARK  4 active torsions:
REMARK  status: ('A' for Active; 'I' for Inactive)
REMARK    1  A    between atoms: C_2  and  C_11
REMARK    2  A    between atoms: N_3  and  C_4
REMARK    3  A    between atoms: C_4  and  C_5
REMARK    4  A    between atoms: C_14  and  N_15
REMARK                            x       y       z     vdW  Elec       q    Type
REMARK                         _______ _______ _______ _____ _____    ______ ____
ROOT
ATOM      1  C   UNL     1       6.661   6.013  18.030  0.00  0.00    +0.000 A 
ATOM      2  C   UNL     1       7.747   6.136  18.896  0.00  0.00    +0.000 A 
ATOM      3  C   UNL     1       8.478   7.330  18.936  0.00  0.00    +0.000 A 
ATOM      4  C   UNL     1       8.139   8.416  18.125  0.00  0.00    +0.000 A 
ATOM      5  C   UNL     1       7.023   8.299  17.284  0.00  0.00    +0.000 A 
ATOM      6  C   UNL     1       6.290   7.107  17.238  0.00  0.00    +0.000 A 
ENDROOT
BRANCH   4   7
ATOM      7  N   UNL     1       8.840   9.644  18.109  0.00  0.00    +0.000 N 
ATOM      8  C   UNL     1       9.259  10.386  19.208  0.00  0.00    +0.000 C 
ATOM      9  O   UNL     1       9.093   9.993  20.360  0.00  0.00    +0.000 OA
ATOM     10  N   UNL     1       9.894  11.612  18.898  0.00  0.00    +0.000 N 
ATOM     11  C   UNL     1      10.411  11.887  17.548  0.00  0.00    +0.000 C 
ATOM     12  C   UNL     1      11.730  12.634  17.499  0.00  0.00    +0.000 C 
ATOM     13  S   UNL     1      11.507  14.304  18.104  0.00  0.00    +0.000 S 
ATOM     14  C   UNL     1      10.629  13.927  19.605  0.00  0.00    +0.000 A 
ATOM     15  N   UNL     1      10.651  14.985  20.465  0.00  0.00    +0.000 NA
ATOM     16  C   UNL     1      10.018  14.858  21.643  0.00  0.00    +0.000 A 
ATOM     17  C   UNL     1       9.363  13.711  22.018  0.00  0.00    +0.000 A 
ATOM     18  C   UNL     1       9.346  12.636  21.127  0.00  0.00    +0.000 A 
ATOM     19  C   UNL     1       9.977  12.704  19.871  0.00  0.00    +0.000 A 
ATOM     20  H   UNL     1       9.001  10.014  17.190  0.00  0.00    +0.000 HD
ENDBRANCH   4   7
BRANCH   1  22
ATOM     21  O   UNL     1       5.567   4.330  16.820  0.00  0.00    +0.000 OA
ATOM     22  C   UNL     1       5.861   4.769  17.928  0.00  0.00    +0.000 C 
ATOM     23  N   UNL     1       5.512   4.140  19.107  0.00  0.00    +0.000 N 
ATOM     24  H   UNL     1       5.766   4.525  20.002  0.00  0.00    +0.000 HD
BRANCH  23  25
ATOM     25  C   UNL     1       4.736   2.921  19.087  0.00  0.00    +0.000 C 
BRANCH  25  26
ATOM     26  C   UNL     1       3.295   3.171  19.442  0.00  0.00    +0.000 A 
ATOM     27  C   UNL     1       2.942   4.162  20.366  0.00  0.00    +0.000 A 
ATOM     28  C   UNL     1       1.602   4.396  20.676  0.00  0.00    +0.000 A 
ATOM     29  C   UNL     1       0.600   3.638  20.069  0.00  0.00    +0.000 A 
ATOM     30  C   UNL     1       0.936   2.644  19.155  0.00  0.00    +0.000 A 
ATOM     31  C   UNL     1       2.279   2.406  18.844  0.00  0.00    +0.000 A 
ENDBRANCH  25  26
ENDBRANCH  23  25
ENDBRANCH   1  22
TORSDOF 4
ENDMDL
MODEL 2
REMARK VINA RESULT:      -8.7      0.864      1.167
REMARK  Name = 
REMARK  4 active torsions:
REMARK  status: ('A' for Active; 'I' for Inactive)
REMARK    1  A    between atoms: C_2  and  C_11
REMARK    2  A    between atoms: N_3  and  C_4
REMARK    3  A    between atoms: C_4  and  C_5
REMARK    4  A    between atoms: C_14  and  N_15
REMARK                            x       y       z     vdW  Elec       q    Type
REMARK                         _______ _______ _______ _____ _____    ______ ____
ROOT
ATOM      1  C   UNL     1       6.623   6.171  18.022  0.00  0.00    +0.000 A 
ATOM      2  C   UNL     1       7.748   6.240  18.843  0.00  0.00    +0.000 A 
ATOM      3  C   UNL     1       8.510   7.415  18.889  0.00  0.00    +0.000 A 
ATOM      4  C   UNL     1       8.161   8.535  18.130  0.00  0.00    +0.000 A 
ATOM      5  C   UNL     1       7.007   8.472  17.337  0.00  0.00    +0.000 A 
ATOM      6  C   UNL     1       6.244   7.299  17.285  0.00  0.00    +0.000 A 
ENDROOT
BRANCH   4   7
ATOM      7  N   UNL     1       8.890   9.747  18.123  0.00  0.00    +0.000 N 
ATOM      8  C   UNL     1       9.305  10.484  19.227  0.00  0.00    +0.000 C 
ATOM      9  O   UNL     1       9.108  10.099  20.377  0.00  0.00    +0.000 OA
ATOM     10  N   UNL     1       9.974  11.694  18.925  0.00  0.00    +0.000 N 
ATOM     11  C   UNL     1      10.522  11.951  17.584  0.00  0.00    +0.000 C 
ATOM     12  C   UNL     1      11.859  12.668  17.558  0.00  0.00    +0.000 C 
ATOM     13  S   UNL     1      11.662  14.346  18.153  0.00  0.00    +0.000 S 
ATOM     14  C   UNL     1      10.748  13.995  19.638  0.00  0.00    +0.000 A 
ATOM     15  N   UNL     1      10.777  15.055  20.494  0.00  0.00    +0.000 NA
ATOM     16  C   UNL     1      10.119  14.948  21.660  0.00  0.00    +0.000 A 
ATOM     17  C   UNL     1       9.431  13.816  22.027  0.00  0.00    +0.000 A 
ATOM     18  C   UNL     1       9.407  12.739  21.140  0.00  0.00    +0.000 A 
ATOM     19  C   UNL     1      10.063  12.787  19.896  0.00  0.00    +0.000 A 
ATOM     20  H   UNL     1       9.077  10.109  17.206  0.00  0.00    +0.000 HD
ENDBRANCH   4   7
BRANCH   1  22
ATOM     21  O   UNL     1       6.170   3.912  18.451  0.00  0.00    +0.000 OA
ATOM     22  C   UNL     1       5.790   4.949  17.916  0.00  0.00    +0.000 C 
ATOM     23  N   UNL     1       4.592   5.054  17.236  0.00  0.00    +0.000 N 
ATOM     24  H   UNL     1       4.308   5.918  16.805  0.00  0.00    +0.000 HD
BRANCH  23  25
ATOM     25  C   UNL     1       3.725   3.906  17.095  0.00  0.00    +0.000 C 
BRANCH  25  26
ATOM     26  C   UNL     1       2.810   3.749  18.279  0.00  0.00    +0.000 A 
ATOM     27  C   UNL     1       2.437   2.479  18.738  0.00  0.00    +0.000 A 
ATOM     28  C   UNL     1       1.601   2.344  19.846  0.00  0.00    +0.000 A 
ATOM     29  C   UNL     1       1.124   3.476  20.506  0.00  0.00    +0.000 A 
ATOM     30  C   UNL     1       1.479   4.745  20.056  0.00  0.00    +0.000 A 
ATOM     31  C   UNL     1       2.316   4.883  18.945  0.00  0.00    +0.000 A 
ENDBRANCH  25  26
ENDBRANCH  23  25
ENDBRANCH   1  22
TORSDOF 4
ENDMDL
MODEL 3
REMARK VINA RESULT:      -8.4      6.492      8.325
REMARK  Name = 
REMARK  4 active torsions:
REMARK  status: ('A' for Active; 'I' for Inactive)
REMARK    1  A    between atoms: C_2  and  C_11
REMARK    2  A    between atoms: N_3  and  C_4
REMARK    3  A    between atoms: C_4  and  C_5
REMARK    4  A    between atoms: C_14  and  N_15
REMARK                            x       y       z     vdW  Elec       q    Type
REMARK                         _______ _______ _______ _____ _____    ______ ____
ROOT
ATOM      1  C   UNL     1       4.806   5.245  16.578  0.00  0.00    +0.000 A 
ATOM      2  C   UNL     1       3.811   4.596  17.310  0.00  0.00    +0.000 A 
ATOM      3  C   UNL     1       3.006   5.322  18.196  0.00  0.00    +0.000 A 
ATOM      4  C   UNL     1       3.171   6.699  18.362  0.00  0.00    +0.000 A 
ATOM      5  C   UNL     1       4.147   7.353  17.596  0.00  0.00    +0.000 A 
ATOM      6  C   UNL     1       4.956   6.631  16.710  0.00  0.00    +0.000 A 
ENDROOT
BRANCH   4   7
ATOM      7  N   UNL     1       2.400   7.490  19.246  0.00  0.00    +0.000 N 
ATOM      8  C   UNL     1       1.653   8.619  18.928  0.00  0.00    +0.000 C 
ATOM      9  O   UNL     1       1.549   9.026  17.774  0.00  0.00    +0.000 OA
ATOM     10  N   UNL     1       1.022   9.251  20.026  0.00  0.00    +0.000 N 
ATOM     11  C   UNL     1       0.849   8.557  21.312  0.00  0.00    +0.000 C 
ATOM     12  C   UNL     1      -0.469   8.816  22.016  0.00  0.00    +0.000 C 
ATOM     13  S   UNL     1      -0.546  10.521  22.557  0.00  0.00    +0.000 S 
ATOM     14  C   UNL     1      -0.056  11.304  21.036  0.00  0.00    +0.000 A 
ATOM     15  N   UNL     1      -0.384  12.627  21.037  0.00  0.00    +0.000 NA
ATOM     16  C   UNL     1      -0.067  13.361  19.958  0.00  0.00    +0.000 A 
ATOM     17  C   UNL     1       0.560  12.834  18.855  0.00  0.00    +0.000 A 
ATOM     18  C   UNL     1       0.893  11.478  18.868  0.00  0.00    +0.000 A 
ATOM     19  C   UNL     1       0.603  10.653  19.971  0.00  0.00    +0.000 A 
ATOM     20  H   UNL     1       2.452   7.202  20.206  0.00  0.00    +0.000 HD
ENDBRANCH   4   7
BRANCH   1  22
ATOM     21  O   UNL     1       5.981   3.351  15.854  0.00  0.00    +0.000 OA
ATOM     22  C   UNL     1       5.702   4.527  15.640  0.00  0.00    +0.000 C 
ATOM     23  N   UNL     1       6.156   5.223  14.537  0.00  0.00    +0.000 N 
ATOM     24  H   UNL     1       5.912   6.189  14.389  0.00  0.00    +0.000 HD
BRANCH  23  25
ATOM     25  C   UNL     1       7.030   4.588  13.577  0.00  0.00    +0.000 C 
BRANCH  25  26
ATOM     26  C   UNL     1       6.268   3.698  12.632  0.00  0.00    +0.000 A 
ATOM     27  C   UNL     1       6.875   2.579  12.048  0.00  0.00    +0.000 A 
ATOM     28  C   UNL     1       6.155   1.753  11.186  0.00  0.00    +0.000 A 
ATOM     29  C   UNL     1       4.822   2.037  10.893  0.00  0.00    +0.000 A 
ATOM     30  C   UNL     1       4.206   3.151  11.459  0.00  0.00    +0.000 A 
ATOM     31  C   UNL     1       4.927   3.982  12.323  0.00  0.00    +0.000 A 
ENDBRANCH  25  26
ENDBRANCH  23  25
ENDBRANCH   1  22
TORSDOF 4
ENDMDL
MODEL 4
REMARK VINA RESULT:      -8.4      9.362     10.841
REMARK  Name = 
REMARK  4 active torsions:
REMARK  status: ('A' for Active; 'I' for Inactive)
REMARK    1  A    between atoms: C_2  and  C_11
REMARK    2  A    between atoms: N_3  and  C_4
REMARK    3  A    between atoms: C_4  and  C_5
REMARK    4  A    between atoms: C_14  and  N_15
REMARK                            x       y       z     vdW  Elec       q    Type
REMARK                         _______ _______ _______ _____ _____    ______ ____
ROOT
ATOM      1  C   UNL     1       0.922   9.559  20.380  0.00  0.00    +0.000 A 
ATOM      2  C   UNL     1       0.580   9.320  21.710  0.00  0.00    +0.000 A 
ATOM      3  C   UNL     1      -0.029  10.328  22.469  0.00  0.00    +0.000 A 
ATOM      4  C   UNL     1      -0.311  11.579  21.917  0.00  0.00    +0.000 A 
ATOM      5  C   UNL     1       0.000  11.801  20.568  0.00  0.00    +0.000 A 
ATOM      6  C   UNL     1       0.611  10.797  19.806  0.00  0.00    +0.000 A 
ENDROOT
BRANCH   4   7
ATOM      7  N   UNL     1      -0.914  12.643  22.628  0.00  0.00    +0.000 N 
ATOM      8  C   UNL     1      -2.249  12.752  23.004  0.00  0.00    +0.000 C 
ATOM      9  O   UNL     1      -3.062  11.858  22.783  0.00  0.00    +0.000 OA
ATOM     10  N   UNL     1      -2.591  13.957  23.663  0.00  0.00    +0.000 N 
ATOM     11  C   UNL     1      -1.560  14.832  24.243  0.00  0.00    +0.000 C 
ATOM     12  C   UNL     1      -1.924  15.471  25.569  0.00  0.00    +0.000 C 
ATOM     13  S   UNL     1      -3.251  16.650  25.333  0.00  0.00    +0.000 S 
ATOM     14  C   UNL     1      -4.352  15.623  24.385  0.00  0.00    +0.000 A 
ATOM     15  N   UNL     1      -5.616  16.134  24.377  0.00  0.00    +0.000 NA
ATOM     16  C   UNL     1      -6.563  15.476  23.690  0.00  0.00    +0.000 A 
ATOM     17  C   UNL     1      -6.316  14.308  23.009  0.00  0.00    +0.000 A 
ATOM     18  C   UNL     1      -5.017  13.797  23.024  0.00  0.00    +0.000 A 
ATOM     19  C   UNL     1      -3.972  14.442  23.711  0.00  0.00    +0.000 A 
ATOM     20  H   UNL     1      -0.293  13.404  22.834  0.00  0.00    +0.000 HD
ENDBRANCH   4   7
BRANCH   1  22
ATOM     21  O   UNL     1       1.578   8.670  18.312  0.00  0.00    +0.000 OA
ATOM     22  C   UNL     1       1.586   8.538  19.533  0.00  0.00    +0.000 C 
ATOM     23  N   UNL     1       2.218   7.492  20.175  0.00  0.00    +0.000 N 
ATOM     24  H   UNL     1       2.205   7.409  21.179  0.00  0.00    +0.000 HD
BRANCH  23  25
ATOM     25  C   UNL     1       2.889   6.462  19.416  0.00  0.00    +0.000 C 
BRANCH  25  26
ATOM     26  C   UNL     1       2.156   5.150  19.487  0.00  0.00    +0.000 A 
ATOM     27  C   UNL     1       1.862   4.425  18.326  0.00  0.00    +0.000 A 
ATOM     28  C   UNL     1       1.195   3.202  18.404  0.00  0.00    +0.000 A 
ATOM     29  C   UNL     1       0.810   2.692  19.644  0.00  0.00    +0.000 A 
ATOM     30  C   UNL     1       1.089   3.405  20.807  0.00  0.00    +0.000 A 
ATOM     31  C   UNL     1       1.755   4.632  20.731  0.00  0.00    +0.000 A 
ENDBRANCH  25  26
ENDBRANCH  23  25
ENDBRANCH   1  22
TORSDOF 4
ENDMDL
MODEL 5
REMARK VINA RESULT:      -8.3      6.777      8.526
REMARK  Name = 
REMARK  4 active torsions:
REMARK  status: ('A' for Active; 'I' for Inactive)
REMARK    1  A    between atoms: C_2  and  C_11
REMARK    2  A    between atoms: N_3  and  C_4
REMARK    3  A    between atoms: C_4  and  C_5
REMARK    4  A    between atoms: C_14  and  N_15
REMARK                            x       y       z     vdW  Elec       q    Type
REMARK                         _______ _______ _______ _____ _____    ______ ____
ROOT
ATOM      1  C   UNL     1       3.427   5.483  18.158  0.00  0.00    +0.000 A 
ATOM      2  C   UNL     1       3.452   6.762  17.603  0.00  0.00    +0.000 A 
ATOM      3  C   UNL     1       2.814   7.823  18.258  0.00  0.00    +0.000 A 
ATOM      4  C   UNL     1       2.152   7.630  19.473  0.00  0.00    +0.000 A 
ATOM      5  C   UNL     1       2.163   6.351  20.046  0.00  0.00    +0.000 A 
ATOM      6  C   UNL     1       2.797   5.286  19.392  0.00  0.00    +0.000 A 
ENDROOT
BRANCH   4   7
ATOM      7  N   UNL     1       1.480   8.654  20.181  0.00  0.00    +0.000 N 
ATOM      8  C   UNL     1       0.745   9.705  19.643  0.00  0.00    +0.000 C 
ATOM      9  O   UNL     1       0.560   9.816  18.433  0.00  0.00    +0.000 OA
ATOM     10  N   UNL     1       0.225  10.621  20.588  0.00  0.00    +0.000 N 
ATOM     11  C   UNL     1       0.137  10.279  22.016  0.00  0.00    +0.000 C 
ATOM     12  C   UNL     1      -1.111  10.772  22.724  0.00  0.00    +0.000 C 
ATOM     13  S   UNL     1      -1.091  12.560  22.821  0.00  0.00    +0.000 S 
ATOM     14  C   UNL     1      -0.703  12.913  21.121  0.00  0.00    +0.000 A 
ATOM     15  N   UNL     1      -0.989  14.209  20.812  0.00  0.00    +0.000 NA
ATOM     16  C   UNL     1      -0.738  14.634  19.562  0.00  0.00    +0.000 A 
ATOM     17  C   UNL     1      -0.220  13.818  18.587  0.00  0.00    +0.000 A 
ATOM     18  C   UNL     1       0.071  12.493  18.918  0.00  0.00    +0.000 A 
ATOM     19  C   UNL     1      -0.153  11.985  20.211  0.00  0.00    +0.000 A 
ATOM     20  H   UNL     1       1.601   8.613  21.177  0.00  0.00    +0.000 HD
ENDBRANCH   4   7
BRANCH   1  22
ATOM     21  O   UNL     1       3.848   3.189  17.932  0.00  0.00    +0.000 OA
ATOM     22  C   UNL     1       4.067   4.318  17.502  0.00  0.00    +0.000 C 
ATOM     23  N   UNL     1       4.862   4.566  16.400  0.00  0.00    +0.000 N 
ATOM     24  H   UNL     1       5.025   5.504  16.072  0.00  0.00    +0.000 HD
BRANCH  23  25
ATOM     25  C   UNL     1       5.515   3.479  15.706  0.00  0.00    +0.000 C 
BRANCH  25  26
ATOM     26  C   UNL     1       6.200   3.951  14.452  0.00  0.00    +0.000 A 
ATOM     27  C   UNL     1       7.185   4.946  14.499  0.00  0.00    +0.000 A 
ATOM     28  C   UNL     1       7.824   5.365  13.332  0.00  0.00    +0.000 A 
ATOM     29  C   UNL     1       7.484   4.797  12.105  0.00  0.00    +0.000 A 
ATOM     30  C   UNL     1       6.502   3.812  12.041  0.00  0.00    +0.000 A 
ATOM     31  C   UNL     1       5.858   3.392  13.209  0.00  0.00    +0.000 A 
ENDBRANCH  25  26
ENDBRANCH  23  25
ENDBRANCH   1  22
TORSDOF 4
ENDMDL
MODEL 6
REMARK VINA RESULT:      -8.2      9.644     11.342
REMARK  Name = 
REMARK  4 active torsions:
REMARK  status: ('A' for Active; 'I' for Inactive)
REMARK    1  A    between atoms: C_2  and  C_11
REMARK    2  A    between atoms: N_3  and  C_4
REMARK    3  A    between atoms: C_4  and  C_5
REMARK    4  A    between atoms: C_14  and  N_15
REMARK                            x       y       z     vdW  Elec       q    Type
REMARK                         _______ _______ _______ _____ _____    ______ ____
ROOT
ATOM      1  C   UNL     1       0.553  10.021  19.326  0.00  0.00    +0.000 A 
ATOM      2  C   UNL     1       0.804  10.560  20.587  0.00  0.00    +0.000 A 
ATOM      3  C   UNL     1      -0.049  11.539  21.113  0.00  0.00    +0.000 A 
ATOM      4  C   UNL     1      -1.163  11.988  20.400  0.00  0.00    +0.000 A 
ATOM      5  C   UNL     1      -1.432  11.415  19.149  0.00  0.00    +0.000 A 
ATOM      6  C   UNL     1      -0.580  10.438  18.617  0.00  0.00    +0.000 A 
ENDROOT
BRANCH   4   7
ATOM      7  N   UNL     1      -2.058  12.979  20.867  0.00  0.00    +0.000 N 
ATOM      8  C   UNL     1      -2.929  12.881  21.946  0.00  0.00    +0.000 C 
ATOM      9  O   UNL     1      -2.966  11.885  22.665  0.00  0.00    +0.000 OA
ATOM     10  N   UNL     1      -3.755  14.011  22.156  0.00  0.00    +0.000 N 
ATOM     11  C   UNL     1      -3.446  15.310  21.538  0.00  0.00    +0.000 C 
ATOM     12  C   UNL     1      -3.708  16.521  22.412  0.00  0.00    +0.000 C 
ATOM     13  S   UNL     1      -5.468  16.706  22.686  0.00  0.00    +0.000 S 
ATOM     14  C   UNL     1      -5.839  15.033  23.163  0.00  0.00    +0.000 A 
ATOM     15  N   UNL     1      -7.045  14.958  23.793  0.00  0.00    +0.000 NA
ATOM     16  C   UNL     1      -7.473  13.753  24.205  0.00  0.00    +0.000 A 
ATOM     17  C   UNL     1      -6.744  12.602  24.029  0.00  0.00    +0.000 A 
ATOM     18  C   UNL     1      -5.511  12.693  23.380  0.00  0.00    +0.000 A 
ATOM     19  C   UNL     1      -5.008  13.920  22.910  0.00  0.00    +0.000 A 
ATOM     20  H   UNL     1      -2.071  13.816  20.313  0.00  0.00    +0.000 HD
ENDBRANCH   4   7
BRANCH   1  22
ATOM     21  O   UNL     1       1.778   9.128  17.538  0.00  0.00    +0.000 OA
ATOM     22  C   UNL     1       1.431   8.998  18.709  0.00  0.00    +0.000 C 
ATOM     23  N   UNL     1       1.846   7.951  19.508  0.00  0.00    +0.000 N 
ATOM     24  H   UNL     1       1.542   7.869  20.465  0.00  0.00    +0.000 HD
BRANCH  23  25
ATOM     25  C   UNL     1       2.705   6.918  18.977  0.00  0.00    +0.000 C 
BRANCH  25  26
ATOM     26  C   UNL     1       2.122   5.546  19.184  0.00  0.00    +0.000 A 
ATOM     27  C   UNL     1       1.677   5.136  20.447  0.00  0.00    +0.000 A 
ATOM     28  C   UNL     1       1.124   3.868  20.626  0.00  0.00    +0.000 A 
ATOM     29  C   UNL     1       1.015   2.993  19.545  0.00  0.00    +0.000 A 
ATOM     30  C   UNL     1       1.461   3.383  18.285  0.00  0.00    +0.000 A 
ATOM     31  C   UNL     1       2.017   4.653  18.104  0.00  0.00    +0.000 A 
ENDBRANCH  25  26
ENDBRANCH  23  25
ENDBRANCH   1  22
TORSDOF 4
ENDMDL
MODEL 7
REMARK VINA RESULT:      -8.2      8.702      9.988
REMARK  Name = 
REMARK  4 active torsions:
REMARK  status: ('A' for Active; 'I' for Inactive)
REMARK    1  A    between atoms: C_2  and  C_11
REMARK    2  A    between atoms: N_3  and  C_4
REMARK    3  A    between atoms: C_4  and  C_5
REMARK    4  A    between atoms: C_14  and  N_15
REMARK                            x       y       z     vdW  Elec       q    Type
REMARK                         _______ _______ _______ _____ _____    ______ ____
ROOT
ATOM      1  C   UNL     1       1.193   9.183  19.010  0.00  0.00    +0.000 A 
ATOM      2  C   UNL     1       1.071   9.055  20.393  0.00  0.00    +0.000 A 
ATOM      3  C   UNL     1       0.136   9.832  21.089  0.00  0.00    +0.000 A 
ATOM      4  C   UNL     1      -0.693  10.738  20.422  0.00  0.00    +0.000 A 
ATOM      5  C   UNL     1      -0.593  10.834  19.027  0.00  0.00    +0.000 A 
ATOM      6  C   UNL     1       0.343  10.061  18.327  0.00  0.00    +0.000 A 
ENDROOT
BRANCH   4   7
ATOM      7  N   UNL     1      -1.649  11.559  21.063  0.00  0.00    +0.000 N 
ATOM      8  C   UNL     1      -1.414  12.751  21.739  0.00  0.00    +0.000 C 
ATOM      9  O   UNL     1      -0.296  13.256  21.799  0.00  0.00    +0.000 OA
ATOM     10  N   UNL     1      -2.555  13.338  22.337  0.00  0.00    +0.000 N 
ATOM     11  C   UNL     1      -3.916  12.935  21.949  0.00  0.00    +0.000 C 
ATOM     12  C   UNL     1      -4.928  14.061  21.871  0.00  0.00    +0.000 C 
ATOM     13  S   UNL     1      -5.241  14.714  23.508  0.00  0.00    +0.000 S 
ATOM     14  C   UNL     1      -3.554  14.923  24.037  0.00  0.00    +0.000 A 
ATOM     15  N   UNL     1      -3.477  15.756  25.113  0.00  0.00    +0.000 NA
ATOM     16  C   UNL     1      -2.266  16.004  25.638  0.00  0.00    +0.000 A 
ATOM     17  C   UNL     1      -1.108  15.465  25.131  0.00  0.00    +0.000 A 
ATOM     18  C   UNL     1      -1.202  14.611  24.030  0.00  0.00    +0.000 A 
ATOM     19  C   UNL     1      -2.440  14.296  23.438  0.00  0.00    +0.000 A 
ATOM     20  H   UNL     1      -2.584  11.192  21.047  0.00  0.00    +0.000 HD
ENDBRANCH   4   7
BRANCH   1  22
ATOM     21  O   UNL     1       2.599   8.858  17.164  0.00  0.00    +0.000 OA
ATOM     22  C   UNL     1       2.177   8.402  18.222  0.00  0.00    +0.000 C 
ATOM     23  N   UNL     1       2.599   7.197  18.747  0.00  0.00    +0.000 N 
ATOM     24  H   UNL     1       2.232   6.847  19.618  0.00  0.00    +0.000 HD
BRANCH  23  25
ATOM     25  C   UNL     1       3.559   6.382  18.038  0.00  0.00    +0.000 C 
BRANCH  25  26
ATOM     26  C   UNL     1       3.145   4.936  18.000  0.00  0.00    +0.000 A 
ATOM     27  C   UNL     1       4.085   3.923  17.774  0.00  0.00    +0.000 A 
ATOM     28  C   UNL     1       3.693   2.585  17.756  0.00  0.00    +0.000 A 
ATOM     29  C   UNL     1       2.355   2.244  17.959  0.00  0.00    +0.000 A 
ATOM     30  C   UNL     1       1.408   3.241  18.177  0.00  0.00    +0.000 A 
ATOM     31  C   UNL     1       1.799   4.583  18.193  0.00  0.00    +0.000 A 
ENDBRANCH  25  26
ENDBRANCH  23  25
ENDBRANCH   1  22
TORSDOF 4
ENDMDL
MODEL 8
REMARK VINA RESULT:      -8.2      9.638     11.276
REMARK  Name = 
REMARK  4 active torsions:
REMARK  status: ('A' for Active; 'I' for Inactive)
REMARK    1  A    between atoms: C_2  and  C_11
REMARK    2  A    between atoms: N_3  and  C_4
REMARK    3  A    between atoms: C_4  and  C_5
REMARK    4  A    between atoms: C_14  and  N_15
REMARK                            x       y       z     vdW  Elec       q    Type
REMARK                         _______ _______ _______ _____ _____    ______ ____
ROOT
ATOM      1  C   UNL     1       0.558  10.101  18.986  0.00  0.00    +0.000 A 
ATOM      2  C   UNL     1      -0.739  10.173  18.479  0.00  0.00    +0.000 A 
ATOM      3  C   UNL     1      -1.621  11.155  18.948  0.00  0.00    +0.000 A 
ATOM      4  C   UNL     1      -1.226  12.080  19.917  0.00  0.00    +0.000 A 
ATOM      5  C   UNL     1       0.091  12.027  20.395  0.00  0.00    +0.000 A 
ATOM      6  C   UNL     1       0.976  11.046  19.931  0.00  0.00    +0.000 A 
ENDROOT
BRANCH   4   7
ATOM      7  N   UNL     1      -2.068  13.089  20.441  0.00  0.00    +0.000 N 
ATOM      8  C   UNL     1      -2.860  13.014  21.582  0.00  0.00    +0.000 C 
ATOM      9  O   UNL     1      -2.860  12.023  22.309  0.00  0.00    +0.000 OA
ATOM     10  N   UNL     1      -3.650  14.159  21.842  0.00  0.00    +0.000 N 
ATOM     11  C   UNL     1      -3.365  15.448  21.192  0.00  0.00    +0.000 C 
ATOM     12  C   UNL     1      -3.543  16.670  22.073  0.00  0.00    +0.000 C 
ATOM     13  S   UNL     1      -5.275  16.886  22.473  0.00  0.00    +0.000 S 
ATOM     14  C   UNL     1      -5.637  15.222  22.990  0.00  0.00    +0.000 A 
ATOM     15  N   UNL     1      -6.795  15.173  23.707  0.00  0.00    +0.000 NA
ATOM     16  C   UNL     1      -7.210  13.978  24.160  0.00  0.00    +0.000 A 
ATOM     17  C   UNL     1      -6.515  12.814  23.940  0.00  0.00    +0.000 A 
ATOM     18  C   UNL     1      -5.332  12.879  23.202  0.00  0.00    +0.000 A 
ATOM     19  C   UNL     1      -4.845  14.094  22.686  0.00  0.00    +0.000 A 
ATOM     20  H   UNL     1      -2.108  13.922  19.882  0.00  0.00    +0.000 HD
ENDBRANCH   4   7
BRANCH   1  22
ATOM     21  O   UNL     1       2.083   9.194  17.454  0.00  0.00    +0.000 OA
ATOM     22  C   UNL     1       1.530   9.073  18.544  0.00  0.00    +0.000 C 
ATOM     23  N   UNL     1       1.792   8.031  19.412  0.00  0.00    +0.000 N 
ATOM     24  H   UNL     1       1.321   7.956  20.299  0.00  0.00    +0.000 HD
BRANCH  23  25
ATOM     25  C   UNL     1       2.731   6.993  19.051  0.00  0.00    +0.000 C 
BRANCH  25  26
ATOM     26  C   UNL     1       2.132   5.621  19.203  0.00  0.00    +0.000 A 
ATOM     27  C   UNL     1       2.046   4.747  18.113  0.00  0.00    +0.000 A 
ATOM     28  C   UNL     1       1.503   3.471  18.268  0.00  0.00    +0.000 A 
ATOM     29  C   UNL     1       1.033   3.058  19.515  0.00  0.00    +0.000 A 
ATOM     30  C   UNL     1       1.104   3.919  20.607  0.00  0.00    +0.000 A 
ATOM     31  C   UNL     1       1.647   5.198  20.452  0.00  0.00    +0.000 A 
ENDBRANCH  25  26
ENDBRANCH  23  25
ENDBRANCH   1  22
TORSDOF 4
ENDMDL
MODEL 9
REMARK VINA RESULT:      -8.1      6.459      8.357
REMARK  Name = 
REMARK  4 active torsions:
REMARK  status: ('A' for Active; 'I' for Inactive)
REMARK    1  A    between atoms: C_2  and  C_11
REMARK    2  A    between atoms: N_3  and  C_4
REMARK    3  A    between atoms: C_4  and  C_5
REMARK    4  A    between atoms: C_14  and  N_15
REMARK                            x       y       z     vdW  Elec       q    Type
REMARK                         _______ _______ _______ _____ _____    ______ ____
ROOT
ATOM      1  C   UNL     1       4.963   5.343  16.430  0.00  0.00    +0.000 A 
ATOM      2  C   UNL     1       5.152   6.721  16.529  0.00  0.00    +0.000 A 
ATOM      3  C   UNL     1       4.368   7.474  17.413  0.00  0.00    +0.000 A 
ATOM      4  C   UNL     1       3.395   6.871  18.212  0.00  0.00    +0.000 A 
ATOM      5  C   UNL     1       3.234   5.480  18.136  0.00  0.00    +0.000 A 
ATOM      6  C   UNL     1       4.014   4.723  17.252  0.00  0.00    +0.000 A 
ENDROOT
BRANCH   4   7
ATOM      7  N   UNL     1       2.563   7.573  19.116  0.00  0.00    +0.000 N 
ATOM      8  C   UNL     1       1.731   8.649  18.829  0.00  0.00    +0.000 C 
ATOM      9  O   UNL     1       1.597   9.081  17.686  0.00  0.00    +0.000 OA
ATOM     10  N   UNL     1       1.051   9.197  19.942  0.00  0.00    +0.000 N 
ATOM     11  C   UNL     1       0.931   8.454  21.207  0.00  0.00    +0.000 C 
ATOM     12  C   UNL     1      -0.404   8.589  21.913  0.00  0.00    +0.000 C 
ATOM     13  S   UNL     1      -0.614  10.266  22.504  0.00  0.00    +0.000 S 
ATOM     14  C   UNL     1      -0.185  11.130  21.008  0.00  0.00    +0.000 A 
ATOM     15  N   UNL     1      -0.615  12.423  21.047  0.00  0.00    +0.000 NA
ATOM     16  C   UNL     1      -0.354  13.210  19.991  0.00  0.00    +0.000 A 
ATOM     17  C   UNL     1       0.313  12.766  18.876  0.00  0.00    +0.000 A 
ATOM     18  C   UNL     1       0.750  11.441  18.850  0.00  0.00    +0.000 A 
ATOM     19  C   UNL     1       0.524  10.563  19.927  0.00  0.00    +0.000 A 
ATOM     20  H   UNL     1       2.636   7.262  20.067  0.00  0.00    +0.000 HD
ENDBRANCH   4   7
BRANCH   1  22
ATOM     21  O   UNL     1       5.857   3.295  15.725  0.00  0.00    +0.000 OA
ATOM     22  C   UNL     1       5.748   4.497  15.500  0.00  0.00    +0.000 C 
ATOM     23  N   UNL     1       6.295   5.110  14.390  0.00  0.00    +0.000 N 
ATOM     24  H   UNL     1       6.191   6.100  14.233  0.00  0.00    +0.000 HD
BRANCH  23  25
ATOM     25  C   UNL     1       7.070   4.349  13.437  0.00  0.00    +0.000 C 
BRANCH  25  26
ATOM     26  C   UNL     1       6.191   3.536  12.526  0.00  0.00    +0.000 A 
ATOM     27  C   UNL     1       4.890   3.955  12.218  0.00  0.00    +0.000 A 
ATOM     28  C   UNL     1       4.089   3.202  11.360  0.00  0.00    +0.000 A 
ATOM     29  C   UNL     1       4.576   2.019  10.804  0.00  0.00    +0.000 A 
ATOM     30  C   UNL     1       5.864   1.585  11.108  0.00  0.00    +0.000 A 
ATOM     31  C   UNL     1       6.668   2.338  11.969  0.00  0.00    +0.000 A 
ENDBRANCH  25  26
ENDBRANCH  23  25
ENDBRANCH   1  22
TORSDOF 4
ENDMDL
