MODEL 1
REMARK VINA RESULT:      -8.8      0.000      0.000
REMARK  Name = 
REMARK  8 active torsions:
REMARK  status: ('A' for Active; 'I' for Inactive)
REMARK    1  A    between atoms: C_2  and  C_3
REMARK    2  A    between atoms: C_2  and  C_18
REMARK    3  A    between atoms: C_4  and  O_5
REMARK    4  A    between atoms: N_8  and  C_9
REMARK    5  A    between atoms: C_9  and  C_10
REMARK    6  A    between atoms: C_10  and  N_11
REMARK    7  A    between atoms: C_21  and  C_22
REMARK    8  A    between atoms: C_22  and  C_23
REMARK                            x       y       z     vdW  Elec       q    Type
REMARK                         _______ _______ _______ _____ _____    ______ ____
ROOT
ATOM      1  C   UNL     1       6.574   5.188  17.595  0.00  0.00    +0.000 C 
ATOM      2  C   UNL     1       6.677   4.968  16.276  0.00  0.00    +0.000 C 
ATOM      3  C   UNL     1       5.419   4.307  15.851  0.00  0.00    +0.000 C 
ATOM      4  O   UNL     1       5.114   4.045  14.704  0.00  0.00    +0.000 OA
ATOM      5  N   UNL     1       4.691   4.066  17.009  0.00  0.00    +0.000 N 
ATOM      6  C   UNL     1       5.292   4.696  18.150  0.00  0.00    +0.000 C 
ENDROOT
BRANCH   1   8
ATOM      7  O   UNL     1       8.275   5.162  19.181  0.00  0.00    +0.000 OA
ATOM      8  C   UNL     1       7.625   5.856  18.392  0.00  0.00    +0.000 C 
BRANCH   8   9
ATOM      9  C   UNL     1       7.863   7.278  18.225  0.00  0.00    +0.000 A 
ATOM     10  C   UNL     1       7.396   8.166  17.276  0.00  0.00    +0.000 A 
ATOM     11  C   UNL     1       7.943   9.435  17.593  0.00  0.00    +0.000 A 
ATOM     12  C   UNL     1       8.714   9.256  18.720  0.00  0.00    +0.000 A 
ATOM     13  O   UNL     1       8.669   7.951  19.102  0.00  0.00    +0.000 OA
BRANCH  12  14
ATOM     14  C   UNL     1       9.545  10.164  19.561  0.00  0.00    +0.000 C 
BRANCH  14  15
ATOM     15  C   UNL     1       9.974  11.406  18.813  0.00  0.00    +0.000 A 
ATOM     16  C   UNL     1       9.143  12.539  18.769  0.00  0.00    +0.000 A 
ATOM     17  C   UNL     1       9.511  13.655  18.015  0.00  0.00    +0.000 A 
ATOM     18  C   UNL     1      10.706  13.640  17.306  0.00  0.00    +0.000 A 
ATOM     19  F   UNL     1      11.046  14.702  16.564  0.00  0.00    +0.000 F 
ATOM     20  C   UNL     1      11.550  12.538  17.349  0.00  0.00    +0.000 A 
ATOM     21  C   UNL     1      11.187  11.420  18.102  0.00  0.00    +0.000 A 
ENDBRANCH  14  15
ENDBRANCH  12  14
ENDBRANCH   8   9
ENDBRANCH   1   8
BRANCH   2  22
ATOM     22  O   UNL     1       7.700   5.282  15.426  0.00  0.00    +0.000 OA
ATOM     23  H   UNL     1       8.395   5.729  15.951  0.00  0.00    +0.000 HD
ENDBRANCH   2  22
BRANCH   5  24
ATOM     24  C   UNL     1       3.312   3.595  17.079  0.00  0.00    +0.000 C 
BRANCH  24  25
ATOM     25  C   UNL     1       2.478   4.305  18.153  0.00  0.00    +0.000 C 
BRANCH  25  26
ATOM     26  N   UNL     1       1.535   3.453  18.904  0.00  0.00    +0.000 NA
ATOM     27  C   UNL     1       1.027   4.220  20.075  0.00  0.00    +0.000 C 
ATOM     28  C   UNL     1       2.080   4.446  21.180  0.00  0.00    +0.000 C 
ATOM     29  O   UNL     1       2.647   3.206  21.626  0.00  0.00    +0.000 OA
ATOM     30  C   UNL     1       3.214   2.476  20.530  0.00  0.00    +0.000 C 
ATOM     31  C   UNL     1       2.162   2.219  19.437  0.00  0.00    +0.000 C 
ENDBRANCH  25  26
ENDBRANCH  24  25
ENDBRANCH   5  24
TORSDOF 8
ENDMDL
MODEL 2
REMARK VINA RESULT:      -8.0      0.895      1.363
REMARK  Name = 
REMARK  8 active torsions:
REMARK  status: ('A' for Active; 'I' for Inactive)
REMARK    1  A    between atoms: C_2  and  C_3
REMARK    2  A    between atoms: C_2  and  C_18
REMARK    3  A    between atoms: C_4  and  O_5
REMARK    4  A    between atoms: N_8  and  C_9
REMARK    5  A    between atoms: C_9  and  C_10
REMARK    6  A    between atoms: C_10  and  N_11
REMARK    7  A    between atoms: C_21  and  C_22
REMARK    8  A    between atoms: C_22  and  C_23
REMARK                            x       y       z     vdW  Elec       q    Type
REMARK                         _______ _______ _______ _____ _____    ______ ____
ROOT
ATOM      1  C   UNL     1       6.651   5.909  17.674  0.00  0.00    +0.000 C 
ATOM      2  C   UNL     1       6.724   5.637  16.363  0.00  0.00    +0.000 C 
ATOM      3  C   UNL     1       5.414   5.062  15.970  0.00  0.00    +0.000 C 
ATOM      4  O   UNL     1       5.079   4.785  14.834  0.00  0.00    +0.000 OA
ATOM      5  N   UNL     1       4.680   4.918  17.140  0.00  0.00    +0.000 N 
ATOM      6  C   UNL     1       5.339   5.538  18.254  0.00  0.00    +0.000 C 
ENDROOT
BRANCH   1   8
ATOM      7  O   UNL     1       8.425   5.782  19.172  0.00  0.00    +0.000 OA
ATOM      8  C   UNL     1       7.758   6.521  18.440  0.00  0.00    +0.000 C 
BRANCH   8   9
ATOM      9  C   UNL     1       8.028   7.940  18.309  0.00  0.00    +0.000 A 
ATOM     10  C   UNL     1       7.511   8.882  17.440  0.00  0.00    +0.000 A 
ATOM     11  C   UNL     1       8.126  10.119  17.757  0.00  0.00    +0.000 A 
ATOM     12  C   UNL     1       8.985   9.869  18.805  0.00  0.00    +0.000 A 
ATOM     13  O   UNL     1       8.929   8.552  19.138  0.00  0.00    +0.000 OA
BRANCH  12  14
ATOM     14  C   UNL     1       9.915  10.715  19.605  0.00  0.00    +0.000 C 
BRANCH  14  15
ATOM     15  C   UNL     1      10.373  11.940  18.845  0.00  0.00    +0.000 A 
ATOM     16  C   UNL     1      11.253  11.819  17.755  0.00  0.00    +0.000 A 
ATOM     17  C   UNL     1      11.731  12.959  17.106  0.00  0.00    +0.000 A 
ATOM     18  C   UNL     1      11.332  14.216  17.543  0.00  0.00    +0.000 A 
ATOM     19  F   UNL     1      11.811  15.308  16.934  0.00  0.00    +0.000 F 
ATOM     20  C   UNL     1      10.450  14.357  18.606  0.00  0.00    +0.000 A 
ATOM     21  C   UNL     1       9.969  13.221  19.258  0.00  0.00    +0.000 A 
ENDBRANCH  14  15
ENDBRANCH  12  14
ENDBRANCH   8   9
ENDBRANCH   1   8
BRANCH   2  22
ATOM     22  O   UNL     1       7.760   5.841  15.495  0.00  0.00    +0.000 OA
ATOM     23  H   UNL     1       8.273   6.608  15.823  0.00  0.00    +0.000 HD
ENDBRANCH   2  22
BRANCH   5  24
ATOM     24  C   UNL     1       3.270   4.558  17.236  0.00  0.00    +0.000 C 
BRANCH  24  25
ATOM     25  C   UNL     1       2.807   4.280  18.672  0.00  0.00    +0.000 C 
BRANCH  25  26
ATOM     26  N   UNL     1       2.824   2.864  19.092  0.00  0.00    +0.000 NA
ATOM     27  C   UNL     1       1.429   2.345  19.075  0.00  0.00    +0.000 C 
ATOM     28  C   UNL     1       0.536   2.917  20.197  0.00  0.00    +0.000 C 
ATOM     29  O   UNL     1       1.115   2.703  21.491  0.00  0.00    +0.000 OA
ATOM     30  C   UNL     1       2.434   3.260  21.563  0.00  0.00    +0.000 C 
ATOM     31  C   UNL     1       3.340   2.671  20.468  0.00  0.00    +0.000 C 
ENDBRANCH  25  26
ENDBRANCH  24  25
ENDBRANCH   5  24
TORSDOF 8
ENDMDL
MODEL 3
REMARK VINA RESULT:      -7.8      1.602      2.037
REMARK  Name = 
REMARK  8 active torsions:
REMARK  status: ('A' for Active; 'I' for Inactive)
REMARK    1  A    between atoms: C_2  and  C_3
REMARK    2  A    between atoms: C_2  and  C_18
REMARK    3  A    between atoms: C_4  and  O_5
REMARK    4  A    between atoms: N_8  and  C_9
REMARK    5  A    between atoms: C_9  and  C_10
REMARK    6  A    between atoms: C_10  and  N_11
REMARK    7  A    between atoms: C_21  and  C_22
REMARK    8  A    between atoms: C_22  and  C_23
REMARK                            x       y       z     vdW  Elec       q    Type
REMARK                         _______ _______ _______ _____ _____    ______ ____
ROOT
ATOM      1  C   UNL     1       6.591   5.421  17.675  0.00  0.00    +0.000 C 
ATOM      2  C   UNL     1       6.691   5.265  16.347  0.00  0.00    +0.000 C 
ATOM      3  C   UNL     1       5.467   4.553  15.904  0.00  0.00    +0.000 C 
ATOM      4  O   UNL     1       5.164   4.325  14.749  0.00  0.00    +0.000 OA
ATOM      5  N   UNL     1       4.766   4.221  17.057  0.00  0.00    +0.000 N 
ATOM      6  C   UNL     1       5.345   4.833  18.219  0.00  0.00    +0.000 C 
ENDROOT
BRANCH   1   8
ATOM      7  O   UNL     1       8.224   5.442  19.331  0.00  0.00    +0.000 OA
ATOM      8  C   UNL     1       7.612   6.111  18.491  0.00  0.00    +0.000 C 
BRANCH   8   9
ATOM      9  C   UNL     1       7.865   7.525  18.285  0.00  0.00    +0.000 A 
ATOM     10  C   UNL     1       7.237   8.445  17.469  0.00  0.00    +0.000 A 
ATOM     11  C   UNL     1       7.893   9.687  17.664  0.00  0.00    +0.000 A 
ATOM     12  C   UNL     1       8.886   9.460  18.591  0.00  0.00    +0.000 A 
ATOM     13  O   UNL     1       8.873   8.153  18.965  0.00  0.00    +0.000 OA
BRANCH  12  14
ATOM     14  C   UNL     1       9.919  10.322  19.232  0.00  0.00    +0.000 C 
BRANCH  14  15
ATOM     15  C   UNL     1       9.309  11.452  20.030  0.00  0.00    +0.000 A 
ATOM     16  C   UNL     1       9.134  12.723  19.454  0.00  0.00    +0.000 A 
ATOM     17  C   UNL     1       8.640  13.782  20.219  0.00  0.00    +0.000 A 
ATOM     18  C   UNL     1       8.321  13.573  21.555  0.00  0.00    +0.000 A 
ATOM     19  F   UNL     1       7.870  14.595  22.294  0.00  0.00    +0.000 F 
ATOM     20  C   UNL     1       8.470  12.321  22.139  0.00  0.00    +0.000 A 
ATOM     21  C   UNL     1       8.963  11.260  21.379  0.00  0.00    +0.000 A 
ENDBRANCH  14  15
ENDBRANCH  12  14
ENDBRANCH   8   9
ENDBRANCH   1   8
BRANCH   2  22
ATOM     22  O   UNL     1       7.684   5.673  15.502  0.00  0.00    +0.000 OA
ATOM     23  H   UNL     1       7.397   6.514  15.092  0.00  0.00    +0.000 HD
ENDBRANCH   2  22
BRANCH   5  24
ATOM     24  C   UNL     1       3.417   3.670  17.118  0.00  0.00    +0.000 C 
BRANCH  24  25
ATOM     25  C   UNL     1       2.546   4.310  18.207  0.00  0.00    +0.000 C 
BRANCH  25  26
ATOM     26  N   UNL     1       1.595   3.405  18.885  0.00  0.00    +0.000 NA
ATOM     27  C   UNL     1       0.998   4.125  20.044  0.00  0.00    +0.000 C 
ATOM     28  C   UNL     1       1.982   4.358  21.211  0.00  0.00    +0.000 C 
ATOM     29  O   UNL     1       2.569   3.128  21.656  0.00  0.00    +0.000 OA
ATOM     30  C   UNL     1       3.220   2.447  20.576  0.00  0.00    +0.000 C 
ATOM     31  C   UNL     1       2.238   2.181  19.422  0.00  0.00    +0.000 C 
ENDBRANCH  25  26
ENDBRANCH  24  25
ENDBRANCH   5  24
TORSDOF 8
ENDMDL
MODEL 4
REMARK VINA RESULT:      -7.7      1.042      1.244
REMARK  Name = 
REMARK  8 active torsions:
REMARK  status: ('A' for Active; 'I' for Inactive)
REMARK    1  A    between atoms: C_2  and  C_3
REMARK    2  A    between atoms: C_2  and  C_18
REMARK    3  A    between atoms: C_4  and  O_5
REMARK    4  A    between atoms: N_8  and  C_9
REMARK    5  A    between atoms: C_9  and  C_10
REMARK    6  A    between atoms: C_10  and  N_11
REMARK    7  A    between atoms: C_21  and  C_22
REMARK    8  A    between atoms: C_22  and  C_23
REMARK                            x       y       z     vdW  Elec       q    Type
REMARK                         _______ _______ _______ _____ _____    ______ ____
ROOT
ATOM      1  C   UNL     1       6.603   5.861  17.732  0.00  0.00    +0.000 C 
ATOM      2  C   UNL     1       6.655   5.545  16.429  0.00  0.00    +0.000 C 
ATOM      3  C   UNL     1       5.330   4.984  16.069  0.00  0.00    +0.000 C 
ATOM      4  O   UNL     1       4.976   4.678  14.947  0.00  0.00    +0.000 OA
ATOM      5  N   UNL     1       4.607   4.892  17.252  0.00  0.00    +0.000 N 
ATOM      6  C   UNL     1       5.291   5.534  18.338  0.00  0.00    +0.000 C 
ENDROOT
BRANCH   1   8
ATOM      7  O   UNL     1       8.399   5.744  19.204  0.00  0.00    +0.000 OA
ATOM      8  C   UNL     1       7.730   6.474  18.465  0.00  0.00    +0.000 C 
BRANCH   8   9
ATOM      9  C   UNL     1       8.018   7.886  18.296  0.00  0.00    +0.000 A 
ATOM     10  C   UNL     1       7.526   8.806  17.391  0.00  0.00    +0.000 A 
ATOM     11  C   UNL     1       8.149  10.046  17.681  0.00  0.00    +0.000 A 
ATOM     12  C   UNL     1       8.988   9.819  18.750  0.00  0.00    +0.000 A 
ATOM     13  O   UNL     1       8.912   8.513  19.121  0.00  0.00    +0.000 OA
BRANCH  12  14
ATOM     14  C   UNL     1       9.914  10.679  19.539  0.00  0.00    +0.000 C 
BRANCH  14  15
ATOM     15  C   UNL     1      10.298  11.940  18.799  0.00  0.00    +0.000 A 
ATOM     16  C   UNL     1       9.587  13.136  19.003  0.00  0.00    +0.000 A 
ATOM     17  C   UNL     1       9.898  14.277  18.261  0.00  0.00    +0.000 A 
ATOM     18  C   UNL     1      10.916  14.225  17.317  0.00  0.00    +0.000 A 
ATOM     19  F   UNL     1      11.197  15.314  16.590  0.00  0.00    +0.000 F 
ATOM     20  C   UNL     1      11.643  13.059  17.111  0.00  0.00    +0.000 A 
ATOM     21  C   UNL     1      11.336  11.916  17.851  0.00  0.00    +0.000 A 
ENDBRANCH  14  15
ENDBRANCH  12  14
ENDBRANCH   8   9
ENDBRANCH   1   8
BRANCH   2  22
ATOM     22  O   UNL     1       7.684   5.701  15.544  0.00  0.00    +0.000 OA
ATOM     23  H   UNL     1       7.520   6.525  15.042  0.00  0.00    +0.000 HD
ENDBRANCH   2  22
BRANCH   5  24
ATOM     24  C   UNL     1       3.191   4.564  17.375  0.00  0.00    +0.000 C 
BRANCH  24  25
ATOM     25  C   UNL     1       2.633   4.789  18.786  0.00  0.00    +0.000 C 
BRANCH  25  26
ATOM     26  N   UNL     1       2.004   3.615  19.424  0.00  0.00    +0.000 NA
ATOM     27  C   UNL     1       2.908   3.114  20.496  0.00  0.00    +0.000 C 
ATOM     28  C   UNL     1       4.193   2.441  19.966  0.00  0.00    +0.000 C 
ATOM     29  O   UNL     1       3.890   1.377  19.054  0.00  0.00    +0.000 OA
ATOM     30  C   UNL     1       3.081   1.845  17.968  0.00  0.00    +0.000 C 
ATOM     31  C   UNL     1       1.783   2.489  18.485  0.00  0.00    +0.000 C 
ENDBRANCH  25  26
ENDBRANCH  24  25
ENDBRANCH   5  24
TORSDOF 8
ENDMDL
MODEL 5
REMARK VINA RESULT:      -7.7      8.399     11.101
REMARK  Name = 
REMARK  8 active torsions:
REMARK  status: ('A' for Active; 'I' for Inactive)
REMARK    1  A    between atoms: C_2  and  C_3
REMARK    2  A    between atoms: C_2  and  C_18
REMARK    3  A    between atoms: C_4  and  O_5
REMARK    4  A    between atoms: N_8  and  C_9
REMARK    5  A    between atoms: C_9  and  C_10
REMARK    6  A    between atoms: C_10  and  N_11
REMARK    7  A    between atoms: C_21  and  C_22
REMARK    8  A    between atoms: C_22  and  C_23
REMARK                            x       y       z     vdW  Elec       q    Type
REMARK                         _______ _______ _______ _____ _____    ______ ____
ROOT
ATOM      1  C   UNL     1      -0.562  11.387  19.132  0.00  0.00    +0.000 C 
ATOM      2  C   UNL     1      -0.874  12.606  18.667  0.00  0.00    +0.000 C 
ATOM      3  C   UNL     1      -0.915  13.514  19.839  0.00  0.00    +0.000 C 
ATOM      4  O   UNL     1      -1.071  14.719  19.791  0.00  0.00    +0.000 OA
ATOM      5  N   UNL     1      -0.740  12.717  20.963  0.00  0.00    +0.000 N 
ATOM      6  C   UNL     1      -0.392  11.371  20.604  0.00  0.00    +0.000 C 
ENDROOT
BRANCH   1   8
ATOM      7  O   UNL     1      -1.337   9.912  17.509  0.00  0.00    +0.000 OA
ATOM      8  C   UNL     1      -0.401  10.202  18.262  0.00  0.00    +0.000 C 
BRANCH   8   9
ATOM      9  C   UNL     1       0.828   9.432  18.312  0.00  0.00    +0.000 A 
ATOM     10  C   UNL     1       1.971   9.504  17.539  0.00  0.00    +0.000 A 
ATOM     11  C   UNL     1       2.862   8.516  18.027  0.00  0.00    +0.000 A 
ATOM     12  C   UNL     1       2.218   7.893  19.074  0.00  0.00    +0.000 A 
ATOM     13  O   UNL     1       0.987   8.444  19.245  0.00  0.00    +0.000 OA
BRANCH  12  14
ATOM     14  C   UNL     1       2.587   6.792  20.007  0.00  0.00    +0.000 C 
BRANCH  14  15
ATOM     15  C   UNL     1       1.975   5.469  19.604  0.00  0.00    +0.000 A 
ATOM     16  C   UNL     1       1.397   4.624  20.567  0.00  0.00    +0.000 A 
ATOM     17  C   UNL     1       0.901   3.371  20.199  0.00  0.00    +0.000 A 
ATOM     18  C   UNL     1       0.982   2.963  18.874  0.00  0.00    +0.000 A 
ATOM     19  F   UNL     1       0.528   1.752  18.527  0.00  0.00    +0.000 F 
ATOM     20  C   UNL     1       1.533   3.790  17.903  0.00  0.00    +0.000 A 
ATOM     21  C   UNL     1       2.030   5.043  18.266  0.00  0.00    +0.000 A 
ENDBRANCH  14  15
ENDBRANCH  12  14
ENDBRANCH   8   9
ENDBRANCH   1   8
BRANCH   2  22
ATOM     22  O   UNL     1      -1.100  13.007  17.381  0.00  0.00    +0.000 OA
ATOM     23  H   UNL     1      -0.403  12.610  16.820  0.00  0.00    +0.000 HD
ENDBRANCH   2  22
BRANCH   5  24
ATOM     24  C   UNL     1      -0.533  13.184  22.329  0.00  0.00    +0.000 C 
BRANCH  24  25
ATOM     25  C   UNL     1      -1.674  12.807  23.282  0.00  0.00    +0.000 C 
BRANCH  25  26
ATOM     26  N   UNL     1      -2.706  13.843  23.493  0.00  0.00    +0.000 NA
ATOM     27  C   UNL     1      -3.476  13.505  24.721  0.00  0.00    +0.000 C 
ATOM     28  C   UNL     1      -4.398  12.277  24.564  0.00  0.00    +0.000 C 
ATOM     29  O   UNL     1      -5.297  12.433  23.458  0.00  0.00    +0.000 OA
ATOM     30  C   UNL     1      -4.580  12.685  22.243  0.00  0.00    +0.000 C 
ATOM     31  C   UNL     1      -3.682  13.927  22.381  0.00  0.00    +0.000 C 
ENDBRANCH  25  26
ENDBRANCH  24  25
ENDBRANCH   5  24
TORSDOF 8
ENDMDL
MODEL 6
REMARK VINA RESULT:      -7.6      7.198     11.343
REMARK  Name = 
REMARK  8 active torsions:
REMARK  status: ('A' for Active; 'I' for Inactive)
REMARK    1  A    between atoms: C_2  and  C_3
REMARK    2  A    between atoms: C_2  and  C_18
REMARK    3  A    between atoms: C_4  and  O_5
REMARK    4  A    between atoms: N_8  and  C_9
REMARK    5  A    between atoms: C_9  and  C_10
REMARK    6  A    between atoms: C_10  and  N_11
REMARK    7  A    between atoms: C_21  and  C_22
REMARK    8  A    between atoms: C_22  and  C_23
REMARK                            x       y       z     vdW  Elec       q    Type
REMARK                         _______ _______ _______ _____ _____    ______ ____
ROOT
ATOM      1  C   UNL     1       0.359  11.940  19.837  0.00  0.00    +0.000 C 
ATOM      2  C   UNL     1       0.418  12.211  21.149  0.00  0.00    +0.000 C 
ATOM      3  C   UNL     1       0.861  13.620  21.278  0.00  0.00    +0.000 C 
ATOM      4  O   UNL     1       0.935  14.243  22.320  0.00  0.00    +0.000 OA
ATOM      5  N   UNL     1       1.160  14.058  19.994  0.00  0.00    +0.000 N 
ATOM      6  C   UNL     1       0.760  13.099  19.005  0.00  0.00    +0.000 C 
ENDROOT
BRANCH   1   8
ATOM      7  O   UNL     1      -1.281  10.425  19.189  0.00  0.00    +0.000 OA
ATOM      8  C   UNL     1      -0.068  10.633  19.294  0.00  0.00    +0.000 C 
BRANCH   8   9
ATOM      9  C   UNL     1       0.929   9.653  18.905  0.00  0.00    +0.000 A 
ATOM     10  C   UNL     1       1.663   9.524  17.742  0.00  0.00    +0.000 A 
ATOM     11  C   UNL     1       2.493   8.386  17.901  0.00  0.00    +0.000 A 
ATOM     12  C   UNL     1       2.224   7.881  19.154  0.00  0.00    +0.000 A 
ATOM     13  O   UNL     1       1.277   8.644  19.761  0.00  0.00    +0.000 OA
BRANCH  12  14
ATOM     14  C   UNL     1       2.742   6.722  19.935  0.00  0.00    +0.000 C 
BRANCH  14  15
ATOM     15  C   UNL     1       2.059   5.426  19.560  0.00  0.00    +0.000 A 
ATOM     16  C   UNL     1       1.396   4.658  20.534  0.00  0.00    +0.000 A 
ATOM     17  C   UNL     1       0.831   3.426  20.196  0.00  0.00    +0.000 A 
ATOM     18  C   UNL     1       0.928   2.962  18.890  0.00  0.00    +0.000 A 
ATOM     19  F   UNL     1       0.408   1.770  18.573  0.00  0.00    +0.000 F 
ATOM     20  C   UNL     1       1.564   3.713  17.909  0.00  0.00    +0.000 A 
ATOM     21  C   UNL     1       2.129   4.945  18.242  0.00  0.00    +0.000 A 
ENDBRANCH  14  15
ENDBRANCH  12  14
ENDBRANCH   8   9
ENDBRANCH   1   8
BRANCH   2  22
ATOM     22  O   UNL     1       0.124  11.402  22.211  0.00  0.00    +0.000 OA
ATOM     23  H   UNL     1      -0.770  11.031  22.061  0.00  0.00    +0.000 HD
ENDBRANCH   2  22
BRANCH   5  24
ATOM     24  C   UNL     1       1.466  15.429  19.599  0.00  0.00    +0.000 C 
BRANCH  24  25
ATOM     25  C   UNL     1       2.900  15.855  19.936  0.00  0.00    +0.000 C 
BRANCH  25  26
ATOM     26  N   UNL     1       3.627  16.571  18.867  0.00  0.00    +0.000 NA
ATOM     27  C   UNL     1       3.751  15.670  17.688  0.00  0.00    +0.000 C 
ATOM     28  C   UNL     1       4.730  14.495  17.900  0.00  0.00    +0.000 C 
ATOM     29  O   UNL     1       6.029  14.959  18.291  0.00  0.00    +0.000 OA
ATOM     30  C   UNL     1       5.952  15.770  19.471  0.00  0.00    +0.000 C 
ATOM     31  C   UNL     1       5.003  16.961  19.258  0.00  0.00    +0.000 C 
ENDBRANCH  25  26
ENDBRANCH  24  25
ENDBRANCH   5  24
TORSDOF 8
ENDMDL
MODEL 7
REMARK VINA RESULT:      -7.6      5.531      8.589
REMARK  Name = 
REMARK  8 active torsions:
REMARK  status: ('A' for Active; 'I' for Inactive)
REMARK    1  A    between atoms: C_2  and  C_3
REMARK    2  A    between atoms: C_2  and  C_18
REMARK    3  A    between atoms: C_4  and  O_5
REMARK    4  A    between atoms: N_8  and  C_9
REMARK    5  A    between atoms: C_9  and  C_10
REMARK    6  A    between atoms: C_10  and  N_11
REMARK    7  A    between atoms: C_21  and  C_22
REMARK    8  A    between atoms: C_22  and  C_23
REMARK                            x       y       z     vdW  Elec       q    Type
REMARK                         _______ _______ _______ _____ _____    ______ ____
ROOT
ATOM      1  C   UNL     1       2.302   5.729  20.141  0.00  0.00    +0.000 C 
ATOM      2  C   UNL     1       1.653   4.556  20.182  0.00  0.00    +0.000 C 
ATOM      3  C   UNL     1       2.639   3.507  19.823  0.00  0.00    +0.000 C 
ATOM      4  O   UNL     1       2.435   2.309  19.851  0.00  0.00    +0.000 OA
ATOM      5  N   UNL     1       3.807   4.170  19.466  0.00  0.00    +0.000 N 
ATOM      6  C   UNL     1       3.722   5.575  19.749  0.00  0.00    +0.000 C 
ENDROOT
BRANCH   1   8
ATOM      7  O   UNL     1       1.143   7.145  21.577  0.00  0.00    +0.000 OA
ATOM      8  C   UNL     1       1.662   7.023  20.462  0.00  0.00    +0.000 C 
BRANCH   8   9
ATOM      9  C   UNL     1       1.665   8.092  19.482  0.00  0.00    +0.000 A 
ATOM     10  C   UNL     1       2.325   8.209  18.274  0.00  0.00    +0.000 A 
ATOM     11  C   UNL     1       1.964   9.465  17.725  0.00  0.00    +0.000 A 
ATOM     12  C   UNL     1       1.099  10.049  18.624  0.00  0.00    +0.000 A 
ATOM     13  O   UNL     1       0.920   9.221  19.689  0.00  0.00    +0.000 OA
BRANCH  12  14
ATOM     14  C   UNL     1       0.360  11.342  18.659  0.00  0.00    +0.000 C 
BRANCH  14  15
ATOM     15  C   UNL     1      -1.112  11.170  18.358  0.00  0.00    +0.000 A 
ATOM     16  C   UNL     1      -2.067  12.020  18.943  0.00  0.00    +0.000 A 
ATOM     17  C   UNL     1      -3.429  11.809  18.721  0.00  0.00    +0.000 A 
ATOM     18  C   UNL     1      -3.837  10.752  17.917  0.00  0.00    +0.000 A 
ATOM     19  F   UNL     1      -5.145  10.536  17.724  0.00  0.00    +0.000 F 
ATOM     20  C   UNL     1      -2.910   9.911  17.315  0.00  0.00    +0.000 A 
ATOM     21  C   UNL     1      -1.547  10.118  17.534  0.00  0.00    +0.000 A 
ENDBRANCH  14  15
ENDBRANCH  12  14
ENDBRANCH   8   9
ENDBRANCH   1   8
BRANCH   2  22
ATOM     22  O   UNL     1       0.350   4.301  20.502  0.00  0.00    +0.000 OA
ATOM     23  H   UNL     1       0.208   3.336  20.418  0.00  0.00    +0.000 HD
ENDBRANCH   2  22
BRANCH   5  24
ATOM     24  C   UNL     1       5.104   3.555  19.208  0.00  0.00    +0.000 C 
BRANCH  24  25
ATOM     25  C   UNL     1       5.822   4.137  17.983  0.00  0.00    +0.000 C 
BRANCH  25  26
ATOM     26  N   UNL     1       5.018   4.225  16.747  0.00  0.00    +0.000 NA
ATOM     27  C   UNL     1       5.801   3.636  15.626  0.00  0.00    +0.000 C 
ATOM     28  C   UNL     1       7.008   4.493  15.188  0.00  0.00    +0.000 C 
ATOM     29  O   UNL     1       6.610   5.827  14.850  0.00  0.00    +0.000 OA
ATOM     30  C   UNL     1       5.918   6.450  15.940  0.00  0.00    +0.000 C 
ATOM     31  C   UNL     1       4.694   5.619  16.361  0.00  0.00    +0.000 C 
ENDBRANCH  25  26
ENDBRANCH  24  25
ENDBRANCH   5  24
TORSDOF 8
ENDMDL
MODEL 8
REMARK VINA RESULT:      -7.6      5.513      8.509
REMARK  Name = 
REMARK  8 active torsions:
REMARK  status: ('A' for Active; 'I' for Inactive)
REMARK    1  A    between atoms: C_2  and  C_3
REMARK    2  A    between atoms: C_2  and  C_18
REMARK    3  A    between atoms: C_4  and  O_5
REMARK    4  A    between atoms: N_8  and  C_9
REMARK    5  A    between atoms: C_9  and  C_10
REMARK    6  A    between atoms: C_10  and  N_11
REMARK    7  A    between atoms: C_21  and  C_22
REMARK    8  A    between atoms: C_22  and  C_23
REMARK                            x       y       z     vdW  Elec       q    Type
REMARK                         _______ _______ _______ _____ _____    ______ ____
ROOT
ATOM      1  C   UNL     1       2.951   5.721  19.838  0.00  0.00    +0.000 C 
ATOM      2  C   UNL     1       2.685   4.406  19.883  0.00  0.00    +0.000 C 
ATOM      3  C   UNL     1       3.931   3.703  19.492  0.00  0.00    +0.000 C 
ATOM      4  O   UNL     1       4.096   2.498  19.514  0.00  0.00    +0.000 OA
ATOM      5  N   UNL     1       4.837   4.685  19.114  0.00  0.00    +0.000 N 
ATOM      6  C   UNL     1       4.343   6.000  19.412  0.00  0.00    +0.000 C 
ENDROOT
BRANCH   1   8
ATOM      7  O   UNL     1       1.282   6.590  21.204  0.00  0.00    +0.000 OA
ATOM      8  C   UNL     1       1.961   6.762  20.186  0.00  0.00    +0.000 C 
BRANCH   8   9
ATOM      9  C   UNL     1       1.821   7.935  19.344  0.00  0.00    +0.000 A 
ATOM     10  C   UNL     1       2.339   8.216  18.094  0.00  0.00    +0.000 A 
ATOM     11  C   UNL     1       1.880   9.509  17.738  0.00  0.00    +0.000 A 
ATOM     12  C   UNL     1       1.103   9.949  18.787  0.00  0.00    +0.000 A 
ATOM     13  O   UNL     1       1.070   8.999  19.760  0.00  0.00    +0.000 OA
BRANCH  12  14
ATOM     14  C   UNL     1       0.333  11.197  19.052  0.00  0.00    +0.000 C 
BRANCH  14  15
ATOM     15  C   UNL     1      -1.101  11.096  18.582  0.00  0.00    +0.000 A 
ATOM     16  C   UNL     1      -2.089  11.946  19.109  0.00  0.00    +0.000 A 
ATOM     17  C   UNL     1      -3.423  11.799  18.726  0.00  0.00    +0.000 A 
ATOM     18  C   UNL     1      -3.771  10.805  17.820  0.00  0.00    +0.000 A 
ATOM     19  F   UNL     1      -5.055  10.648  17.473  0.00  0.00    +0.000 F 
ATOM     20  C   UNL     1      -2.809   9.965  17.274  0.00  0.00    +0.000 A 
ATOM     21  C   UNL     1      -1.474  10.109  17.653  0.00  0.00    +0.000 A 
ENDBRANCH  14  15
ENDBRANCH  12  14
ENDBRANCH   8   9
ENDBRANCH   1   8
BRANCH   2  22
ATOM     22  O   UNL     1       1.526   3.772  20.231  0.00  0.00    +0.000 OA
ATOM     23  H   UNL     1       1.013   3.624  19.410  0.00  0.00    +0.000 HD
ENDBRANCH   2  22
BRANCH   5  24
ATOM     24  C   UNL     1       6.252   4.488  18.821  0.00  0.00    +0.000 C 
BRANCH  24  25
ATOM     25  C   UNL     1       6.521   4.059  17.373  0.00  0.00    +0.000 C 
BRANCH  25  26
ATOM     26  N   UNL     1       7.322   4.999  16.561  0.00  0.00    +0.000 NA
ATOM     27  C   UNL     1       6.874   6.387  16.859  0.00  0.00    +0.000 C 
ATOM     28  C   UNL     1       5.473   6.725  16.305  0.00  0.00    +0.000 C 
ATOM     29  O   UNL     1       5.394   6.485  14.894  0.00  0.00    +0.000 OA
ATOM     30  C   UNL     1       5.747   5.131  14.581  0.00  0.00    +0.000 C 
ATOM     31  C   UNL     1       7.155   4.795  15.102  0.00  0.00    +0.000 C 
ENDBRANCH  25  26
ENDBRANCH  24  25
ENDBRANCH   5  24
TORSDOF 8
ENDMDL
MODEL 9
REMARK VINA RESULT:      -7.5      5.516      7.931
REMARK  Name = 
REMARK  8 active torsions:
REMARK  status: ('A' for Active; 'I' for Inactive)
REMARK    1  A    between atoms: C_2  and  C_3
REMARK    2  A    between atoms: C_2  and  C_18
REMARK    3  A    between atoms: C_4  and  O_5
REMARK    4  A    between atoms: N_8  and  C_9
REMARK    5  A    between atoms: C_9  and  C_10
REMARK    6  A    between atoms: C_10  and  N_11
REMARK    7  A    between atoms: C_21  and  C_22
REMARK    8  A    between atoms: C_22  and  C_23
REMARK                            x       y       z     vdW  Elec       q    Type
REMARK                         _______ _______ _______ _____ _____    ______ ____
ROOT
ATOM      1  C   UNL     1       1.799   7.149  20.079  0.00  0.00    +0.000 C 
ATOM      2  C   UNL     1       2.051   7.887  18.988  0.00  0.00    +0.000 C 
ATOM      3  C   UNL     1       1.591   9.265  19.286  0.00  0.00    +0.000 C 
ATOM      4  O   UNL     1       1.747  10.232  18.565  0.00  0.00    +0.000 OA
ATOM      5  N   UNL     1       0.968   9.213  20.527  0.00  0.00    +0.000 N 
ATOM      6  C   UNL     1       1.156   7.937  21.156  0.00  0.00    +0.000 C 
ENDROOT
BRANCH   1   8
ATOM      7  O   UNL     1       2.127   5.203  21.310  0.00  0.00    +0.000 OA
ATOM      8  C   UNL     1       2.138   5.713  20.185  0.00  0.00    +0.000 C 
BRANCH   8   9
ATOM      9  C   UNL     1       2.464   4.959  18.989  0.00  0.00    +0.000 A 
ATOM     10  C   UNL     1       1.678   4.153  18.188  0.00  0.00    +0.000 A 
ATOM     11  C   UNL     1       2.511   3.666  17.149  0.00  0.00    +0.000 A 
ATOM     12  C   UNL     1       3.761   4.202  17.368  0.00  0.00    +0.000 A 
ATOM     13  O   UNL     1       3.734   4.981  18.482  0.00  0.00    +0.000 OA
BRANCH  12  14
ATOM     14  C   UNL     1       5.069   4.101  16.661  0.00  0.00    +0.000 C 
BRANCH  14  15
ATOM     15  C   UNL     1       6.081   5.096  17.181  0.00  0.00    +0.000 A 
ATOM     16  C   UNL     1       7.016   4.721  18.161  0.00  0.00    +0.000 A 
ATOM     17  C   UNL     1       7.899   5.665  18.691  0.00  0.00    +0.000 A 
ATOM     18  C   UNL     1       7.848   6.979  18.244  0.00  0.00    +0.000 A 
ATOM     19  F   UNL     1       8.678   7.888  18.771  0.00  0.00    +0.000 F 
ATOM     20  C   UNL     1       6.943   7.367  17.264  0.00  0.00    +0.000 A 
ATOM     21  C   UNL     1       6.059   6.428  16.731  0.00  0.00    +0.000 A 
ENDBRANCH  14  15
ENDBRANCH  12  14
ENDBRANCH   8   9
ENDBRANCH   1   8
BRANCH   2  22
ATOM     22  O   UNL     1       2.632   7.514  17.809  0.00  0.00    +0.000 OA
ATOM     23  H   UNL     1       2.821   8.330  17.301  0.00  0.00    +0.000 HD
ENDBRANCH   2  22
BRANCH   5  24
ATOM     24  C   UNL     1       0.515  10.354  21.314  0.00  0.00    +0.000 C 
BRANCH  24  25
ATOM     25  C   UNL     1      -0.645  11.120  20.665  0.00  0.00    +0.000 C 
BRANCH  25  26
ATOM     26  N   UNL     1      -0.796  12.531  21.076  0.00  0.00    +0.000 NA
ATOM     27  C   UNL     1      -0.975  12.580  22.554  0.00  0.00    +0.000 C 
ATOM     28  C   UNL     1      -2.340  12.041  23.036  0.00  0.00    +0.000 C 
ATOM     29  O   UNL     1      -3.428  12.719  22.395  0.00  0.00    +0.000 OA
ATOM     30  C   UNL     1      -3.324  12.626  20.968  0.00  0.00    +0.000 C 
ATOM     31  C   UNL     1      -1.981  13.190  20.476  0.00  0.00    +0.000 C 
ENDBRANCH  25  26
ENDBRANCH  24  25
ENDBRANCH   5  24
TORSDOF 8
ENDMDL
