MODEL 1
REMARK VINA RESULT:      -7.5      0.000      0.000
REMARK  Name = 
REMARK  3 active torsions:
REMARK  status: ('A' for Active; 'I' for Inactive)
REMARK    1  A    between atoms: N_3  and  N_4
REMARK    2  A    between atoms: C_5  and  C_7
REMARK    3  A    between atoms: N_17  and  C_18
REMARK                            x       y       z     vdW  Elec       q    Type
REMARK                         _______ _______ _______ _____ _____    ______ ____
ROOT
ATOM      1  N   UNL     1       0.842   8.338  20.902  0.00  0.00    +0.000 N 
ATOM      2  C   UNL     1       0.957   9.363  21.822  0.00  0.00    +0.000 C 
ATOM      3  O   UNL     1       1.871   9.313  22.653  0.00  0.00    +0.000 OA
ATOM      4  H   UNL     1       0.229   8.377  20.087  0.00  0.00    +0.000 HD
ENDROOT
BRANCH   2   5
ATOM      5  C   UNL     1      -0.027  10.434  21.751  0.00  0.00    +0.000 A 
ATOM      6  S   UNL     1      -1.018  10.679  23.131  0.00  0.00    +0.000 S 
ATOM      7  C   UNL     1      -1.904  11.949  22.397  0.00  0.00    +0.000 A 
ATOM      8  C   UNL     1      -2.966  12.674  22.974  0.00  0.00    +0.000 A 
ATOM      9  C   UNL     1      -3.584  13.679  22.229  0.00  0.00    +0.000 A 
ATOM     10  C   UNL     1      -3.156  13.964  20.942  0.00  0.00    +0.000 A 
ATOM     11  C   UNL     1      -2.098  13.243  20.377  0.00  0.00    +0.000 A 
ATOM     12  C   UNL     1      -1.449  12.209  21.104  0.00  0.00    +0.000 A 
ATOM     13  C   UNL     1      -0.357  11.329  20.751  0.00  0.00    +0.000 A 
ATOM     14 CL   UNL     1       0.392  11.440  19.203  0.00  0.00    +0.000 Cl
ENDBRANCH   2   5
BRANCH   1  17
ATOM     15  O   UNL     1       2.055   7.502  18.662  0.00  0.00    +0.000 OA
ATOM     16  C   UNL     1       2.406   6.984  19.718  0.00  0.00    +0.000 C 
ATOM     17  N   UNL     1       1.804   7.308  20.923  0.00  0.00    +0.000 N 
ATOM     18  N   UNL     1       3.346   5.985  19.885  0.00  0.00    +0.000 N 
ATOM     19  H   UNL     1       2.389   7.316  21.759  0.00  0.00    +0.000 HD
ATOM     20  H   UNL     1       3.290   5.492  20.764  0.00  0.00    +0.000 HD
BRANCH  18  21
ATOM     21  C   UNL     1       4.102   5.377  18.865  0.00  0.00    +0.000 A 
ATOM     22  C   UNL     1       5.473   5.586  18.697  0.00  0.00    +0.000 A 
ATOM     23  C   UNL     1       6.148   5.019  17.612  0.00  0.00    +0.000 A 
ATOM     24  C   UNL     1       5.454   4.235  16.695  0.00  0.00    +0.000 A 
ATOM     25 CL   UNL     1       6.272   3.590  15.327  0.00  0.00    +0.000 Cl
ATOM     26  C   UNL     1       4.097   3.979  16.877  0.00  0.00    +0.000 A 
ATOM     27  C   UNL     1       3.426   4.538  17.969  0.00  0.00    +0.000 A 
ENDBRANCH  18  21
ENDBRANCH   1  17
TORSDOF 3
ENDMDL
MODEL 2
REMARK VINA RESULT:      -7.5      7.975      9.169
REMARK  Name = 
REMARK  3 active torsions:
REMARK  status: ('A' for Active; 'I' for Inactive)
REMARK    1  A    between atoms: N_3  and  N_4
REMARK    2  A    between atoms: C_5  and  C_7
REMARK    3  A    between atoms: N_17  and  C_18
REMARK                            x       y       z     vdW  Elec       q    Type
REMARK                         _______ _______ _______ _____ _____    ______ ____
ROOT
ATOM      1  N   UNL     1       9.302  10.535  18.552  0.00  0.00    +0.000 N 
ATOM      2  C   UNL     1       9.467  11.504  19.525  0.00  0.00    +0.000 C 
ATOM      3  O   UNL     1       9.424  11.163  20.712  0.00  0.00    +0.000 OA
ATOM      4  H   UNL     1       9.484  10.695  17.560  0.00  0.00    +0.000 HD
ENDROOT
BRANCH   2   5
ATOM      5  C   UNL     1       9.669  12.873  19.072  0.00  0.00    +0.000 A 
ATOM      6  S   UNL     1       8.574  14.060  19.656  0.00  0.00    +0.000 S 
ATOM      7  C   UNL     1       9.303  15.323  18.757  0.00  0.00    +0.000 A 
ATOM      8  C   UNL     1       8.900  16.673  18.728  0.00  0.00    +0.000 A 
ATOM      9  C   UNL     1       9.607  17.575  17.932  0.00  0.00    +0.000 A 
ATOM     10  C   UNL     1      10.694  17.149  17.184  0.00  0.00    +0.000 A 
ATOM     11  C   UNL     1      11.091  15.808  17.221  0.00  0.00    +0.000 A 
ATOM     12  C   UNL     1      10.391  14.861  18.016  0.00  0.00    +0.000 A 
ATOM     13  C   UNL     1      10.593  13.444  18.218  0.00  0.00    +0.000 A 
ATOM     14 CL   UNL     1      11.875  12.618  17.416  0.00  0.00    +0.000 Cl
ENDBRANCH   2   5
BRANCH   1  17
ATOM     15  O   UNL     1       7.483   8.926  17.417  0.00  0.00    +0.000 OA
ATOM     16  C   UNL     1       8.208   8.435  18.277  0.00  0.00    +0.000 C 
ATOM     17  N   UNL     1       9.143   9.196  18.960  0.00  0.00    +0.000 N 
ATOM     18  N   UNL     1       8.177   7.140  18.756  0.00  0.00    +0.000 N 
ATOM     19  H   UNL     1      10.020   8.746  19.224  0.00  0.00    +0.000 HD
ATOM     20  H   UNL     1       8.636   7.004  19.644  0.00  0.00    +0.000 HD
BRANCH  18  21
ATOM     21  C   UNL     1       7.306   6.118  18.330  0.00  0.00    +0.000 A 
ATOM     22  C   UNL     1       7.208   5.698  17.001  0.00  0.00    +0.000 A 
ATOM     23  C   UNL     1       6.262   4.736  16.631  0.00  0.00    +0.000 A 
ATOM     24  C   UNL     1       5.417   4.188  17.591  0.00  0.00    +0.000 A 
ATOM     25 CL   UNL     1       4.212   3.053  17.124  0.00  0.00    +0.000 Cl
ATOM     26  C   UNL     1       5.537   4.563  18.927  0.00  0.00    +0.000 A 
ATOM     27  C   UNL     1       6.491   5.516  19.297  0.00  0.00    +0.000 A 
ENDBRANCH  18  21
ENDBRANCH   1  17
TORSDOF 3
ENDMDL
MODEL 3
REMARK VINA RESULT:      -7.4      7.948      9.162
REMARK  Name = 
REMARK  3 active torsions:
REMARK  status: ('A' for Active; 'I' for Inactive)
REMARK    1  A    between atoms: N_3  and  N_4
REMARK    2  A    between atoms: C_5  and  C_7
REMARK    3  A    between atoms: N_17  and  C_18
REMARK                            x       y       z     vdW  Elec       q    Type
REMARK                         _______ _______ _______ _____ _____    ______ ____
ROOT
ATOM      1  N   UNL     1       9.197  10.140  18.446  0.00  0.00    +0.000 N 
ATOM      2  C   UNL     1       9.422  11.094  19.421  0.00  0.00    +0.000 C 
ATOM      3  O   UNL     1       9.405  10.744  20.606  0.00  0.00    +0.000 OA
ATOM      4  H   UNL     1       9.354  10.302  17.450  0.00  0.00    +0.000 HD
ENDROOT
BRANCH   2   5
ATOM      5  C   UNL     1       9.655  12.460  18.973  0.00  0.00    +0.000 A 
ATOM      6  S   UNL     1      10.714  12.677  17.639  0.00  0.00    +0.000 S 
ATOM      7  C   UNL     1      10.583  14.385  17.681  0.00  0.00    +0.000 A 
ATOM      8  C   UNL     1      11.233  15.298  16.827  0.00  0.00    +0.000 A 
ATOM      9  C   UNL     1      11.017  16.665  17.004  0.00  0.00    +0.000 A 
ATOM     10  C   UNL     1      10.171  17.118  18.004  0.00  0.00    +0.000 A 
ATOM     11  C   UNL     1       9.525  16.207  18.846  0.00  0.00    +0.000 A 
ATOM     12  C   UNL     1       9.725  14.807  18.697  0.00  0.00    +0.000 A 
ATOM     13  C   UNL     1       9.191  13.680  19.428  0.00  0.00    +0.000 A 
ATOM     14 CL   UNL     1       8.102  13.923  20.741  0.00  0.00    +0.000 Cl
ENDBRANCH   2   5
BRANCH   1  17
ATOM     15  O   UNL     1       7.281   8.605  17.368  0.00  0.00    +0.000 OA
ATOM     16  C   UNL     1       8.021   8.082  18.195  0.00  0.00    +0.000 C 
ATOM     17  N   UNL     1       9.008   8.803  18.848  0.00  0.00    +0.000 N 
ATOM     18  N   UNL     1       7.963   6.784  18.663  0.00  0.00    +0.000 N 
ATOM     19  H   UNL     1       9.878   8.321  19.074  0.00  0.00    +0.000 HD
ATOM     20  H   UNL     1       8.451   6.623  19.532  0.00  0.00    +0.000 HD
BRANCH  18  21
ATOM     21  C   UNL     1       7.042   5.796  18.263  0.00  0.00    +0.000 A 
ATOM     22  C   UNL     1       6.996   5.271  16.969  0.00  0.00    +0.000 A 
ATOM     23  C   UNL     1       6.000   4.354  16.613  0.00  0.00    +0.000 A 
ATOM     24  C   UNL     1       5.054   3.956  17.553  0.00  0.00    +0.000 A 
ATOM     25 CL   UNL     1       3.794   2.879  17.096  0.00  0.00    +0.000 Cl
ATOM     26  C   UNL     1       5.119   4.437  18.858  0.00  0.00    +0.000 A 
ATOM     27  C   UNL     1       6.120   5.344  19.216  0.00  0.00    +0.000 A 
ENDBRANCH  18  21
ENDBRANCH   1  17
TORSDOF 3
ENDMDL
MODEL 4
REMARK VINA RESULT:      -7.4      3.132     10.010
REMARK  Name = 
REMARK  3 active torsions:
REMARK  status: ('A' for Active; 'I' for Inactive)
REMARK    1  A    between atoms: N_3  and  N_4
REMARK    2  A    between atoms: C_5  and  C_7
REMARK    3  A    between atoms: N_17  and  C_18
REMARK                            x       y       z     vdW  Elec       q    Type
REMARK                         _______ _______ _______ _____ _____    ______ ____
ROOT
ATOM      1  N   UNL     1       3.275   6.313  18.694  0.00  0.00    +0.000 N 
ATOM      2  C   UNL     1       4.522   5.716  18.670  0.00  0.00    +0.000 C 
ATOM      3  O   UNL     1       5.139   5.593  19.734  0.00  0.00    +0.000 OA
ATOM      4  H   UNL     1       2.631   6.308  17.901  0.00  0.00    +0.000 HD
ENDROOT
BRANCH   2   5
ATOM      5  C   UNL     1       5.027   5.283  17.374  0.00  0.00    +0.000 A 
ATOM      6  S   UNL     1       6.457   6.040  16.799  0.00  0.00    +0.000 S 
ATOM      7  C   UNL     1       6.452   5.164  15.327  0.00  0.00    +0.000 A 
ATOM      8  C   UNL     1       7.387   5.279  14.279  0.00  0.00    +0.000 A 
ATOM      9  C   UNL     1       7.229   4.488  13.140  0.00  0.00    +0.000 A 
ATOM     10  C   UNL     1       6.171   3.598  13.044  0.00  0.00    +0.000 A 
ATOM     11  C   UNL     1       5.249   3.487  14.090  0.00  0.00    +0.000 A 
ATOM     12  C   UNL     1       5.375   4.280  15.262  0.00  0.00    +0.000 A 
ATOM     13  C   UNL     1       4.567   4.356  16.459  0.00  0.00    +0.000 A 
ATOM     14 CL   UNL     1       3.169   3.365  16.637  0.00  0.00    +0.000 Cl
ENDBRANCH   2   5
BRANCH   1  17
ATOM     15  O   UNL     1       1.822   8.550  18.959  0.00  0.00    +0.000 OA
ATOM     16  C   UNL     1       1.968   7.854  19.958  0.00  0.00    +0.000 C 
ATOM     17  N   UNL     1       2.744   6.706  19.938  0.00  0.00    +0.000 N 
ATOM     18  N   UNL     1       1.488   8.107  21.229  0.00  0.00    +0.000 N 
ATOM     19  H   UNL     1       2.447   5.921  20.518  0.00  0.00    +0.000 HD
ATOM     20  H   UNL     1       1.944   7.588  21.966  0.00  0.00    +0.000 HD
BRANCH  18  21
ATOM     21  C   UNL     1       0.716   9.217  21.620  0.00  0.00    +0.000 A 
ATOM     22  C   UNL     1       0.795  10.464  20.994  0.00  0.00    +0.000 A 
ATOM     23  C   UNL     1       0.063  11.550  21.486  0.00  0.00    +0.000 A 
ATOM     24  C   UNL     1      -0.754  11.389  22.601  0.00  0.00    +0.000 A 
ATOM     25 CL   UNL     1      -1.603  12.739  23.243  0.00  0.00    +0.000 Cl
ATOM     26  C   UNL     1      -0.878  10.140  23.205  0.00  0.00    +0.000 A 
ATOM     27  C   UNL     1      -0.154   9.053  22.705  0.00  0.00    +0.000 A 
ENDBRANCH  18  21
ENDBRANCH   1  17
TORSDOF 3
ENDMDL
MODEL 5
REMARK VINA RESULT:      -7.3      0.676      1.069
REMARK  Name = 
REMARK  3 active torsions:
REMARK  status: ('A' for Active; 'I' for Inactive)
REMARK    1  A    between atoms: N_3  and  N_4
REMARK    2  A    between atoms: C_5  and  C_7
REMARK    3  A    between atoms: N_17  and  C_18
REMARK                            x       y       z     vdW  Elec       q    Type
REMARK                         _______ _______ _______ _____ _____    ______ ____
ROOT
ATOM      1  N   UNL     1       0.970   8.590  20.845  0.00  0.00    +0.000 N 
ATOM      2  C   UNL     1       1.105   9.508  21.871  0.00  0.00    +0.000 C 
ATOM      3  O   UNL     1       2.043   9.374  22.665  0.00  0.00    +0.000 OA
ATOM      4  H   UNL     1       0.333   8.714  20.057  0.00  0.00    +0.000 HD
ENDROOT
BRANCH   2   5
ATOM      5  C   UNL     1       0.113  10.570  21.947  0.00  0.00    +0.000 A 
ATOM      6  S   UNL     1      -1.065  10.453  23.190  0.00  0.00    +0.000 S 
ATOM      7  C   UNL     1      -1.875  11.882  22.700  0.00  0.00    +0.000 A 
ATOM      8  C   UNL     1      -3.025  12.441  23.293  0.00  0.00    +0.000 A 
ATOM      9  C   UNL     1      -3.560  13.613  22.760  0.00  0.00    +0.000 A 
ATOM     10  C   UNL     1      -2.967  14.223  21.665  0.00  0.00    +0.000 A 
ATOM     11  C   UNL     1      -1.823  13.665  21.084  0.00  0.00    +0.000 A 
ATOM     12  C   UNL     1      -1.253  12.469  21.597  0.00  0.00    +0.000 A 
ATOM     13  C   UNL     1      -0.101  11.701  21.181  0.00  0.00    +0.000 A 
ATOM     14 CL   UNL     1       0.851  12.208  19.837  0.00  0.00    +0.000 Cl
ENDBRANCH   2   5
BRANCH   1  17
ATOM     15  O   UNL     1       1.845   7.760  18.451  0.00  0.00    +0.000 OA
ATOM     16  C   UNL     1       2.357   7.252  19.443  0.00  0.00    +0.000 C 
ATOM     17  N   UNL     1       1.939   7.574  20.724  0.00  0.00    +0.000 N 
ATOM     18  N   UNL     1       3.326   6.267  19.470  0.00  0.00    +0.000 N 
ATOM     19  H   UNL     1       2.642   7.594  21.463  0.00  0.00    +0.000 HD
ATOM     20  H   UNL     1       3.410   5.778  20.349  0.00  0.00    +0.000 HD
BRANCH  18  21
ATOM     21  C   UNL     1       3.929   5.664  18.350  0.00  0.00    +0.000 A 
ATOM     22  C   UNL     1       3.723   4.328  17.994  0.00  0.00    +0.000 A 
ATOM     23  C   UNL     1       4.419   3.767  16.918  0.00  0.00    +0.000 A 
ATOM     24  C   UNL     1       5.318   4.542  16.193  0.00  0.00    +0.000 A 
ATOM     25 CL   UNL     1       6.220   3.835  14.912  0.00  0.00    +0.000 Cl
ATOM     26  C   UNL     1       5.497   5.887  16.507  0.00  0.00    +0.000 A 
ATOM     27  C   UNL     1       4.792   6.450  17.576  0.00  0.00    +0.000 A 
ENDBRANCH  18  21
ENDBRANCH   1  17
TORSDOF 3
ENDMDL
MODEL 6
REMARK VINA RESULT:      -7.3      7.885      9.122
REMARK  Name = 
REMARK  3 active torsions:
REMARK  status: ('A' for Active; 'I' for Inactive)
REMARK    1  A    between atoms: N_3  and  N_4
REMARK    2  A    between atoms: C_5  and  C_7
REMARK    3  A    between atoms: N_17  and  C_18
REMARK                            x       y       z     vdW  Elec       q    Type
REMARK                         _______ _______ _______ _____ _____    ______ ____
ROOT
ATOM      1  N   UNL     1       9.292  10.224  18.525  0.00  0.00    +0.000 N 
ATOM      2  C   UNL     1       9.490  11.163  19.520  0.00  0.00    +0.000 C 
ATOM      3  O   UNL     1       9.420  10.798  20.699  0.00  0.00    +0.000 OA
ATOM      4  H   UNL     1       9.491  10.397  17.538  0.00  0.00    +0.000 HD
ENDROOT
BRANCH   2   5
ATOM      5  C   UNL     1       9.757  12.531  19.100  0.00  0.00    +0.000 A 
ATOM      6  S   UNL     1      11.134  13.302  19.775  0.00  0.00    +0.000 S 
ATOM      7  C   UNL     1      10.838  14.778  18.955  0.00  0.00    +0.000 A 
ATOM      8  C   UNL     1      11.607  15.955  19.042  0.00  0.00    +0.000 A 
ATOM      9  C   UNL     1      11.218  17.075  18.307  0.00  0.00    +0.000 A 
ATOM     10  C   UNL     1      10.094  17.028  17.498  0.00  0.00    +0.000 A 
ATOM     11  C   UNL     1       9.336  15.855  17.413  0.00  0.00    +0.000 A 
ATOM     12  C   UNL     1       9.700  14.696  18.152  0.00  0.00    +0.000 A 
ATOM     13  C   UNL     1       9.093  13.387  18.242  0.00  0.00    +0.000 A 
ATOM     14 CL   UNL     1       7.668  13.019  17.346  0.00  0.00    +0.000 Cl
ENDBRANCH   2   5
BRANCH   1  17
ATOM     15  O   UNL     1       7.387   8.735  17.368  0.00  0.00    +0.000 OA
ATOM     16  C   UNL     1       8.093   8.188  18.209  0.00  0.00    +0.000 C 
ATOM     17  N   UNL     1       9.071   8.884  18.902  0.00  0.00    +0.000 N 
ATOM     18  N   UNL     1       8.002   6.884  18.656  0.00  0.00    +0.000 N 
ATOM     19  H   UNL     1       9.926   8.386  19.146  0.00  0.00    +0.000 HD
ATOM     20  H   UNL     1       8.461   6.704  19.536  0.00  0.00    +0.000 HD
BRANCH  18  21
ATOM     21  C   UNL     1       7.078   5.917  18.213  0.00  0.00    +0.000 A 
ATOM     22  C   UNL     1       7.098   5.370  16.928  0.00  0.00    +0.000 A 
ATOM     23  C   UNL     1       6.100   4.476  16.525  0.00  0.00    +0.000 A 
ATOM     24  C   UNL     1       5.084   4.124  17.408  0.00  0.00    +0.000 A 
ATOM     25 CL   UNL     1       3.824   3.076  16.890  0.00  0.00    +0.000 Cl
ATOM     26  C   UNL     1       5.080   4.626  18.707  0.00  0.00    +0.000 A 
ATOM     27  C   UNL     1       6.084   5.510  19.113  0.00  0.00    +0.000 A 
ENDBRANCH  18  21
ENDBRANCH   1  17
TORSDOF 3
ENDMDL
MODEL 7
REMARK VINA RESULT:      -7.3      2.717      9.811
REMARK  Name = 
REMARK  3 active torsions:
REMARK  status: ('A' for Active; 'I' for Inactive)
REMARK    1  A    between atoms: N_3  and  N_4
REMARK    2  A    between atoms: C_5  and  C_7
REMARK    3  A    between atoms: N_17  and  C_18
REMARK                            x       y       z     vdW  Elec       q    Type
REMARK                         _______ _______ _______ _____ _____    ______ ____
ROOT
ATOM      1  N   UNL     1       2.694   7.056  19.665  0.00  0.00    +0.000 N 
ATOM      2  C   UNL     1       3.103   5.737  19.595  0.00  0.00    +0.000 C 
ATOM      3  O   UNL     1       2.752   4.961  20.490  0.00  0.00    +0.000 OA
ATOM      4  H   UNL     1       2.797   7.721  18.896  0.00  0.00    +0.000 HD
ENDROOT
BRANCH   2   5
ATOM      5  C   UNL     1       3.938   5.360  18.463  0.00  0.00    +0.000 A 
ATOM      6  S   UNL     1       5.444   6.166  18.298  0.00  0.00    +0.000 S 
ATOM      7  C   UNL     1       5.845   5.340  16.850  0.00  0.00    +0.000 A 
ATOM      8  C   UNL     1       7.015   5.510  16.083  0.00  0.00    +0.000 A 
ATOM      9  C   UNL     1       7.179   4.755  14.922  0.00  0.00    +0.000 A 
ATOM     10  C   UNL     1       6.208   3.847  14.531  0.00  0.00    +0.000 A 
ATOM     11  C   UNL     1       5.050   3.680  15.299  0.00  0.00    +0.000 A 
ATOM     12  C   UNL     1       4.847   4.436  16.485  0.00  0.00    +0.000 A 
ATOM     13  C   UNL     1       3.756   4.454  17.434  0.00  0.00    +0.000 A 
ATOM     14 CL   UNL     1       2.389   3.428  17.218  0.00  0.00    +0.000 Cl
ENDBRANCH   2   5
BRANCH   1  17
ATOM     15  O   UNL     1       1.371   9.387  19.638  0.00  0.00    +0.000 OA
ATOM     16  C   UNL     1       1.179   8.644  20.595  0.00  0.00    +0.000 C 
ATOM     17  N   UNL     1       1.854   7.441  20.729  0.00  0.00    +0.000 N 
ATOM     18  N   UNL     1       0.370   8.884  21.689  0.00  0.00    +0.000 N 
ATOM     19  H   UNL     1       1.354   6.660  21.153  0.00  0.00    +0.000 HD
ATOM     20  H   UNL     1       0.561   8.304  22.493  0.00  0.00    +0.000 HD
BRANCH  18  21
ATOM     21  C   UNL     1      -0.410  10.035  21.909  0.00  0.00    +0.000 A 
ATOM     22  C   UNL     1      -0.950  10.370  23.153  0.00  0.00    +0.000 A 
ATOM     23  C   UNL     1      -1.787  11.482  23.285  0.00  0.00    +0.000 A 
ATOM     24  C   UNL     1      -2.082  12.266  22.174  0.00  0.00    +0.000 A 
ATOM     25 CL   UNL     1      -3.162  13.595  22.325  0.00  0.00    +0.000 Cl
ATOM     26  C   UNL     1      -1.512  11.971  20.937  0.00  0.00    +0.000 A 
ATOM     27  C   UNL     1      -0.666  10.865  20.809  0.00  0.00    +0.000 A 
ENDBRANCH  18  21
ENDBRANCH   1  17
TORSDOF 3
ENDMDL
MODEL 8
REMARK VINA RESULT:      -7.2      2.637      9.617
REMARK  Name = 
REMARK  3 active torsions:
REMARK  status: ('A' for Active; 'I' for Inactive)
REMARK    1  A    between atoms: N_3  and  N_4
REMARK    2  A    between atoms: C_5  and  C_7
REMARK    3  A    between atoms: N_17  and  C_18
REMARK                            x       y       z     vdW  Elec       q    Type
REMARK                         _______ _______ _______ _____ _____    ______ ____
ROOT
ATOM      1  N   UNL     1       1.743   7.784  21.094  0.00  0.00    +0.000 N 
ATOM      2  C   UNL     1       2.087   7.577  19.771  0.00  0.00    +0.000 C 
ATOM      3  O   UNL     1       2.101   8.547  19.004  0.00  0.00    +0.000 OA
ATOM      4  H   UNL     1       1.863   7.081  21.825  0.00  0.00    +0.000 HD
ENDROOT
BRANCH   2   5
ATOM      5  C   UNL     1       2.399   6.212  19.370  0.00  0.00    +0.000 A 
ATOM      6  S   UNL     1       1.690   4.946  20.289  0.00  0.00    +0.000 S 
ATOM      7  C   UNL     1       2.461   3.715  19.378  0.00  0.00    +0.000 A 
ATOM      8  C   UNL     1       2.349   2.325  19.583  0.00  0.00    +0.000 A 
ATOM      9  C   UNL     1       3.054   1.459  18.747  0.00  0.00    +0.000 A 
ATOM     10  C   UNL     1       3.848   1.957  17.726  0.00  0.00    +0.000 A 
ATOM     11  C   UNL     1       3.951   3.338  17.526  0.00  0.00    +0.000 A 
ATOM     12  C   UNL     1       3.251   4.251  18.361  0.00  0.00    +0.000 A 
ATOM     13  C   UNL     1       3.196   5.696  18.367  0.00  0.00    +0.000 A 
ATOM     14 CL   UNL     1       4.087   6.611  17.210  0.00  0.00    +0.000 Cl
ENDBRANCH   2   5
BRANCH   1  17
ATOM     15  O   UNL     1      -0.757   8.744  21.200  0.00  0.00    +0.000 OA
ATOM     16  C   UNL     1       0.144   9.483  21.582  0.00  0.00    +0.000 C 
ATOM     17  N   UNL     1       1.475   9.100  21.518  0.00  0.00    +0.000 N 
ATOM     18  N   UNL     1       0.022  10.780  22.039  0.00  0.00    +0.000 N 
ATOM     19  H   UNL     1       2.098   9.423  22.259  0.00  0.00    +0.000 HD
ATOM     20  H   UNL     1       0.878  11.317  22.030  0.00  0.00    +0.000 HD
BRANCH  18  21
ATOM     21  C   UNL     1      -1.178  11.505  22.172  0.00  0.00    +0.000 A 
ATOM     22  C   UNL     1      -1.916  11.556  23.358  0.00  0.00    +0.000 A 
ATOM     23  C   UNL     1      -3.144  12.224  23.398  0.00  0.00    +0.000 A 
ATOM     24  C   UNL     1      -3.633  12.849  22.255  0.00  0.00    +0.000 A 
ATOM     25 CL   UNL     1      -5.172  13.615  22.289  0.00  0.00    +0.000 Cl
ATOM     26  C   UNL     1      -2.884  12.846  21.080  0.00  0.00    +0.000 A 
ATOM     27  C   UNL     1      -1.652  12.187  21.044  0.00  0.00    +0.000 A 
ENDBRANCH  18  21
ENDBRANCH   1  17
TORSDOF 3
ENDMDL
MODEL 9
REMARK VINA RESULT:      -7.2      3.167      9.983
REMARK  Name = 
REMARK  3 active torsions:
REMARK  status: ('A' for Active; 'I' for Inactive)
REMARK    1  A    between atoms: N_3  and  N_4
REMARK    2  A    between atoms: C_5  and  C_7
REMARK    3  A    between atoms: N_17  and  C_18
REMARK                            x       y       z     vdW  Elec       q    Type
REMARK                         _______ _______ _______ _____ _____    ______ ____
ROOT
ATOM      1  N   UNL     1       3.354   6.315  18.642  0.00  0.00    +0.000 N 
ATOM      2  C   UNL     1       4.616   5.751  18.600  0.00  0.00    +0.000 C 
ATOM      3  O   UNL     1       5.218   5.569  19.664  0.00  0.00    +0.000 OA
ATOM      4  H   UNL     1       2.724   6.350  17.839  0.00  0.00    +0.000 HD
ENDROOT
BRANCH   2   5
ATOM      5  C   UNL     1       5.153   5.421  17.287  0.00  0.00    +0.000 A 
ATOM      6  S   UNL     1       4.275   4.285  16.346  0.00  0.00    +0.000 S 
ATOM      7  C   UNL     1       5.406   4.323  15.058  0.00  0.00    +0.000 A 
ATOM      8  C   UNL     1       5.341   3.581  13.862  0.00  0.00    +0.000 A 
ATOM      9  C   UNL     1       6.356   3.729  12.916  0.00  0.00    +0.000 A 
ATOM     10  C   UNL     1       7.409   4.600  13.147  0.00  0.00    +0.000 A 
ATOM     11  C   UNL     1       7.465   5.337  14.335  0.00  0.00    +0.000 A 
ATOM     12  C   UNL     1       6.452   5.207  15.323  0.00  0.00    +0.000 A 
ATOM     13  C   UNL     1       6.284   5.839  16.612  0.00  0.00    +0.000 A 
ATOM     14 CL   UNL     1       7.442   6.979  17.187  0.00  0.00    +0.000 Cl
ENDBRANCH   2   5
BRANCH   1  17
ATOM     15  O   UNL     1       1.977   8.573  19.076  0.00  0.00    +0.000 OA
ATOM     16  C   UNL     1       2.060   7.779  20.007  0.00  0.00    +0.000 C 
ATOM     17  N   UNL     1       2.794   6.608  19.901  0.00  0.00    +0.000 N 
ATOM     18  N   UNL     1       1.545   7.928  21.280  0.00  0.00    +0.000 N 
ATOM     19  H   UNL     1       2.446   5.784  20.392  0.00  0.00    +0.000 HD
ATOM     20  H   UNL     1       1.953   7.324  21.978  0.00  0.00    +0.000 HD
BRANCH  18  21
ATOM     21  C   UNL     1       0.801   9.027  21.751  0.00  0.00    +0.000 A 
ATOM     22  C   UNL     1      -0.075   8.951  22.837  0.00  0.00    +0.000 A 
ATOM     23  C   UNL     1      -0.849  10.058  23.201  0.00  0.00    +0.000 A 
ATOM     24  C   UNL     1      -0.743  11.246  22.484  0.00  0.00    +0.000 A 
ATOM     25 CL   UNL     1      -1.740  12.586  22.892  0.00  0.00    +0.000 Cl
ATOM     26  C   UNL     1       0.162  11.349  21.429  0.00  0.00    +0.000 A 
ATOM     27  C   UNL     1       0.942  10.245  21.073  0.00  0.00    +0.000 A 
ENDBRANCH  18  21
ENDBRANCH   1  17
TORSDOF 3
ENDMDL
