MODEL 1
REMARK VINA RESULT:      -6.0      0.000      0.000
REMARK  Name = 
REMARK  10 active torsions:
REMARK  status: ('A' for Active; 'I' for Inactive)
REMARK    1  A    between atoms: C_1  and  C_2
REMARK    2  A    between atoms: C_2  and  C_3
REMARK    3  A    between atoms: C_3  and  C_4
REMARK    4  A    between atoms: C_4  and  C_5
REMARK    5  A    between atoms: C_5  and  C_6
REMARK    6  A    between atoms: C_6  and  O_7
REMARK    7  A    between atoms: O_7  and  C_8
REMARK    8  A    between atoms: C_8  and  N_9
REMARK    9  A    between atoms: C_13  and  C_14
REMARK   10  A    between atoms: N_15  and  O_16
REMARK                            x       y       z     vdW  Elec       q    Type
REMARK                         _______ _______ _______ _____ _____    ______ ____
ROOT
ATOM      1  N   UNL     1       4.588   5.133  17.020  0.00  0.00    +0.000 N 
ATOM      2  C   UNL     1       4.511   6.437  17.371  0.00  0.00    +0.000 A 
ATOM      3  C   UNL     1       3.345   6.937  17.944  0.00  0.00    +0.000 A 
ATOM      4  C   UNL     1       2.270   6.082  18.173  0.00  0.00    +0.000 A 
ATOM      5  C   UNL     1       2.384   4.744  17.813  0.00  0.00    +0.000 A 
ATOM      6  C   UNL     1       3.558   4.287  17.224  0.00  0.00    +0.000 A 
ENDROOT
BRANCH   5   7
ATOM      7  C   UNL     1       1.294   3.800  18.090  0.00  0.00    +0.000 C 
ATOM      8  N   UNL     1       1.491   2.525  17.991  0.00  0.00    +0.000 NA
BRANCH   8   9
ATOM      9  O   UNL     1       0.305   1.865  18.331  0.00  0.00    +0.000 OA
ATOM     10  H   UNL     1      -0.140   1.752  17.469  0.00  0.00    +0.000 HD
ENDBRANCH   8   9
ENDBRANCH   5   7
BRANCH   1  11
ATOM     11  C   UNL     1       5.839   4.598  16.470  0.00  0.00    +0.000 C 
BRANCH  11  12
ATOM     12  O   UNL     1       6.312   5.493  15.484  0.00  0.00    +0.000 OA
BRANCH  12  13
ATOM     13  C   UNL     1       6.831   4.807  14.340  0.00  0.00    +0.000 C 
BRANCH  13  14
ATOM     14  C   UNL     1       5.712   4.200  13.498  0.00  0.00    +0.000 C 
BRANCH  14  15
ATOM     15  C   UNL     1       6.275   3.297  12.397  0.00  0.00    +0.000 C 
BRANCH  15  16
ATOM     16  C   UNL     1       5.177   2.674  11.535  0.00  0.00    +0.000 C 
BRANCH  16  18
ATOM     17  C   UNL     1       3.039   3.144  10.281  0.00  0.00    +0.000 C 
ATOM     18  C   UNL     1       4.094   3.699  11.219  0.00  0.00    +0.000 C 
ENDBRANCH  16  18
ENDBRANCH  15  16
ENDBRANCH  14  15
ENDBRANCH  13  14
ENDBRANCH  12  13
ENDBRANCH  11  12
ENDBRANCH   1  11
TORSDOF 9
ENDMDL
MODEL 2
REMARK VINA RESULT:      -6.0      3.066      6.790
REMARK  Name = 
REMARK  10 active torsions:
REMARK  status: ('A' for Active; 'I' for Inactive)
REMARK    1  A    between atoms: C_1  and  C_2
REMARK    2  A    between atoms: C_2  and  C_3
REMARK    3  A    between atoms: C_3  and  C_4
REMARK    4  A    between atoms: C_4  and  C_5
REMARK    5  A    between atoms: C_5  and  C_6
REMARK    6  A    between atoms: C_6  and  O_7
REMARK    7  A    between atoms: O_7  and  C_8
REMARK    8  A    between atoms: C_8  and  N_9
REMARK    9  A    between atoms: C_13  and  C_14
REMARK   10  A    between atoms: N_15  and  O_16
REMARK                            x       y       z     vdW  Elec       q    Type
REMARK                         _______ _______ _______ _____ _____    ______ ____
ROOT
ATOM      1  N   UNL     1       4.787   4.167  16.762  0.00  0.00    +0.000 N 
ATOM      2  C   UNL     1       5.242   4.293  15.495  0.00  0.00    +0.000 A 
ATOM      3  C   UNL     1       6.522   4.786  15.260  0.00  0.00    +0.000 A 
ATOM      4  C   UNL     1       7.337   5.125  16.338  0.00  0.00    +0.000 A 
ATOM      5  C   UNL     1       6.846   4.971  17.628  0.00  0.00    +0.000 A 
ATOM      6  C   UNL     1       5.554   4.495  17.821  0.00  0.00    +0.000 A 
ENDROOT
BRANCH   5   7
ATOM      7  C   UNL     1       7.694   5.264  18.791  0.00  0.00    +0.000 C 
ATOM      8  N   UNL     1       7.217   5.168  19.990  0.00  0.00    +0.000 NA
BRANCH   8   9
ATOM      9  O   UNL     1       8.236   5.476  20.899  0.00  0.00    +0.000 OA
ATOM     10  H   UNL     1       7.907   6.286  21.333  0.00  0.00    +0.000 HD
ENDBRANCH   8   9
ENDBRANCH   5   7
BRANCH   1  11
ATOM     11  C   UNL     1       3.458   3.592  17.006  0.00  0.00    +0.000 C 
BRANCH  11  12
ATOM     12  O   UNL     1       2.708   4.514  17.771  0.00  0.00    +0.000 OA
BRANCH  12  13
ATOM     13  C   UNL     1       1.326   4.147  17.850  0.00  0.00    +0.000 C 
BRANCH  13  14
ATOM     14  C   UNL     1       1.019   3.398  19.144  0.00  0.00    +0.000 C 
BRANCH  14  15
ATOM     15  C   UNL     1       1.109   4.327  20.357  0.00  0.00    +0.000 C 
BRANCH  15  16
ATOM     16  C   UNL     1       2.180   3.884  21.353  0.00  0.00    +0.000 C 
BRANCH  16  18
ATOM     17  C   UNL     1       4.080   2.451  20.516  0.00  0.00    +0.000 C 
ATOM     18  C   UNL     1       2.656   2.470  21.038  0.00  0.00    +0.000 C 
ENDBRANCH  16  18
ENDBRANCH  15  16
ENDBRANCH  14  15
ENDBRANCH  13  14
ENDBRANCH  12  13
ENDBRANCH  11  12
ENDBRANCH   1  11
TORSDOF 9
ENDMDL
MODEL 3
REMARK VINA RESULT:      -5.9      1.723      2.278
REMARK  Name = 
REMARK  10 active torsions:
REMARK  status: ('A' for Active; 'I' for Inactive)
REMARK    1  A    between atoms: C_1  and  C_2
REMARK    2  A    between atoms: C_2  and  C_3
REMARK    3  A    between atoms: C_3  and  C_4
REMARK    4  A    between atoms: C_4  and  C_5
REMARK    5  A    between atoms: C_5  and  C_6
REMARK    6  A    between atoms: C_6  and  O_7
REMARK    7  A    between atoms: O_7  and  C_8
REMARK    8  A    between atoms: C_8  and  N_9
REMARK    9  A    between atoms: C_13  and  C_14
REMARK   10  A    between atoms: N_15  and  O_16
REMARK                            x       y       z     vdW  Elec       q    Type
REMARK                         _______ _______ _______ _____ _____    ______ ____
ROOT
ATOM      1  N   UNL     1       6.437   4.605  16.126  0.00  0.00    +0.000 N 
ATOM      2  C   UNL     1       7.169   4.974  17.201  0.00  0.00    +0.000 A 
ATOM      3  C   UNL     1       6.608   4.933  18.473  0.00  0.00    +0.000 A 
ATOM      4  C   UNL     1       5.298   4.489  18.634  0.00  0.00    +0.000 A 
ATOM      5  C   UNL     1       4.575   4.104  17.511  0.00  0.00    +0.000 A 
ATOM      6  C   UNL     1       5.164   4.179  16.254  0.00  0.00    +0.000 A 
ENDROOT
BRANCH   5   7
ATOM      7  C   UNL     1       3.211   3.577  17.645  0.00  0.00    +0.000 C 
ATOM      8  N   UNL     1       2.211   4.382  17.803  0.00  0.00    +0.000 NA
BRANCH   8   9
ATOM      9  O   UNL     1       1.038   3.623  17.878  0.00  0.00    +0.000 OA
ATOM     10  H   UNL     1       0.341   4.271  17.655  0.00  0.00    +0.000 HD
ENDBRANCH   8   9
ENDBRANCH   5   7
BRANCH   1  11
ATOM     11  C   UNL     1       7.051   4.595  14.792  0.00  0.00    +0.000 C 
BRANCH  11  12
ATOM     12  O   UNL     1       6.143   4.000  13.887  0.00  0.00    +0.000 OA
BRANCH  12  13
ATOM     13  C   UNL     1       6.621   4.046  12.539  0.00  0.00    +0.000 C 
BRANCH  13  14
ATOM     14  C   UNL     1       6.663   2.655  11.913  0.00  0.00    +0.000 C 
BRANCH  14  15
ATOM     15  C   UNL     1       5.308   2.276  11.311  0.00  0.00    +0.000 C 
BRANCH  15  16
ATOM     16  C   UNL     1       4.272   3.390  11.460  0.00  0.00    +0.000 C 
BRANCH  16  18
ATOM     17  C   UNL     1       2.923   4.344   9.554  0.00  0.00    +0.000 C 
ATOM     18  C   UNL     1       3.107   3.174  10.502  0.00  0.00    +0.000 C 
ENDBRANCH  16  18
ENDBRANCH  15  16
ENDBRANCH  14  15
ENDBRANCH  13  14
ENDBRANCH  12  13
ENDBRANCH  11  12
ENDBRANCH   1  11
TORSDOF 9
ENDMDL
MODEL 4
REMARK VINA RESULT:      -5.9      3.196      6.667
REMARK  Name = 
REMARK  10 active torsions:
REMARK  status: ('A' for Active; 'I' for Inactive)
REMARK    1  A    between atoms: C_1  and  C_2
REMARK    2  A    between atoms: C_2  and  C_3
REMARK    3  A    between atoms: C_3  and  C_4
REMARK    4  A    between atoms: C_4  and  C_5
REMARK    5  A    between atoms: C_5  and  C_6
REMARK    6  A    between atoms: C_6  and  O_7
REMARK    7  A    between atoms: O_7  and  C_8
REMARK    8  A    between atoms: C_8  and  N_9
REMARK    9  A    between atoms: C_13  and  C_14
REMARK   10  A    between atoms: N_15  and  O_16
REMARK                            x       y       z     vdW  Elec       q    Type
REMARK                         _______ _______ _______ _____ _____    ______ ____
ROOT
ATOM      1  N   UNL     1       4.775   3.503  18.547  0.00  0.00    +0.000 N 
ATOM      2  C   UNL     1       4.097   3.178  17.424  0.00  0.00    +0.000 A 
ATOM      3  C   UNL     1       4.346   3.860  16.237  0.00  0.00    +0.000 A 
ATOM      4  C   UNL     1       5.312   4.863  16.210  0.00  0.00    +0.000 A 
ATOM      5  C   UNL     1       6.001   5.166  17.378  0.00  0.00    +0.000 A 
ATOM      6  C   UNL     1       5.709   4.476  18.549  0.00  0.00    +0.000 A 
ENDROOT
BRANCH   5   7
ATOM      7  C   UNL     1       7.066   6.177  17.376  0.00  0.00    +0.000 C 
ATOM      8  N   UNL     1       6.781   7.428  17.204  0.00  0.00    +0.000 NA
BRANCH   8   9
ATOM      9  O   UNL     1       7.968   8.166  17.272  0.00  0.00    +0.000 OA
ATOM     10  H   UNL     1       8.273   8.010  18.186  0.00  0.00    +0.000 HD
ENDBRANCH   8   9
ENDBRANCH   5   7
BRANCH   1  11
ATOM     11  C   UNL     1       4.550   2.742  19.782  0.00  0.00    +0.000 C 
BRANCH  11  12
ATOM     12  O   UNL     1       3.163   2.497  19.909  0.00  0.00    +0.000 OA
BRANCH  12  13
ATOM     13  C   UNL     1       2.692   2.749  21.237  0.00  0.00    +0.000 C 
BRANCH  13  14
ATOM     14  C   UNL     1       2.136   4.164  21.374  0.00  0.00    +0.000 C 
BRANCH  14  15
ATOM     15  C   UNL     1       1.744   4.739  20.010  0.00  0.00    +0.000 C 
BRANCH  15  16
ATOM     16  C   UNL     1       2.474   6.045  19.697  0.00  0.00    +0.000 C 
BRANCH  16  18
ATOM     17  C   UNL     1       3.162   7.620  17.850  0.00  0.00    +0.000 C 
ATOM     18  C   UNL     1       2.387   6.366  18.209  0.00  0.00    +0.000 C 
ENDBRANCH  16  18
ENDBRANCH  15  16
ENDBRANCH  14  15
ENDBRANCH  13  14
ENDBRANCH  12  13
ENDBRANCH  11  12
ENDBRANCH   1  11
TORSDOF 9
ENDMDL
MODEL 5
REMARK VINA RESULT:      -5.8      3.368      5.998
REMARK  Name = 
REMARK  10 active torsions:
REMARK  status: ('A' for Active; 'I' for Inactive)
REMARK    1  A    between atoms: C_1  and  C_2
REMARK    2  A    between atoms: C_2  and  C_3
REMARK    3  A    between atoms: C_3  and  C_4
REMARK    4  A    between atoms: C_4  and  C_5
REMARK    5  A    between atoms: C_5  and  C_6
REMARK    6  A    between atoms: C_6  and  O_7
REMARK    7  A    between atoms: O_7  and  C_8
REMARK    8  A    between atoms: C_8  and  N_9
REMARK    9  A    between atoms: C_13  and  C_14
REMARK   10  A    between atoms: N_15  and  O_16
REMARK                            x       y       z     vdW  Elec       q    Type
REMARK                         _______ _______ _______ _____ _____    ______ ____
ROOT
ATOM      1  N   UNL     1       4.889   5.962  17.051  0.00  0.00    +0.000 N 
ATOM      2  C   UNL     1       5.160   5.448  15.830  0.00  0.00    +0.000 A 
ATOM      3  C   UNL     1       6.377   4.815  15.595  0.00  0.00    +0.000 A 
ATOM      4  C   UNL     1       7.301   4.695  16.630  0.00  0.00    +0.000 A 
ATOM      5  C   UNL     1       6.988   5.222  17.877  0.00  0.00    +0.000 A 
ATOM      6  C   UNL     1       5.771   5.866  18.067  0.00  0.00    +0.000 A 
ENDROOT
BRANCH   5   7
ATOM      7  C   UNL     1       7.913   5.066  19.007  0.00  0.00    +0.000 C 
ATOM      8  N   UNL     1       7.521   5.320  20.214  0.00  0.00    +0.000 NA
BRANCH   8   9
ATOM      9  O   UNL     1       8.583   5.067  21.089  0.00  0.00    +0.000 OA
ATOM     10  H   UNL     1       8.207   4.414  21.710  0.00  0.00    +0.000 HD
ENDBRANCH   8   9
ENDBRANCH   5   7
BRANCH   1  11
ATOM     11  C   UNL     1       3.582   6.577  17.311  0.00  0.00    +0.000 C 
BRANCH  11  12
ATOM     12  O   UNL     1       3.366   6.595  18.708  0.00  0.00    +0.000 OA
BRANCH  12  13
ATOM     13  C   UNL     1       2.244   5.791  19.088  0.00  0.00    +0.000 C 
BRANCH  13  14
ATOM     14  C   UNL     1       1.707   4.985  17.907  0.00  0.00    +0.000 C 
BRANCH  14  15
ATOM     15  C   UNL     1       1.680   3.488  18.225  0.00  0.00    +0.000 C 
BRANCH  15  16
ATOM     16  C   UNL     1       2.733   2.706  17.441  0.00  0.00    +0.000 C 
BRANCH  16  18
ATOM     17  C   UNL     1       4.288   2.673  19.426  0.00  0.00    +0.000 C 
ATOM     18  C   UNL     1       3.572   1.844  18.377  0.00  0.00    +0.000 C 
ENDBRANCH  16  18
ENDBRANCH  15  16
ENDBRANCH  14  15
ENDBRANCH  13  14
ENDBRANCH  12  13
ENDBRANCH  11  12
ENDBRANCH   1  11
TORSDOF 9
ENDMDL
MODEL 6
REMARK VINA RESULT:      -5.8      2.764      6.574
REMARK  Name = 
REMARK  10 active torsions:
REMARK  status: ('A' for Active; 'I' for Inactive)
REMARK    1  A    between atoms: C_1  and  C_2
REMARK    2  A    between atoms: C_2  and  C_3
REMARK    3  A    between atoms: C_3  and  C_4
REMARK    4  A    between atoms: C_4  and  C_5
REMARK    5  A    between atoms: C_5  and  C_6
REMARK    6  A    between atoms: C_6  and  O_7
REMARK    7  A    between atoms: O_7  and  C_8
REMARK    8  A    between atoms: C_8  and  N_9
REMARK    9  A    between atoms: C_13  and  C_14
REMARK   10  A    between atoms: N_15  and  O_16
REMARK                            x       y       z     vdW  Elec       q    Type
REMARK                         _______ _______ _______ _____ _____    ______ ____
ROOT
ATOM      1  N   UNL     1       4.470   3.769  17.756  0.00  0.00    +0.000 N 
ATOM      2  C   UNL     1       5.195   4.102  18.847  0.00  0.00    +0.000 A 
ATOM      3  C   UNL     1       6.457   4.669  18.698  0.00  0.00    +0.000 A 
ATOM      4  C   UNL     1       6.957   4.911  17.420  0.00  0.00    +0.000 A 
ATOM      5  C   UNL     1       6.182   4.569  16.319  0.00  0.00    +0.000 A 
ATOM      6  C   UNL     1       4.934   3.985  16.509  0.00  0.00    +0.000 A 
ENDROOT
BRANCH   5   7
ATOM      7  C   UNL     1       6.649   4.860  14.957  0.00  0.00    +0.000 C 
ATOM      8  N   UNL     1       7.768   5.481  14.768  0.00  0.00    +0.000 NA
BRANCH   8   9
ATOM      9  O   UNL     1       7.980   5.602  13.390  0.00  0.00    +0.000 OA
ATOM     10  H   UNL     1       7.075   5.692  13.034  0.00  0.00    +0.000 HD
ENDBRANCH   8   9
ENDBRANCH   5   7
BRANCH   1  11
ATOM     11  C   UNL     1       3.116   3.224  17.918  0.00  0.00    +0.000 C 
BRANCH  11  12
ATOM     12  O   UNL     1       3.034   2.602  19.185  0.00  0.00    +0.000 OA
BRANCH  12  13
ATOM     13  C   UNL     1       1.920   3.079  19.946  0.00  0.00    +0.000 C 
BRANCH  13  14
ATOM     14  C   UNL     1       1.505   4.482  19.511  0.00  0.00    +0.000 C 
BRANCH  14  15
ATOM     15  C   UNL     1       2.135   5.550  20.408  0.00  0.00    +0.000 C 
BRANCH  15  16
ATOM     16  C   UNL     1       2.254   6.904  19.709  0.00  0.00    +0.000 C 
BRANCH  16  18
ATOM     17  C   UNL     1       3.703   7.366  17.696  0.00  0.00    +0.000 C 
ATOM     18  C   UNL     1       2.429   6.720  18.206  0.00  0.00    +0.000 C 
ENDBRANCH  16  18
ENDBRANCH  15  16
ENDBRANCH  14  15
ENDBRANCH  13  14
ENDBRANCH  12  13
ENDBRANCH  11  12
ENDBRANCH   1  11
TORSDOF 9
ENDMDL
MODEL 7
REMARK VINA RESULT:      -5.8      2.961      6.748
REMARK  Name = 
REMARK  10 active torsions:
REMARK  status: ('A' for Active; 'I' for Inactive)
REMARK    1  A    between atoms: C_1  and  C_2
REMARK    2  A    between atoms: C_2  and  C_3
REMARK    3  A    between atoms: C_3  and  C_4
REMARK    4  A    between atoms: C_4  and  C_5
REMARK    5  A    between atoms: C_5  and  C_6
REMARK    6  A    between atoms: C_6  and  O_7
REMARK    7  A    between atoms: O_7  and  C_8
REMARK    8  A    between atoms: C_8  and  N_9
REMARK    9  A    between atoms: C_13  and  C_14
REMARK   10  A    between atoms: N_15  and  O_16
REMARK                            x       y       z     vdW  Elec       q    Type
REMARK                         _______ _______ _______ _____ _____    ______ ____
ROOT
ATOM      1  N   UNL     1       4.862   4.035  16.501  0.00  0.00    +0.000 N 
ATOM      2  C   UNL     1       5.326   4.239  15.247  0.00  0.00    +0.000 A 
ATOM      3  C   UNL     1       6.549   4.873  15.051  0.00  0.00    +0.000 A 
ATOM      4  C   UNL     1       7.301   5.273  16.153  0.00  0.00    +0.000 A 
ATOM      5  C   UNL     1       6.804   5.037  17.429  0.00  0.00    +0.000 A 
ATOM      6  C   UNL     1       5.567   4.420  17.584  0.00  0.00    +0.000 A 
ENDROOT
BRANCH   5   7
ATOM      7  C   UNL     1       7.592   5.393  18.616  0.00  0.00    +0.000 C 
ATOM      8  N   UNL     1       7.155   5.113  19.801  0.00  0.00    +0.000 NA
BRANCH   8   9
ATOM      9  O   UNL     1       8.105   5.536  20.736  0.00  0.00    +0.000 OA
ATOM     10  H   UNL     1       8.307   6.447  20.449  0.00  0.00    +0.000 HD
ENDBRANCH   8   9
ENDBRANCH   5   7
BRANCH   1  11
ATOM     11  C   UNL     1       3.599   3.315  16.704  0.00  0.00    +0.000 C 
BRANCH  11  12
ATOM     12  O   UNL     1       2.880   3.957  17.737  0.00  0.00    +0.000 OA
BRANCH  12  13
ATOM     13  C   UNL     1       1.703   3.230  18.105  0.00  0.00    +0.000 C 
BRANCH  13  14
ATOM     14  C   UNL     1       1.990   2.231  19.223  0.00  0.00    +0.000 C 
BRANCH  14  15
ATOM     15  C   UNL     1       1.438   2.724  20.563  0.00  0.00    +0.000 C 
BRANCH  15  16
ATOM     16  C   UNL     1       0.980   4.182  20.504  0.00  0.00    +0.000 C 
BRANCH  16  18
ATOM     17  C   UNL     1       2.089   6.427  20.200  0.00  0.00    +0.000 C 
ATOM     18  C   UNL     1       2.096   5.115  20.961  0.00  0.00    +0.000 C 
ENDBRANCH  16  18
ENDBRANCH  15  16
ENDBRANCH  14  15
ENDBRANCH  13  14
ENDBRANCH  12  13
ENDBRANCH  11  12
ENDBRANCH   1  11
TORSDOF 9
ENDMDL
MODEL 8
REMARK VINA RESULT:      -5.8      3.540      7.041
REMARK  Name = 
REMARK  10 active torsions:
REMARK  status: ('A' for Active; 'I' for Inactive)
REMARK    1  A    between atoms: C_1  and  C_2
REMARK    2  A    between atoms: C_2  and  C_3
REMARK    3  A    between atoms: C_3  and  C_4
REMARK    4  A    between atoms: C_4  and  C_5
REMARK    5  A    between atoms: C_5  and  C_6
REMARK    6  A    between atoms: C_6  and  O_7
REMARK    7  A    between atoms: O_7  and  C_8
REMARK    8  A    between atoms: C_8  and  N_9
REMARK    9  A    between atoms: C_13  and  C_14
REMARK   10  A    between atoms: N_15  and  O_16
REMARK                            x       y       z     vdW  Elec       q    Type
REMARK                         _______ _______ _______ _____ _____    ______ ____
ROOT
ATOM      1  N   UNL     1       3.767   2.919  18.553  0.00  0.00    +0.000 N 
ATOM      2  C   UNL     1       3.387   3.282  17.307  0.00  0.00    +0.000 A 
ATOM      3  C   UNL     1       3.998   4.365  16.680  0.00  0.00    +0.000 A 
ATOM      4  C   UNL     1       5.015   5.054  17.335  0.00  0.00    +0.000 A 
ATOM      5  C   UNL     1       5.392   4.648  18.609  0.00  0.00    +0.000 A 
ATOM      6  C   UNL     1       4.744   3.575  19.211  0.00  0.00    +0.000 A 
ENDROOT
BRANCH   5   7
ATOM      7  C   UNL     1       6.499   5.314  19.309  0.00  0.00    +0.000 C 
ATOM      8  N   UNL     1       7.707   5.227  18.855  0.00  0.00    +0.000 NA
BRANCH   8   9
ATOM      9  O   UNL     1       8.550   5.968  19.691  0.00  0.00    +0.000 OA
ATOM     10  H   UNL     1       8.396   6.888  19.402  0.00  0.00    +0.000 HD
ENDBRANCH   8   9
ENDBRANCH   5   7
BRANCH   1  11
ATOM     11  C   UNL     1       3.161   1.741  19.186  0.00  0.00    +0.000 C 
BRANCH  11  12
ATOM     12  O   UNL     1       1.775   1.976  19.330  0.00  0.00    +0.000 OA
BRANCH  12  13
ATOM     13  C   UNL     1       1.472   2.681  20.539  0.00  0.00    +0.000 C 
BRANCH  13  14
ATOM     14  C   UNL     1       0.889   4.062  20.250  0.00  0.00    +0.000 C 
BRANCH  14  15
ATOM     15  C   UNL     1       1.875   5.170  20.630  0.00  0.00    +0.000 C 
BRANCH  15  16
ATOM     16  C   UNL     1       2.099   6.167  19.493  0.00  0.00    +0.000 C 
BRANCH  16  18
ATOM     17  C   UNL     1       1.062   7.819  21.092  0.00  0.00    +0.000 C 
ATOM     18  C   UNL     1       2.117   7.595  20.026  0.00  0.00    +0.000 C 
ENDBRANCH  16  18
ENDBRANCH  15  16
ENDBRANCH  14  15
ENDBRANCH  13  14
ENDBRANCH  12  13
ENDBRANCH  11  12
ENDBRANCH   1  11
TORSDOF 9
ENDMDL
MODEL 9
REMARK VINA RESULT:      -5.8      3.200      5.178
REMARK  Name = 
REMARK  10 active torsions:
REMARK  status: ('A' for Active; 'I' for Inactive)
REMARK    1  A    between atoms: C_1  and  C_2
REMARK    2  A    between atoms: C_2  and  C_3
REMARK    3  A    between atoms: C_3  and  C_4
REMARK    4  A    between atoms: C_4  and  C_5
REMARK    5  A    between atoms: C_5  and  C_6
REMARK    6  A    between atoms: C_6  and  O_7
REMARK    7  A    between atoms: O_7  and  C_8
REMARK    8  A    between atoms: C_8  and  N_9
REMARK    9  A    between atoms: C_13  and  C_14
REMARK   10  A    between atoms: N_15  and  O_16
REMARK                            x       y       z     vdW  Elec       q    Type
REMARK                         _______ _______ _______ _____ _____    ______ ____
ROOT
ATOM      1  N   UNL     1       3.093   3.280  18.303  0.00  0.00    +0.000 N 
ATOM      2  C   UNL     1       2.111   2.354  18.222  0.00  0.00    +0.000 A 
ATOM      3  C   UNL     1       0.966   2.483  19.003  0.00  0.00    +0.000 A 
ATOM      4  C   UNL     1       0.830   3.582  19.848  0.00  0.00    +0.000 A 
ATOM      5  C   UNL     1       1.851   4.523  19.899  0.00  0.00    +0.000 A 
ATOM      6  C   UNL     1       2.989   4.348  19.119  0.00  0.00    +0.000 A 
ENDROOT
BRANCH   5   7
ATOM      7  C   UNL     1       1.720   5.724  20.735  0.00  0.00    +0.000 C 
ATOM      8  N   UNL     1       2.042   6.886  20.267  0.00  0.00    +0.000 NA
BRANCH   8   9
ATOM      9  O   UNL     1       1.798   7.846  21.255  0.00  0.00    +0.000 OA
ATOM     10  H   UNL     1       2.175   8.660  20.869  0.00  0.00    +0.000 HD
ENDBRANCH   8   9
ENDBRANCH   5   7
BRANCH   1  11
ATOM     11  C   UNL     1       4.273   3.170  17.436  0.00  0.00    +0.000 C 
BRANCH  11  12
ATOM     12  O   UNL     1       4.131   4.089  16.371  0.00  0.00    +0.000 OA
BRANCH  12  13
ATOM     13  C   UNL     1       5.392   4.615  15.944  0.00  0.00    +0.000 C 
BRANCH  13  14
ATOM     14  C   UNL     1       5.366   6.140  15.873  0.00  0.00    +0.000 C 
BRANCH  14  15
ATOM     15  C   UNL     1       5.629   6.763  17.247  0.00  0.00    +0.000 C 
BRANCH  15  16
ATOM     16  C   UNL     1       7.065   7.266  17.394  0.00  0.00    +0.000 C 
BRANCH  16  18
ATOM     17  C   UNL     1       6.876   5.570  19.252  0.00  0.00    +0.000 C 
ATOM     18  C   UNL     1       7.807   6.471  18.462  0.00  0.00    +0.000 C 
ENDBRANCH  16  18
ENDBRANCH  15  16
ENDBRANCH  14  15
ENDBRANCH  13  14
ENDBRANCH  12  13
ENDBRANCH  11  12
ENDBRANCH   1  11
TORSDOF 9
ENDMDL
