MODEL 1
REMARK VINA RESULT:      -8.3      0.000      0.000
REMARK  Name = 
REMARK  5 active torsions:
REMARK  status: ('A' for Active; 'I' for Inactive)
REMARK    1  A    between atoms: C_2  and  C_3
REMARK    2  A    between atoms: C_2  and  C_18
REMARK    3  A    between atoms: C_3  and  N_4
REMARK    4  A    between atoms: C_21  and  O_22
REMARK    5  A    between atoms: O_22  and  C_23
REMARK                            x       y       z     vdW  Elec       q    Type
REMARK                         _______ _______ _______ _____ _____    ______ ____
ROOT
ATOM      1  C   UNL     1       0.637  12.257  19.994  0.00  0.00    +0.000 C 
ENDROOT
BRANCH   1   2
ATOM      2  N   UNL     1      -0.446  12.772  20.782  0.00  0.00    +0.000 N 
ATOM      3  C   UNL     1      -1.213  13.844  20.432  0.00  0.00    +0.000 C 
ATOM      4  O   UNL     1      -1.158  14.489  19.406  0.00  0.00    +0.000 OA
ATOM      5  N   UNL     1      -2.040  14.130  21.485  0.00  0.00    +0.000 N 
ATOM      6  C   UNL     1      -1.866  13.255  22.626  0.00  0.00    +0.000 C 
ATOM      7  C   UNL     1      -3.096  12.362  22.837  0.00  0.00    +0.000 C 
ATOM      8  C   UNL     1      -4.144  12.870  23.826  0.00  0.00    +0.000 C 
ATOM      9  C   UNL     1      -4.889  14.128  23.392  0.00  0.00    +0.000 C 
ATOM     10  C   UNL     1      -4.245  15.498  23.625  0.00  0.00    +0.000 C 
ATOM     11  C   UNL     1      -3.130  15.609  24.661  0.00  0.00    +0.000 C 
ATOM     12  C   UNL     1      -1.725  15.399  24.105  0.00  0.00    +0.000 C 
ATOM     13  C   UNL     1      -1.308  13.951  23.880  0.00  0.00    +0.000 C 
ATOM     14  C   UNL     1      -0.708  12.398  22.066  0.00  0.00    +0.000 C 
ATOM     15  O   UNL     1      -0.089  11.541  22.695  0.00  0.00    +0.000 OA
ATOM     16  H   UNL     1      -2.718  14.878  21.394  0.00  0.00    +0.000 HD
ENDBRANCH   1   2
BRANCH   1  18
ATOM     17  O   UNL     1      -0.903  11.068  18.567  0.00  0.00    +0.000 OA
ATOM     18  C   UNL     1       0.144  11.058  19.203  0.00  0.00    +0.000 C 
BRANCH  18  19
ATOM     19  C   UNL     1       0.950   9.809  19.259  0.00  0.00    +0.000 A 
ATOM     20  C   UNL     1       1.644   9.307  18.148  0.00  0.00    +0.000 A 
ATOM     21  C   UNL     1       2.321   8.088  18.245  0.00  0.00    +0.000 A 
ATOM     22  C   UNL     1       2.329   7.392  19.449  0.00  0.00    +0.000 A 
ATOM     23  C   UNL     1       1.633   7.905  20.554  0.00  0.00    +0.000 A 
ATOM     24  C   UNL     1       0.967   9.116  20.463  0.00  0.00    +0.000 A 
BRANCH  22  25
ATOM     25  O   UNL     1       3.009   6.197  19.465  0.00  0.00    +0.000 OA
BRANCH  25  26
ATOM     26  C   UNL     1       2.297   5.027  19.332  0.00  0.00    +0.000 A 
ATOM     27  C   UNL     1       2.334   4.390  18.091  0.00  0.00    +0.000 A 
ATOM     28  C   UNL     1       1.637   3.194  17.910  0.00  0.00    +0.000 A 
ATOM     29  C   UNL     1       0.918   2.634  18.969  0.00  0.00    +0.000 A 
ATOM     30  C   UNL     1       0.890   3.264  20.213  0.00  0.00    +0.000 A 
ATOM     31  C   UNL     1       1.592   4.442  20.391  0.00  0.00    +0.000 A 
ENDBRANCH  25  26
ENDBRANCH  22  25
ENDBRANCH  18  19
ENDBRANCH   1  18
TORSDOF 5
ENDMDL
MODEL 2
REMARK VINA RESULT:      -8.3      0.326      1.272
REMARK  Name = 
REMARK  5 active torsions:
REMARK  status: ('A' for Active; 'I' for Inactive)
REMARK    1  A    between atoms: C_2  and  C_3
REMARK    2  A    between atoms: C_2  and  C_18
REMARK    3  A    between atoms: C_3  and  N_4
REMARK    4  A    between atoms: C_21  and  O_22
REMARK    5  A    between atoms: O_22  and  C_23
REMARK                            x       y       z     vdW  Elec       q    Type
REMARK                         _______ _______ _______ _____ _____    ______ ____
ROOT
ATOM      1  C   UNL     1       0.879  12.270  20.027  0.00  0.00    +0.000 C 
ENDROOT
BRANCH   1   2
ATOM      2  N   UNL     1      -0.235  12.819  20.743  0.00  0.00    +0.000 N 
ATOM      3  C   UNL     1      -0.906  13.950  20.379  0.00  0.00    +0.000 C 
ATOM      4  O   UNL     1      -0.725  14.630  19.390  0.00  0.00    +0.000 OA
ATOM      5  N   UNL     1      -1.804  14.245  21.369  0.00  0.00    +0.000 N 
ATOM      6  C   UNL     1      -1.781  13.316  22.481  0.00  0.00    +0.000 C 
ATOM      7  C   UNL     1      -3.074  12.493  22.547  0.00  0.00    +0.000 C 
ATOM      8  C   UNL     1      -4.172  13.025  23.466  0.00  0.00    +0.000 C 
ATOM      9  C   UNL     1      -4.803  14.343  23.028  0.00  0.00    +0.000 C 
ATOM     10  C   UNL     1      -4.103  15.660  23.375  0.00  0.00    +0.000 C 
ATOM     11  C   UNL     1      -3.077  15.661  24.505  0.00  0.00    +0.000 C 
ATOM     12  C   UNL     1      -1.644  15.387  24.061  0.00  0.00    +0.000 C 
ATOM     13  C   UNL     1      -1.293  13.926  23.807  0.00  0.00    +0.000 C 
ATOM     14  C   UNL     1      -0.630  12.412  21.983  0.00  0.00    +0.000 C 
ATOM     15  O   UNL     1      -0.118  11.494  22.623  0.00  0.00    +0.000 OA
ATOM     16  H   UNL     1      -2.426  15.036  21.255  0.00  0.00    +0.000 HD
ENDBRANCH   1   2
BRANCH   1  18
ATOM     17  O   UNL     1      -0.540  11.286  18.344  0.00  0.00    +0.000 OA
ATOM     18  C   UNL     1       0.386  11.147  19.133  0.00  0.00    +0.000 C 
BRANCH  18  19
ATOM     19  C   UNL     1       1.028   9.812  19.274  0.00  0.00    +0.000 A 
ATOM     20  C   UNL     1       1.010   9.089  20.475  0.00  0.00    +0.000 A 
ATOM     21  C   UNL     1       1.696   7.874  20.564  0.00  0.00    +0.000 A 
ATOM     22  C   UNL     1       2.368   7.374  19.454  0.00  0.00    +0.000 A 
ATOM     23  C   UNL     1       2.377   8.104  18.258  0.00  0.00    +0.000 A 
ATOM     24  C   UNL     1       1.693   9.305  18.165  0.00  0.00    +0.000 A 
BRANCH  22  25
ATOM     25  O   UNL     1       3.026   6.178  19.622  0.00  0.00    +0.000 OA
BRANCH  25  26
ATOM     26  C   UNL     1       2.304   5.008  19.550  0.00  0.00    +0.000 A 
ATOM     27  C   UNL     1       1.959   4.391  20.752  0.00  0.00    +0.000 A 
ATOM     28  C   UNL     1       1.217   3.208  20.731  0.00  0.00    +0.000 A 
ATOM     29  C   UNL     1       0.811   2.656  19.513  0.00  0.00    +0.000 A 
ATOM     30  C   UNL     1       1.146   3.279  18.311  0.00  0.00    +0.000 A 
ATOM     31  C   UNL     1       1.871   4.457  18.337  0.00  0.00    +0.000 A 
ENDBRANCH  25  26
ENDBRANCH  22  25
ENDBRANCH  18  19
ENDBRANCH   1  18
TORSDOF 5
ENDMDL
MODEL 3
REMARK VINA RESULT:      -8.1      1.096      2.249
REMARK  Name = 
REMARK  5 active torsions:
REMARK  status: ('A' for Active; 'I' for Inactive)
REMARK    1  A    between atoms: C_2  and  C_3
REMARK    2  A    between atoms: C_2  and  C_18
REMARK    3  A    between atoms: C_3  and  N_4
REMARK    4  A    between atoms: C_21  and  O_22
REMARK    5  A    between atoms: O_22  and  C_23
REMARK                            x       y       z     vdW  Elec       q    Type
REMARK                         _______ _______ _______ _____ _____    ______ ____
ROOT
ATOM      1  C   UNL     1      -1.301  11.065  20.310  0.00  0.00    +0.000 C 
ENDROOT
BRANCH   1   2
ATOM      2  N   UNL     1      -1.310  12.102  21.301  0.00  0.00    +0.000 N 
ATOM      3  C   UNL     1      -0.844  11.958  22.574  0.00  0.00    +0.000 C 
ATOM      4  O   UNL     1      -0.304  10.984  23.058  0.00  0.00    +0.000 OA
ATOM      5  N   UNL     1      -1.149  13.099  23.266  0.00  0.00    +0.000 N 
ATOM      6  C   UNL     1      -1.859  14.091  22.484  0.00  0.00    +0.000 C 
ATOM      7  C   UNL     1      -0.991  15.333  22.238  0.00  0.00    +0.000 C 
ATOM      8  C   UNL     1      -1.167  16.489  23.221  0.00  0.00    +0.000 C 
ATOM      9  C   UNL     1      -0.702  16.206  24.646  0.00  0.00    +0.000 C 
ATOM     10  C   UNL     1      -1.638  15.465  25.607  0.00  0.00    +0.000 C 
ATOM     11  C   UNL     1      -3.129  15.436  25.286  0.00  0.00    +0.000 C 
ATOM     12  C   UNL     1      -3.574  14.244  24.443  0.00  0.00    +0.000 C 
ATOM     13  C   UNL     1      -3.303  14.349  22.947  0.00  0.00    +0.000 C 
ATOM     14  C   UNL     1      -1.974  13.286  21.169  0.00  0.00    +0.000 C 
ATOM     15  O   UNL     1      -2.603  13.638  20.172  0.00  0.00    +0.000 OA
ATOM     16  H   UNL     1      -0.843  13.193  24.228  0.00  0.00    +0.000 HD
ENDBRANCH   1   2
BRANCH   1  18
ATOM     17  O   UNL     1       0.398  12.107  18.951  0.00  0.00    +0.000 OA
ATOM     18  C   UNL     1       0.017  11.114  19.558  0.00  0.00    +0.000 C 
BRANCH  18  19
ATOM     19  C   UNL     1       0.843   9.877  19.520  0.00  0.00    +0.000 A 
ATOM     20  C   UNL     1       1.485   9.432  18.355  0.00  0.00    +0.000 A 
ATOM     21  C   UNL     1       2.184   8.222  18.366  0.00  0.00    +0.000 A 
ATOM     22  C   UNL     1       2.265   7.478  19.538  0.00  0.00    +0.000 A 
ATOM     23  C   UNL     1       1.622   7.933  20.698  0.00  0.00    +0.000 A 
ATOM     24  C   UNL     1       0.934   9.136  20.691  0.00  0.00    +0.000 A 
BRANCH  22  25
ATOM     25  O   UNL     1       2.963   6.295  19.468  0.00  0.00    +0.000 OA
BRANCH  25  26
ATOM     26  C   UNL     1       2.260   5.113  19.424  0.00  0.00    +0.000 A 
ATOM     27  C   UNL     1       2.032   4.547  18.169  0.00  0.00    +0.000 A 
ATOM     28  C   UNL     1       1.333   3.342  18.073  0.00  0.00    +0.000 A 
ATOM     29  C   UNL     1       0.878   2.701  19.229  0.00  0.00    +0.000 A 
ATOM     30  C   UNL     1       1.116   3.260  20.484  0.00  0.00    +0.000 A 
ATOM     31  C   UNL     1       1.819   4.448  20.575  0.00  0.00    +0.000 A 
ENDBRANCH  25  26
ENDBRANCH  22  25
ENDBRANCH  18  19
ENDBRANCH   1  18
TORSDOF 5
ENDMDL
MODEL 4
REMARK VINA RESULT:      -8.1      2.324      3.508
REMARK  Name = 
REMARK  5 active torsions:
REMARK  status: ('A' for Active; 'I' for Inactive)
REMARK    1  A    between atoms: C_2  and  C_3
REMARK    2  A    between atoms: C_2  and  C_18
REMARK    3  A    between atoms: C_3  and  N_4
REMARK    4  A    between atoms: C_21  and  O_22
REMARK    5  A    between atoms: O_22  and  C_23
REMARK                            x       y       z     vdW  Elec       q    Type
REMARK                         _______ _______ _______ _____ _____    ______ ____
ROOT
ATOM      1  C   UNL     1       1.045  10.896  21.091  0.00  0.00    +0.000 C 
ENDROOT
BRANCH   1   2
ATOM      2  N   UNL     1      -0.047  11.484  21.810  0.00  0.00    +0.000 N 
ATOM      3  C   UNL     1      -0.856  10.807  22.675  0.00  0.00    +0.000 C 
ATOM      4  O   UNL     1      -0.761   9.647  23.021  0.00  0.00    +0.000 OA
ATOM      5  N   UNL     1      -1.866  11.649  23.055  0.00  0.00    +0.000 N 
ATOM      6  C   UNL     1      -1.797  12.963  22.448  0.00  0.00    +0.000 C 
ATOM      7  C   UNL     1      -1.478  14.043  23.491  0.00  0.00    +0.000 C 
ATOM      8  C   UNL     1      -2.674  14.770  24.103  0.00  0.00    +0.000 C 
ATOM      9  C   UNL     1      -3.576  13.910  24.983  0.00  0.00    +0.000 C 
ATOM     10  C   UNL     1      -4.652  13.039  24.327  0.00  0.00    +0.000 C 
ATOM     11  C   UNL     1      -5.097  13.382  22.908  0.00  0.00    +0.000 C 
ATOM     12  C   UNL     1      -4.309  12.675  21.808  0.00  0.00    +0.000 C 
ATOM     13  C   UNL     1      -2.948  13.274  21.476  0.00  0.00    +0.000 C 
ATOM     14  C   UNL     1      -0.550  12.728  21.566  0.00  0.00    +0.000 C 
ATOM     15  O   UNL     1      -0.104  13.522  20.739  0.00  0.00    +0.000 OA
ATOM     16  H   UNL     1      -2.549  11.331  23.732  0.00  0.00    +0.000 HD
ENDBRANCH   1   2
BRANCH   1  18
ATOM     17  O   UNL     1      -0.586  10.398  19.385  0.00  0.00    +0.000 OA
ATOM     18  C   UNL     1       0.497  10.138  19.895  0.00  0.00    +0.000 C 
BRANCH  18  19
ATOM     19  C   UNL     1       1.295   8.999  19.368  0.00  0.00    +0.000 A 
ATOM     20  C   UNL     1       1.663   7.903  20.163  0.00  0.00    +0.000 A 
ATOM     21  C   UNL     1       2.477   6.900  19.628  0.00  0.00    +0.000 A 
ATOM     22  C   UNL     1       2.895   6.978  18.304  0.00  0.00    +0.000 A 
ATOM     23  C   UNL     1       2.520   8.077  17.518  0.00  0.00    +0.000 A 
ATOM     24  C   UNL     1       1.707   9.069  18.044  0.00  0.00    +0.000 A 
BRANCH  22  25
ATOM     25  O   UNL     1       3.701   5.958  17.853  0.00  0.00    +0.000 OA
BRANCH  25  26
ATOM     26  C   UNL     1       5.056   6.033  18.083  0.00  0.00    +0.000 A 
ATOM     27  C   UNL     1       5.807   6.846  17.234  0.00  0.00    +0.000 A 
ATOM     28  C   UNL     1       7.184   6.964  17.434  0.00  0.00    +0.000 A 
ATOM     29  C   UNL     1       7.801   6.282  18.487  0.00  0.00    +0.000 A 
ATOM     30  C   UNL     1       7.049   5.480  19.343  0.00  0.00    +0.000 A 
ATOM     31  C   UNL     1       5.683   5.375  19.149  0.00  0.00    +0.000 A 
ENDBRANCH  25  26
ENDBRANCH  22  25
ENDBRANCH  18  19
ENDBRANCH   1  18
TORSDOF 5
ENDMDL
MODEL 5
REMARK VINA RESULT:      -8.1      1.293      2.428
REMARK  Name = 
REMARK  5 active torsions:
REMARK  status: ('A' for Active; 'I' for Inactive)
REMARK    1  A    between atoms: C_2  and  C_3
REMARK    2  A    between atoms: C_2  and  C_18
REMARK    3  A    between atoms: C_3  and  N_4
REMARK    4  A    between atoms: C_21  and  O_22
REMARK    5  A    between atoms: O_22  and  C_23
REMARK                            x       y       z     vdW  Elec       q    Type
REMARK                         _______ _______ _______ _____ _____    ______ ____
ROOT
ATOM      1  C   UNL     1       1.028  11.233  21.019  0.00  0.00    +0.000 C 
ENDROOT
BRANCH   1   2
ATOM      2  N   UNL     1      -0.105  11.687  21.772  0.00  0.00    +0.000 N 
ATOM      3  C   UNL     1      -0.884  10.887  22.555  0.00  0.00    +0.000 C 
ATOM      4  O   UNL     1      -0.726   9.707  22.793  0.00  0.00    +0.000 OA
ATOM      5  N   UNL     1      -1.945  11.631  22.994  0.00  0.00    +0.000 N 
ATOM      6  C   UNL     1      -1.945  12.998  22.514  0.00  0.00    +0.000 C 
ATOM      7  C   UNL     1      -1.702  13.991  23.658  0.00  0.00    +0.000 C 
ATOM      8  C   UNL     1      -2.945  14.590  24.315  0.00  0.00    +0.000 C 
ATOM      9  C   UNL     1      -3.806  13.601  25.094  0.00  0.00    +0.000 C 
ATOM     10  C   UNL     1      -4.822  12.736  24.342  0.00  0.00    +0.000 C 
ATOM     11  C   UNL     1      -5.269  13.185  22.954  0.00  0.00    +0.000 C 
ATOM     12  C   UNL     1      -4.429  12.630  21.807  0.00  0.00    +0.000 C 
ATOM     13  C   UNL     1      -3.101  13.334  21.555  0.00  0.00    +0.000 C 
ATOM     14  C   UNL     1      -0.676  12.918  21.635  0.00  0.00    +0.000 C 
ATOM     15  O   UNL     1      -0.267  13.810  20.894  0.00  0.00    +0.000 OA
ATOM     16  H   UNL     1      -2.617  11.213  23.627  0.00  0.00    +0.000 HD
ENDBRANCH   1   2
BRANCH   1  18
ATOM     17  O   UNL     1      -0.412  10.907  19.112  0.00  0.00    +0.000 OA
ATOM     18  C   UNL     1       0.538  10.512  19.776  0.00  0.00    +0.000 C 
BRANCH  18  19
ATOM     19  C   UNL     1       1.214   9.243  19.395  0.00  0.00    +0.000 A 
ATOM     20  C   UNL     1       1.527   8.244  20.329  0.00  0.00    +0.000 A 
ATOM     21  C   UNL     1       2.230   7.107  19.920  0.00  0.00    +0.000 A 
ATOM     22  C   UNL     1       2.592   6.958  18.585  0.00  0.00    +0.000 A 
ATOM     23  C   UNL     1       2.272   7.962  17.660  0.00  0.00    +0.000 A 
ATOM     24  C   UNL     1       1.569   9.086  18.061  0.00  0.00    +0.000 A 
BRANCH  22  25
ATOM     25  O   UNL     1       3.289   5.817  18.261  0.00  0.00    +0.000 OA
BRANCH  25  26
ATOM     26  C   UNL     1       2.804   4.601  18.686  0.00  0.00    +0.000 A 
ATOM     27  C   UNL     1       1.625   4.141  18.100  0.00  0.00    +0.000 A 
ATOM     28  C   UNL     1       1.099   2.907  18.489  0.00  0.00    +0.000 A 
ATOM     29  C   UNL     1       1.759   2.134  19.449  0.00  0.00    +0.000 A 
ATOM     30  C   UNL     1       2.944   2.588  20.025  0.00  0.00    +0.000 A 
ATOM     31  C   UNL     1       3.468   3.805  19.628  0.00  0.00    +0.000 A 
ENDBRANCH  25  26
ENDBRANCH  22  25
ENDBRANCH  18  19
ENDBRANCH   1  18
TORSDOF 5
ENDMDL
MODEL 6
REMARK VINA RESULT:      -8.1      1.153      2.450
REMARK  Name = 
REMARK  5 active torsions:
REMARK  status: ('A' for Active; 'I' for Inactive)
REMARK    1  A    between atoms: C_2  and  C_3
REMARK    2  A    between atoms: C_2  and  C_18
REMARK    3  A    between atoms: C_3  and  N_4
REMARK    4  A    between atoms: C_21  and  O_22
REMARK    5  A    between atoms: O_22  and  C_23
REMARK                            x       y       z     vdW  Elec       q    Type
REMARK                         _______ _______ _______ _____ _____    ______ ____
ROOT
ATOM      1  C   UNL     1       0.402  12.041  20.745  0.00  0.00    +0.000 C 
ENDROOT
BRANCH   1   2
ATOM      2  N   UNL     1      -0.846  12.440  21.328  0.00  0.00    +0.000 N 
ATOM      3  C   UNL     1      -1.523  11.723  22.270  0.00  0.00    +0.000 C 
ATOM      4  O   UNL     1      -1.173  10.691  22.806  0.00  0.00    +0.000 OA
ATOM      5  N   UNL     1      -2.730  12.334  22.478  0.00  0.00    +0.000 N 
ATOM      6  C   UNL     1      -2.940  13.515  21.665  0.00  0.00    +0.000 C 
ATOM      7  C   UNL     1      -2.963  14.786  22.523  0.00  0.00    +0.000 C 
ATOM      8  C   UNL     1      -4.338  15.277  22.974  0.00  0.00    +0.000 C 
ATOM      9  C   UNL     1      -5.062  14.364  23.959  0.00  0.00    +0.000 C 
ATOM     10  C   UNL     1      -5.848  13.162  23.427  0.00  0.00    +0.000 C 
ATOM     11  C   UNL     1      -6.267  13.161  21.960  0.00  0.00    +0.000 C 
ATOM     12  C   UNL     1      -5.259  12.514  21.013  0.00  0.00    +0.000 C 
ATOM     13  C   UNL     1      -4.064  13.376  20.624  0.00  0.00    +0.000 C 
ATOM     14  C   UNL     1      -1.617  13.466  20.868  0.00  0.00    +0.000 C 
ATOM     15  O   UNL     1      -1.321  14.210  19.933  0.00  0.00    +0.000 OA
ATOM     16  H   UNL     1      -3.359  11.963  23.180  0.00  0.00    +0.000 HD
ENDBRANCH   1   2
BRANCH   1  18
ATOM     17  O   UNL     1      -0.663  11.307  18.709  0.00  0.00    +0.000 OA
ATOM     18  C   UNL     1       0.129  11.068  19.612  0.00  0.00    +0.000 C 
BRANCH  18  19
ATOM     19  C   UNL     1       0.817   9.749  19.647  0.00  0.00    +0.000 A 
ATOM     20  C   UNL     1       0.873   8.956  20.802  0.00  0.00    +0.000 A 
ATOM     21  C   UNL     1       1.599   7.762  20.790  0.00  0.00    +0.000 A 
ATOM     22  C   UNL     1       2.239   7.350  19.625  0.00  0.00    +0.000 A 
ATOM     23  C   UNL     1       2.174   8.150  18.475  0.00  0.00    +0.000 A 
ATOM     24  C   UNL     1       1.449   9.330  18.483  0.00  0.00    +0.000 A 
BRANCH  22  25
ATOM     25  O   UNL     1       2.940   6.169  19.694  0.00  0.00    +0.000 OA
BRANCH  25  26
ATOM     26  C   UNL     1       2.250   4.982  19.595  0.00  0.00    +0.000 A 
ATOM     27  C   UNL     1       2.010   4.484  18.314  0.00  0.00    +0.000 A 
ATOM     28  C   UNL     1       1.324   3.277  18.161  0.00  0.00    +0.000 A 
ATOM     29  C   UNL     1       0.894   2.568  19.286  0.00  0.00    +0.000 A 
ATOM     30  C   UNL     1       1.145   3.059  20.567  0.00  0.00    +0.000 A 
ATOM     31  C   UNL     1       1.835   4.249  20.714  0.00  0.00    +0.000 A 
ENDBRANCH  25  26
ENDBRANCH  22  25
ENDBRANCH  18  19
ENDBRANCH   1  18
TORSDOF 5
ENDMDL
MODEL 7
REMARK VINA RESULT:      -8.0      0.728      1.129
REMARK  Name = 
REMARK  5 active torsions:
REMARK  status: ('A' for Active; 'I' for Inactive)
REMARK    1  A    between atoms: C_2  and  C_3
REMARK    2  A    between atoms: C_2  and  C_18
REMARK    3  A    between atoms: C_3  and  N_4
REMARK    4  A    between atoms: C_21  and  O_22
REMARK    5  A    between atoms: O_22  and  C_23
REMARK                            x       y       z     vdW  Elec       q    Type
REMARK                         _______ _______ _______ _____ _____    ______ ____
ROOT
ATOM      1  C   UNL     1       1.013  11.917  19.422  0.00  0.00    +0.000 C 
ENDROOT
BRANCH   1   2
ATOM      2  N   UNL     1      -0.051  12.547  20.148  0.00  0.00    +0.000 N 
ATOM      3  C   UNL     1      -0.730  13.651  19.721  0.00  0.00    +0.000 C 
ATOM      4  O   UNL     1      -0.600  14.236  18.666  0.00  0.00    +0.000 OA
ATOM      5  N   UNL     1      -1.564  14.048  20.731  0.00  0.00    +0.000 N 
ATOM      6  C   UNL     1      -1.485  13.224  21.920  0.00  0.00    +0.000 C 
ATOM      7  C   UNL     1      -2.781  12.431  22.135  0.00  0.00    +0.000 C 
ATOM      8  C   UNL     1      -3.817  13.061  23.064  0.00  0.00    +0.000 C 
ATOM      9  C   UNL     1      -4.458  14.345  22.544  0.00  0.00    +0.000 C 
ATOM     10  C   UNL     1      -3.725  15.677  22.729  0.00  0.00    +0.000 C 
ATOM     11  C   UNL     1      -2.635  15.762  23.793  0.00  0.00    +0.000 C 
ATOM     12  C   UNL     1      -1.232  15.426  23.293  0.00  0.00    +0.000 C 
ATOM     13  C   UNL     1      -0.914  13.943  23.154  0.00  0.00    +0.000 C 
ATOM     14  C   UNL     1      -0.376  12.260  21.440  0.00  0.00    +0.000 C 
ATOM     15  O   UNL     1       0.162  11.395  22.130  0.00  0.00    +0.000 OA
ATOM     16  H   UNL     1      -2.183  14.836  20.582  0.00  0.00    +0.000 HD
ENDBRANCH   1   2
BRANCH   1  18
ATOM     17  O   UNL     1      -0.567  10.623  18.138  0.00  0.00    +0.000 OA
ATOM     18  C   UNL     1       0.484  10.654  18.767  0.00  0.00    +0.000 C 
BRANCH  18  19
ATOM     19  C   UNL     1       1.256   9.396  18.955  0.00  0.00    +0.000 A 
ATOM     20  C   UNL     1       1.957   8.777  17.910  0.00  0.00    +0.000 A 
ATOM     21  C   UNL     1       2.602   7.557  18.134  0.00  0.00    +0.000 A 
ATOM     22  C   UNL     1       2.570   6.976  19.398  0.00  0.00    +0.000 A 
ATOM     23  C   UNL     1       1.868   7.606  20.436  0.00  0.00    +0.000 A 
ATOM     24  C   UNL     1       1.234   8.818  20.218  0.00  0.00    +0.000 A 
BRANCH  22  25
ATOM     25  O   UNL     1       3.219   5.772  19.538  0.00  0.00    +0.000 OA
BRANCH  25  26
ATOM     26  C   UNL     1       2.533   4.612  19.259  0.00  0.00    +0.000 A 
ATOM     27  C   UNL     1       1.503   4.252  20.127  0.00  0.00    +0.000 A 
ATOM     28  C   UNL     1       0.768   3.090  19.880  0.00  0.00    +0.000 A 
ATOM     29  C   UNL     1       1.057   2.302  18.762  0.00  0.00    +0.000 A 
ATOM     30  C   UNL     1       2.078   2.669  17.887  0.00  0.00    +0.000 A 
ATOM     31  C   UNL     1       2.795   3.827  18.129  0.00  0.00    +0.000 A 
ENDBRANCH  25  26
ENDBRANCH  22  25
ENDBRANCH  18  19
ENDBRANCH   1  18
TORSDOF 5
ENDMDL
MODEL 8
REMARK VINA RESULT:      -8.0      1.522      2.712
REMARK  Name = 
REMARK  5 active torsions:
REMARK  status: ('A' for Active; 'I' for Inactive)
REMARK    1  A    between atoms: C_2  and  C_3
REMARK    2  A    between atoms: C_2  and  C_18
REMARK    3  A    between atoms: C_3  and  N_4
REMARK    4  A    between atoms: C_21  and  O_22
REMARK    5  A    between atoms: O_22  and  C_23
REMARK                            x       y       z     vdW  Elec       q    Type
REMARK                         _______ _______ _______ _____ _____    ______ ____
ROOT
ATOM      1  C   UNL     1      -0.543   9.830  20.590  0.00  0.00    +0.000 C 
ENDROOT
BRANCH   1   2
ATOM      2  N   UNL     1      -0.915  10.973  21.373  0.00  0.00    +0.000 N 
ATOM      3  C   UNL     1      -0.697  11.095  22.714  0.00  0.00    +0.000 C 
ATOM      4  O   UNL     1      -0.119  10.316  23.442  0.00  0.00    +0.000 OA
ATOM      5  N   UNL     1      -1.311  12.243  23.137  0.00  0.00    +0.000 N 
ATOM      6  C   UNL     1      -1.997  12.967  22.086  0.00  0.00    +0.000 C 
ATOM      7  C   UNL     1      -1.306  14.304  21.787  0.00  0.00    +0.000 C 
ATOM      8  C   UNL     1      -1.856  15.531  22.512  0.00  0.00    +0.000 C 
ATOM      9  C   UNL     1      -1.647  15.538  24.024  0.00  0.00    +0.000 C 
ATOM     10  C   UNL     1      -2.628  14.774  24.919  0.00  0.00    +0.000 C 
ATOM     11  C   UNL     1      -4.001  14.421  24.354  0.00  0.00    +0.000 C 
ATOM     12  C   UNL     1      -4.073  13.063  23.663  0.00  0.00    +0.000 C 
ATOM     13  C   UNL     1      -3.527  13.011  22.241  0.00  0.00    +0.000 C 
ATOM     14  C   UNL     1      -1.717  11.982  20.928  0.00  0.00    +0.000 C 
ATOM     15  O   UNL     1      -2.181  12.069  19.792  0.00  0.00    +0.000 OA
ATOM     16  H   UNL     1      -1.224  12.524  24.107  0.00  0.00    +0.000 HD
ENDBRANCH   1   2
BRANCH   1  18
ATOM     17  O   UNL     1       1.298  11.208  19.862  0.00  0.00    +0.000 OA
ATOM     18  C   UNL     1       0.811  10.088  19.954  0.00  0.00    +0.000 C 
BRANCH  18  19
ATOM     19  C   UNL     1       1.539   8.928  19.372  0.00  0.00    +0.000 A 
ATOM     20  C   UNL     1       1.854   7.783  20.118  0.00  0.00    +0.000 A 
ATOM     21  C   UNL     1       2.605   6.759  19.533  0.00  0.00    +0.000 A 
ATOM     22  C   UNL     1       3.012   6.866  18.207  0.00  0.00    +0.000 A 
ATOM     23  C   UNL     1       2.688   8.015  17.471  0.00  0.00    +0.000 A 
ATOM     24  C   UNL     1       1.938   9.028  18.045  0.00  0.00    +0.000 A 
BRANCH  22  25
ATOM     25  O   UNL     1       3.754   5.823  17.706  0.00  0.00    +0.000 OA
BRANCH  25  26
ATOM     26  C   UNL     1       3.413   4.537  18.058  0.00  0.00    +0.000 A 
ATOM     27  C   UNL     1       4.296   3.842  18.884  0.00  0.00    +0.000 A 
ATOM     28  C   UNL     1       3.989   2.538  19.279  0.00  0.00    +0.000 A 
ATOM     29  C   UNL     1       2.796   1.941  18.859  0.00  0.00    +0.000 A 
ATOM     30  C   UNL     1       1.907   2.640  18.044  0.00  0.00    +0.000 A 
ATOM     31  C   UNL     1       2.210   3.935  17.665  0.00  0.00    +0.000 A 
ENDBRANCH  25  26
ENDBRANCH  22  25
ENDBRANCH  18  19
ENDBRANCH   1  18
TORSDOF 5
ENDMDL
MODEL 9
REMARK VINA RESULT:      -8.0      0.909      2.411
REMARK  Name = 
REMARK  5 active torsions:
REMARK  status: ('A' for Active; 'I' for Inactive)
REMARK    1  A    between atoms: C_2  and  C_3
REMARK    2  A    between atoms: C_2  and  C_18
REMARK    3  A    between atoms: C_3  and  N_4
REMARK    4  A    between atoms: C_21  and  O_22
REMARK    5  A    between atoms: O_22  and  C_23
REMARK                            x       y       z     vdW  Elec       q    Type
REMARK                         _______ _______ _______ _____ _____    ______ ____
ROOT
ATOM      1  C   UNL     1       1.032  12.106  20.113  0.00  0.00    +0.000 C 
ENDROOT
BRANCH   1   2
ATOM      2  N   UNL     1      -0.008  12.514  21.014  0.00  0.00    +0.000 N 
ATOM      3  C   UNL     1      -0.416  11.794  22.098  0.00  0.00    +0.000 C 
ATOM      4  O   UNL     1       0.050  10.753  22.513  0.00  0.00    +0.000 OA
ATOM      5  N   UNL     1      -1.513  12.418  22.628  0.00  0.00    +0.000 N 
ATOM      6  C   UNL     1      -1.918  13.609  21.910  0.00  0.00    +0.000 C 
ATOM      7  C   UNL     1      -1.691  14.872  22.752  0.00  0.00    +0.000 C 
ATOM      8  C   UNL     1      -2.886  15.374  23.561  0.00  0.00    +0.000 C 
ATOM      9  C   UNL     1      -3.331  14.459  24.698  0.00  0.00    +0.000 C 
ATOM     10  C   UNL     1      -4.249  13.272  24.389  0.00  0.00    +0.000 C 
ATOM     11  C   UNL     1      -5.047  13.292  23.089  0.00  0.00    +0.000 C 
ATOM     12  C   UNL     1      -4.341  12.643  21.901  0.00  0.00    +0.000 C 
ATOM     13  C   UNL     1      -3.283  13.495  21.210  0.00  0.00    +0.000 C 
ATOM     14  C   UNL     1      -0.859  13.554  20.786  0.00  0.00    +0.000 C 
ATOM     15  O   UNL     1      -0.816  14.304  19.811  0.00  0.00    +0.000 OA
ATOM     16  H   UNL     1      -1.936  12.047  23.471  0.00  0.00    +0.000 HD
ENDBRANCH   1   2
BRANCH   1  18
ATOM     17  O   UNL     1      -0.501  11.258  18.455  0.00  0.00    +0.000 OA
ATOM     18  C   UNL     1       0.478  11.059  19.163  0.00  0.00    +0.000 C 
BRANCH  18  19
ATOM     19  C   UNL     1       1.129   9.721  19.146  0.00  0.00    +0.000 A 
ATOM     20  C   UNL     1       1.155   8.879  20.267  0.00  0.00    +0.000 A 
ATOM     21  C   UNL     1       1.848   7.667  20.208  0.00  0.00    +0.000 A 
ATOM     22  C   UNL     1       2.485   7.287  19.031  0.00  0.00    +0.000 A 
ATOM     23  C   UNL     1       2.450   8.136  17.916  0.00  0.00    +0.000 A 
ATOM     24  C   UNL     1       1.758   9.335  17.969  0.00  0.00    +0.000 A 
BRANCH  22  25
ATOM     25  O   UNL     1       3.153   6.085  19.054  0.00  0.00    +0.000 OA
BRANCH  25  26
ATOM     26  C   UNL     1       2.448   4.941  19.353  0.00  0.00    +0.000 A 
ATOM     27  C   UNL     1       2.454   4.513  20.681  0.00  0.00    +0.000 A 
ATOM     28  C   UNL     1       1.744   3.364  21.038  0.00  0.00    +0.000 A 
ATOM     29  C   UNL     1       1.023   2.657  20.071  0.00  0.00    +0.000 A 
ATOM     30  C   UNL     1       1.007   3.092  18.747  0.00  0.00    +0.000 A 
ATOM     31  C   UNL     1       1.702   4.237  18.400  0.00  0.00    +0.000 A 
ENDBRANCH  25  26
ENDBRANCH  22  25
ENDBRANCH  18  19
ENDBRANCH   1  18
TORSDOF 5
ENDMDL
