MODEL 1
REMARK VINA RESULT:      -7.3      0.000      0.000
REMARK  Name = 
REMARK  11 active torsions:
REMARK  status: ('A' for Active; 'I' for Inactive)
REMARK    1  A    between atoms: C_1  and  O_2
REMARK    2  A    between atoms: O_2  and  C_3
REMARK    3  A    between atoms: C_6  and  C_7
REMARK    4  A    between atoms: C_7  and  C_8
REMARK    5  A    between atoms: C_8  and  C_9
REMARK    6  A    between atoms: C_9  and  C_11
REMARK    7  A    between atoms: C_12  and  C_13
REMARK    8  A    between atoms: C_16  and  O_17
REMARK    9  A    between atoms: C_18  and  O_19
REMARK   10  A    between atoms: C_22  and  O_23
REMARK   11  A    between atoms: O_23  and  C_24
REMARK                            x       y       z     vdW  Elec       q    Type
REMARK                         _______ _______ _______ _____ _____    ______ ____
ROOT
ATOM      1  C   UNL     1       1.997   3.508  19.910  0.00  0.00    +0.000 C 
ATOM      2  O   UNL     1       1.150   2.652  20.130  0.00  0.00    +0.000 OA
ENDROOT
BRANCH   1   3
ATOM      3  C   UNL     1       1.619   4.924  19.608  0.00  0.00    +0.000 C 
ATOM      4  C   UNL     1       2.221   5.952  20.237  0.00  0.00    +0.000 C 
BRANCH   4   5
ATOM      5  C   UNL     1       1.880   7.359  19.994  0.00  0.00    +0.000 A 
ATOM      6  C   UNL     1       1.254   8.099  21.015  0.00  0.00    +0.000 A 
ATOM      7  C   UNL     1       0.858   9.426  20.806  0.00  0.00    +0.000 A 
ATOM      8  C   UNL     1       1.080  10.013  19.567  0.00  0.00    +0.000 A 
ATOM      9  C   UNL     1       1.688   9.286  18.548  0.00  0.00    +0.000 A 
ATOM     10  C   UNL     1       2.088   7.973  18.749  0.00  0.00    +0.000 A 
BRANCH   8  11
ATOM     11  O   UNL     1       0.713  11.301  19.297  0.00  0.00    +0.000 OA
ATOM     12  H   UNL     1       0.383  11.337  18.383  0.00  0.00    +0.000 HD
ENDBRANCH   8  11
BRANCH   9  13
ATOM     13  O   UNL     1       1.886   9.861  17.325  0.00  0.00    +0.000 OA
ATOM     14  H   UNL     1       1.504  10.758  17.410  0.00  0.00    +0.000 HD
ENDBRANCH   9  13
ENDBRANCH   4   5
ENDBRANCH   1   3
BRANCH   1  15
ATOM     15  C   UNL     1       3.479   3.185  19.886  0.00  0.00    +0.000 C 
BRANCH  15  16
ATOM     16  C   UNL     1       4.001   2.992  18.462  0.00  0.00    +0.000 C 
BRANCH  16  20
ATOM     17  C   UNL     1       6.703   6.107  17.148  0.00  0.00    +0.000 A 
ATOM     18  C   UNL     1       6.451   5.896  18.515  0.00  0.00    +0.000 A 
ATOM     19  C   UNL     1       5.591   4.887  18.949  0.00  0.00    +0.000 A 
ATOM     20  C   UNL     1       4.895   4.122  18.018  0.00  0.00    +0.000 A 
ATOM     21  C   UNL     1       5.058   4.408  16.657  0.00  0.00    +0.000 A 
ATOM     22  C   UNL     1       5.949   5.398  16.204  0.00  0.00    +0.000 A 
BRANCH  17  24
ATOM     23  C   UNL     1       7.863   8.099  17.642  0.00  0.00    +0.000 C 
ATOM     24  O   UNL     1       7.687   6.982  16.757  0.00  0.00    +0.000 OA
ENDBRANCH  17  24
BRANCH  22  25
ATOM     25  O   UNL     1       5.940   5.466  14.838  0.00  0.00    +0.000 OA
ATOM     26  C   UNL     1       6.686   4.535  14.074  0.00  0.00    +0.000 C 
ENDBRANCH  22  25
ENDBRANCH  16  20
ENDBRANCH  15  16
ENDBRANCH   1  15
TORSDOF 9
ENDMDL
MODEL 2
REMARK VINA RESULT:      -7.2      1.045      2.449
REMARK  Name = 
REMARK  11 active torsions:
REMARK  status: ('A' for Active; 'I' for Inactive)
REMARK    1  A    between atoms: C_1  and  O_2
REMARK    2  A    between atoms: O_2  and  C_3
REMARK    3  A    between atoms: C_6  and  C_7
REMARK    4  A    between atoms: C_7  and  C_8
REMARK    5  A    between atoms: C_8  and  C_9
REMARK    6  A    between atoms: C_9  and  C_11
REMARK    7  A    between atoms: C_12  and  C_13
REMARK    8  A    between atoms: C_16  and  O_17
REMARK    9  A    between atoms: C_18  and  O_19
REMARK   10  A    between atoms: C_22  and  O_23
REMARK   11  A    between atoms: O_23  and  C_24
REMARK                            x       y       z     vdW  Elec       q    Type
REMARK                         _______ _______ _______ _____ _____    ______ ____
ROOT
ATOM      1  C   UNL     1       2.275   3.810  21.014  0.00  0.00    +0.000 C 
ATOM      2  O   UNL     1       2.219   3.437  22.178  0.00  0.00    +0.000 OA
ENDROOT
BRANCH   1   3
ATOM      3  C   UNL     1       1.746   5.145  20.592  0.00  0.00    +0.000 C 
ATOM      4  C   UNL     1       2.527   6.024  19.935  0.00  0.00    +0.000 C 
BRANCH   4   5
ATOM      5  C   UNL     1       2.068   7.353  19.511  0.00  0.00    +0.000 A 
ATOM      6  C   UNL     1       2.321   7.777  18.193  0.00  0.00    +0.000 A 
ATOM      7  C   UNL     1       1.955   9.059  17.764  0.00  0.00    +0.000 A 
ATOM      8  C   UNL     1       1.341   9.924  18.661  0.00  0.00    +0.000 A 
ATOM      9  C   UNL     1       1.096   9.517  19.969  0.00  0.00    +0.000 A 
ATOM     10  C   UNL     1       1.452   8.247  20.399  0.00  0.00    +0.000 A 
BRANCH   8  11
ATOM     11  O   UNL     1       0.963  11.189  18.307  0.00  0.00    +0.000 OA
ATOM     12  H   UNL     1       1.658  11.565  17.739  0.00  0.00    +0.000 HD
ENDBRANCH   8  11
BRANCH   9  13
ATOM     13  O   UNL     1       0.510  10.379  20.852  0.00  0.00    +0.000 OA
ATOM     14  H   UNL     1       0.722  11.269  20.505  0.00  0.00    +0.000 HD
ENDBRANCH   9  13
ENDBRANCH   4   5
ENDBRANCH   1   3
BRANCH   1  15
ATOM     15  C   UNL     1       2.841   2.931  19.914  0.00  0.00    +0.000 C 
BRANCH  15  16
ATOM     16  C   UNL     1       4.367   3.002  19.852  0.00  0.00    +0.000 C 
BRANCH  16  20
ATOM     17  C   UNL     1       5.717   4.933  16.221  0.00  0.00    +0.000 A 
ATOM     18  C   UNL     1       4.608   4.067  16.212  0.00  0.00    +0.000 A 
ATOM     19  C   UNL     1       4.159   3.450  17.380  0.00  0.00    +0.000 A 
ATOM     20  C   UNL     1       4.863   3.617  18.568  0.00  0.00    +0.000 A 
ATOM     21  C   UNL     1       6.033   4.386  18.552  0.00  0.00    +0.000 A 
ATOM     22  C   UNL     1       6.479   5.044  17.391  0.00  0.00    +0.000 A 
BRANCH  17  24
ATOM     23  C   UNL     1       6.923   5.002  14.197  0.00  0.00    +0.000 C 
ATOM     24  O   UNL     1       6.026   5.665  15.101  0.00  0.00    +0.000 OA
ENDBRANCH  17  24
BRANCH  22  25
ATOM     25  O   UNL     1       7.626   5.743  17.644  0.00  0.00    +0.000 OA
ATOM     26  C   UNL     1       7.583   7.151  17.794  0.00  0.00    +0.000 C 
ENDBRANCH  22  25
ENDBRANCH  16  20
ENDBRANCH  15  16
ENDBRANCH   1  15
TORSDOF 9
ENDMDL
MODEL 3
REMARK VINA RESULT:      -7.2      0.794      1.434
REMARK  Name = 
REMARK  11 active torsions:
REMARK  status: ('A' for Active; 'I' for Inactive)
REMARK    1  A    between atoms: C_1  and  O_2
REMARK    2  A    between atoms: O_2  and  C_3
REMARK    3  A    between atoms: C_6  and  C_7
REMARK    4  A    between atoms: C_7  and  C_8
REMARK    5  A    between atoms: C_8  and  C_9
REMARK    6  A    between atoms: C_9  and  C_11
REMARK    7  A    between atoms: C_12  and  C_13
REMARK    8  A    between atoms: C_16  and  O_17
REMARK    9  A    between atoms: C_18  and  O_19
REMARK   10  A    between atoms: C_22  and  O_23
REMARK   11  A    between atoms: O_23  and  C_24
REMARK                            x       y       z     vdW  Elec       q    Type
REMARK                         _______ _______ _______ _____ _____    ______ ____
ROOT
ATOM      1  C   UNL     1       2.676   3.510  20.766  0.00  0.00    +0.000 C 
ATOM      2  O   UNL     1       2.180   3.141  21.822  0.00  0.00    +0.000 OA
ENDROOT
BRANCH   1   3
ATOM      3  C   UNL     1       2.183   4.729  20.052  0.00  0.00    +0.000 C 
ATOM      4  C   UNL     1       2.488   5.963  20.495  0.00  0.00    +0.000 C 
BRANCH   4   5
ATOM      5  C   UNL     1       2.019   7.194  19.844  0.00  0.00    +0.000 A 
ATOM      6  C   UNL     1       2.278   7.385  18.473  0.00  0.00    +0.000 A 
ATOM      7  C   UNL     1       1.903   8.569  17.826  0.00  0.00    +0.000 A 
ATOM      8  C   UNL     1       1.274   9.570  18.554  0.00  0.00    +0.000 A 
ATOM      9  C   UNL     1       1.023   9.394  19.912  0.00  0.00    +0.000 A 
ATOM     10  C   UNL     1       1.388   8.222  20.559  0.00  0.00    +0.000 A 
BRANCH   8  11
ATOM     11  O   UNL     1       0.887  10.750  17.984  0.00  0.00    +0.000 OA
ATOM     12  H   UNL     1       1.679  11.301  17.861  0.00  0.00    +0.000 HD
ENDBRANCH   8  11
BRANCH   9  13
ATOM     13  O   UNL     1       0.421  10.390  20.628  0.00  0.00    +0.000 OA
ATOM     14  H   UNL     1      -0.164  10.836  19.985  0.00  0.00    +0.000 HD
ENDBRANCH   9  13
ENDBRANCH   4   5
ENDBRANCH   1   3
BRANCH   1  15
ATOM     15  C   UNL     1       3.792   2.736  20.090  0.00  0.00    +0.000 C 
BRANCH  15  16
ATOM     16  C   UNL     1       3.770   2.907  18.571  0.00  0.00    +0.000 C 
BRANCH  16  20
ATOM     17  C   UNL     1       6.651   5.813  17.159  0.00  0.00    +0.000 A 
ATOM     18  C   UNL     1       6.455   5.596  18.535  0.00  0.00    +0.000 A 
ATOM     19  C   UNL     1       5.537   4.653  18.999  0.00  0.00    +0.000 A 
ATOM     20  C   UNL     1       4.731   3.967  18.096  0.00  0.00    +0.000 A 
ATOM     21  C   UNL     1       4.845   4.267  16.734  0.00  0.00    +0.000 A 
ATOM     22  C   UNL     1       5.791   5.188  16.247  0.00  0.00    +0.000 A 
BRANCH  17  24
ATOM     23  C   UNL     1       7.804   7.849  17.446  0.00  0.00    +0.000 C 
ATOM     24  O   UNL     1       7.683   6.611  16.729  0.00  0.00    +0.000 OA
ENDBRANCH  17  24
BRANCH  22  25
ATOM     25  O   UNL     1       5.715   5.284  14.885  0.00  0.00    +0.000 OA
ATOM     26  C   UNL     1       6.056   4.174  14.074  0.00  0.00    +0.000 C 
ENDBRANCH  22  25
ENDBRANCH  16  20
ENDBRANCH  15  16
ENDBRANCH   1  15
TORSDOF 9
ENDMDL
MODEL 4
REMARK VINA RESULT:      -7.1      1.271      2.361
REMARK  Name = 
REMARK  11 active torsions:
REMARK  status: ('A' for Active; 'I' for Inactive)
REMARK    1  A    between atoms: C_1  and  O_2
REMARK    2  A    between atoms: O_2  and  C_3
REMARK    3  A    between atoms: C_6  and  C_7
REMARK    4  A    between atoms: C_7  and  C_8
REMARK    5  A    between atoms: C_8  and  C_9
REMARK    6  A    between atoms: C_9  and  C_11
REMARK    7  A    between atoms: C_12  and  C_13
REMARK    8  A    between atoms: C_16  and  O_17
REMARK    9  A    between atoms: C_18  and  O_19
REMARK   10  A    between atoms: C_22  and  O_23
REMARK   11  A    between atoms: O_23  and  C_24
REMARK                            x       y       z     vdW  Elec       q    Type
REMARK                         _______ _______ _______ _____ _____    ______ ____
ROOT
ATOM      1  C   UNL     1       1.540   3.601  20.896  0.00  0.00    +0.000 C 
ATOM      2  O   UNL     1       1.978   3.288  21.996  0.00  0.00    +0.000 OA
ENDROOT
BRANCH   1   3
ATOM      3  C   UNL     1       1.178   5.016  20.570  0.00  0.00    +0.000 C 
ATOM      4  C   UNL     1       2.130   5.937  20.331  0.00  0.00    +0.000 C 
BRANCH   4   5
ATOM      5  C   UNL     1       1.834   7.343  20.022  0.00  0.00    +0.000 A 
ATOM      6  C   UNL     1       1.233   8.149  21.007  0.00  0.00    +0.000 A 
ATOM      7  C   UNL     1       0.879   9.477  20.737  0.00  0.00    +0.000 A 
ATOM      8  C   UNL     1       1.118   9.998  19.472  0.00  0.00    +0.000 A 
ATOM      9  C   UNL     1       1.701   9.205  18.488  0.00  0.00    +0.000 A 
ATOM     10  C   UNL     1       2.059   7.890  18.750  0.00  0.00    +0.000 A 
BRANCH   8  11
ATOM     11  O   UNL     1       0.792  11.283  19.142  0.00  0.00    +0.000 OA
ATOM     12  H   UNL     1       0.498  11.293  18.215  0.00  0.00    +0.000 HD
ENDBRANCH   8  11
BRANCH   9  13
ATOM     13  O   UNL     1       1.917   9.716  17.240  0.00  0.00    +0.000 OA
ATOM     14  H   UNL     1       2.218  10.634  17.398  0.00  0.00    +0.000 HD
ENDBRANCH   9  13
ENDBRANCH   4   5
ENDBRANCH   1   3
BRANCH   1  15
ATOM     15  C   UNL     1       1.296   2.573  19.807  0.00  0.00    +0.000 C 
BRANCH  15  16
ATOM     16  C   UNL     1       2.593   1.914  19.339  0.00  0.00    +0.000 C 
BRANCH  16  20
ATOM     17  C   UNL     1       4.992   4.724  17.084  0.00  0.00    +0.000 A 
ATOM     18  C   UNL     1       3.763   4.255  16.584  0.00  0.00    +0.000 A 
ATOM     19  C   UNL     1       2.978   3.359  17.309  0.00  0.00    +0.000 A 
ATOM     20  C   UNL     1       3.446   2.843  18.513  0.00  0.00    +0.000 A 
ATOM     21  C   UNL     1       4.720   3.221  18.955  0.00  0.00    +0.000 A 
ATOM     22  C   UNL     1       5.508   4.152  18.254  0.00  0.00    +0.000 A 
BRANCH  17  24
ATOM     23  C   UNL     1       5.985   5.446  15.072  0.00  0.00    +0.000 C 
ATOM     24  O   UNL     1       5.655   5.739  16.438  0.00  0.00    +0.000 OA
ENDBRANCH  17  24
BRANCH  22  25
ATOM     25  O   UNL     1       6.693   4.366  18.902  0.00  0.00    +0.000 OA
ATOM     26  C   UNL     1       7.025   5.662  19.368  0.00  0.00    +0.000 C 
ENDBRANCH  22  25
ENDBRANCH  16  20
ENDBRANCH  15  16
ENDBRANCH   1  15
TORSDOF 9
ENDMDL
MODEL 5
REMARK VINA RESULT:      -7.1      3.602      7.298
REMARK  Name = 
REMARK  11 active torsions:
REMARK  status: ('A' for Active; 'I' for Inactive)
REMARK    1  A    between atoms: C_1  and  O_2
REMARK    2  A    between atoms: O_2  and  C_3
REMARK    3  A    between atoms: C_6  and  C_7
REMARK    4  A    between atoms: C_7  and  C_8
REMARK    5  A    between atoms: C_8  and  C_9
REMARK    6  A    between atoms: C_9  and  C_11
REMARK    7  A    between atoms: C_12  and  C_13
REMARK    8  A    between atoms: C_16  and  O_17
REMARK    9  A    between atoms: C_18  and  O_19
REMARK   10  A    between atoms: C_22  and  O_23
REMARK   11  A    between atoms: O_23  and  C_24
REMARK                            x       y       z     vdW  Elec       q    Type
REMARK                         _______ _______ _______ _____ _____    ______ ____
ROOT
ATOM      1  C   UNL     1       7.542   7.658  17.585  0.00  0.00    +0.000 C 
ATOM      2  O   UNL     1       6.821   7.455  16.617  0.00  0.00    +0.000 OA
ENDROOT
BRANCH   1   3
ATOM      3  C   UNL     1       8.247   8.964  17.778  0.00  0.00    +0.000 C 
ATOM      4  C   UNL     1       8.830   9.270  18.952  0.00  0.00    +0.000 C 
BRANCH   4   5
ATOM      5  C   UNL     1       9.521  10.542  19.203  0.00  0.00    +0.000 A 
ATOM      6  C   UNL     1       9.619  11.019  20.524  0.00  0.00    +0.000 A 
ATOM      7  C   UNL     1      10.216  12.255  20.803  0.00  0.00    +0.000 A 
ATOM      8  C   UNL     1      10.708  13.022  19.756  0.00  0.00    +0.000 A 
ATOM      9  C   UNL     1      10.605  12.564  18.446  0.00  0.00    +0.000 A 
ATOM     10  C   UNL     1      10.019  11.339  18.162  0.00  0.00    +0.000 A 
BRANCH   8  11
ATOM     11  O   UNL     1      11.297  14.238  19.960  0.00  0.00    +0.000 OA
ATOM     12  H   UNL     1      11.420  14.664  19.094  0.00  0.00    +0.000 HD
ENDBRANCH   8  11
BRANCH   9  13
ATOM     13  O   UNL     1      11.073  13.331  17.417  0.00  0.00    +0.000 OA
ATOM     14  H   UNL     1      10.480  14.109  17.401  0.00  0.00    +0.000 HD
ENDBRANCH   9  13
ENDBRANCH   4   5
ENDBRANCH   1   3
BRANCH   1  15
ATOM     15  C   UNL     1       7.804   6.589  18.629  0.00  0.00    +0.000 C 
BRANCH  15  16
ATOM     16  C   UNL     1       7.569   5.181  18.081  0.00  0.00    +0.000 C 
BRANCH  16  20
ATOM     17  C   UNL     1       3.393   4.063  17.864  0.00  0.00    +0.000 A 
ATOM     18  C   UNL     1       4.253   3.872  16.767  0.00  0.00    +0.000 A 
ATOM     19  C   UNL     1       5.603   4.219  16.831  0.00  0.00    +0.000 A 
ATOM     20  C   UNL     1       6.104   4.845  17.968  0.00  0.00    +0.000 A 
ATOM     21  C   UNL     1       5.223   5.140  19.015  0.00  0.00    +0.000 A 
ATOM     22  C   UNL     1       3.867   4.765  18.979  0.00  0.00    +0.000 A 
BRANCH  17  24
ATOM     23  C   UNL     1       2.002   2.242  18.417  0.00  0.00    +0.000 C 
ATOM     24  O   UNL     1       2.119   3.550  17.837  0.00  0.00    +0.000 OA
ENDBRANCH  17  24
BRANCH  22  25
ATOM     25  O   UNL     1       3.230   5.147  20.128  0.00  0.00    +0.000 OA
ATOM     26  C   UNL     1       2.266   6.184  20.096  0.00  0.00    +0.000 C 
ENDBRANCH  22  25
ENDBRANCH  16  20
ENDBRANCH  15  16
ENDBRANCH   1  15
TORSDOF 9
ENDMDL
MODEL 6
REMARK VINA RESULT:      -7.0      3.311      6.817
REMARK  Name = 
REMARK  11 active torsions:
REMARK  status: ('A' for Active; 'I' for Inactive)
REMARK    1  A    between atoms: C_1  and  O_2
REMARK    2  A    between atoms: O_2  and  C_3
REMARK    3  A    between atoms: C_6  and  C_7
REMARK    4  A    between atoms: C_7  and  C_8
REMARK    5  A    between atoms: C_8  and  C_9
REMARK    6  A    between atoms: C_9  and  C_11
REMARK    7  A    between atoms: C_12  and  C_13
REMARK    8  A    between atoms: C_16  and  O_17
REMARK    9  A    between atoms: C_18  and  O_19
REMARK   10  A    between atoms: C_22  and  O_23
REMARK   11  A    between atoms: O_23  and  C_24
REMARK                            x       y       z     vdW  Elec       q    Type
REMARK                         _______ _______ _______ _____ _____    ______ ____
ROOT
ATOM      1  C   UNL     1       7.582   7.085  17.402  0.00  0.00    +0.000 C 
ATOM      2  O   UNL     1       7.577   6.625  16.269  0.00  0.00    +0.000 OA
ENDROOT
BRANCH   1   3
ATOM      3  C   UNL     1       7.880   8.529  17.661  0.00  0.00    +0.000 C 
ATOM      4  C   UNL     1       8.754   8.896  18.617  0.00  0.00    +0.000 C 
BRANCH   4   5
ATOM      5  C   UNL     1       9.073  10.296  18.925  0.00  0.00    +0.000 A 
ATOM      6  C   UNL     1       9.408  10.648  20.247  0.00  0.00    +0.000 A 
ATOM      7  C   UNL     1       9.661  11.980  20.598  0.00  0.00    +0.000 A 
ATOM      8  C   UNL     1       9.569  12.966  19.625  0.00  0.00    +0.000 A 
ATOM      9  C   UNL     1       9.227  12.630  18.319  0.00  0.00    +0.000 A 
ATOM     10  C   UNL     1       8.980  11.312  17.962  0.00  0.00    +0.000 A 
BRANCH   8  11
ATOM     11  O   UNL     1       9.798  14.284  19.903  0.00  0.00    +0.000 OA
ATOM     12  H   UNL     1      10.425  14.332  20.646  0.00  0.00    +0.000 HD
ENDBRANCH   8  11
BRANCH   9  13
ATOM     13  O   UNL     1       9.119  13.607  17.370  0.00  0.00    +0.000 OA
ATOM     14  H   UNL     1       8.511  14.265  17.763  0.00  0.00    +0.000 HD
ENDBRANCH   9  13
ENDBRANCH   4   5
ENDBRANCH   1   3
BRANCH   1  15
ATOM     15  C   UNL     1       7.330   6.219  18.623  0.00  0.00    +0.000 C 
BRANCH  15  16
ATOM     16  C   UNL     1       6.784   4.842  18.246  0.00  0.00    +0.000 C 
BRANCH  16  20
ATOM     17  C   UNL     1       2.619   4.523  19.380  0.00  0.00    +0.000 A 
ATOM     18  C   UNL     1       3.539   3.511  19.708  0.00  0.00    +0.000 A 
ATOM     19  C   UNL     1       4.886   3.610  19.357  0.00  0.00    +0.000 A 
ATOM     20  C   UNL     1       5.325   4.687  18.593  0.00  0.00    +0.000 A 
ATOM     21  C   UNL     1       4.387   5.635  18.168  0.00  0.00    +0.000 A 
ATOM     22  C   UNL     1       3.033   5.568  18.544  0.00  0.00    +0.000 A 
BRANCH  17  24
ATOM     23  C   UNL     1       1.044   3.292  20.629  0.00  0.00    +0.000 C 
ATOM     24  O   UNL     1       1.345   4.486  19.891  0.00  0.00    +0.000 OA
ENDBRANCH  17  24
BRANCH  22  25
ATOM     25  O   UNL     1       2.334   6.620  18.020  0.00  0.00    +0.000 OA
ATOM     26  C   UNL     1       2.932   7.900  17.936  0.00  0.00    +0.000 C 
ENDBRANCH  22  25
ENDBRANCH  16  20
ENDBRANCH  15  16
ENDBRANCH   1  15
TORSDOF 9
ENDMDL
MODEL 7
REMARK VINA RESULT:      -7.0      0.883      2.078
REMARK  Name = 
REMARK  11 active torsions:
REMARK  status: ('A' for Active; 'I' for Inactive)
REMARK    1  A    between atoms: C_1  and  O_2
REMARK    2  A    between atoms: O_2  and  C_3
REMARK    3  A    between atoms: C_6  and  C_7
REMARK    4  A    between atoms: C_7  and  C_8
REMARK    5  A    between atoms: C_8  and  C_9
REMARK    6  A    between atoms: C_9  and  C_11
REMARK    7  A    between atoms: C_12  and  C_13
REMARK    8  A    between atoms: C_16  and  O_17
REMARK    9  A    between atoms: C_18  and  O_19
REMARK   10  A    between atoms: C_22  and  O_23
REMARK   11  A    between atoms: O_23  and  C_24
REMARK                            x       y       z     vdW  Elec       q    Type
REMARK                         _______ _______ _______ _____ _____    ______ ____
ROOT
ATOM      1  C   UNL     1       1.723   3.479  20.581  0.00  0.00    +0.000 C 
ATOM      2  O   UNL     1       1.341   2.933  21.608  0.00  0.00    +0.000 OA
ENDROOT
BRANCH   1   3
ATOM      3  C   UNL     1       1.322   4.881  20.244  0.00  0.00    +0.000 C 
ATOM      4  C   UNL     1       2.188   5.903  20.386  0.00  0.00    +0.000 C 
BRANCH   4   5
ATOM      5  C   UNL     1       1.846   7.299  20.086  0.00  0.00    +0.000 A 
ATOM      6  C   UNL     1       1.183   8.067  21.062  0.00  0.00    +0.000 A 
ATOM      7  C   UNL     1       0.784   9.384  20.798  0.00  0.00    +0.000 A 
ATOM      8  C   UNL     1       1.041   9.932  19.548  0.00  0.00    +0.000 A 
ATOM      9  C   UNL     1       1.686   9.177  18.573  0.00  0.00    +0.000 A 
ATOM     10  C   UNL     1       2.088   7.874  18.829  0.00  0.00    +0.000 A 
BRANCH   8  11
ATOM     11  O   UNL     1       0.674  11.208  19.225  0.00  0.00    +0.000 OA
ATOM     12  H   UNL     1       0.665  11.736  20.042  0.00  0.00    +0.000 HD
ENDBRANCH   8  11
BRANCH   9  13
ATOM     13  O   UNL     1       1.919   9.714  17.339  0.00  0.00    +0.000 OA
ATOM     14  H   UNL     1       1.059   9.652  16.877  0.00  0.00    +0.000 HD
ENDBRANCH   9  13
ENDBRANCH   4   5
ENDBRANCH   1   3
BRANCH   1  15
ATOM     15  C   UNL     1       2.588   2.761  19.563  0.00  0.00    +0.000 C 
BRANCH  15  16
ATOM     16  C   UNL     1       4.071   3.091  19.736  0.00  0.00    +0.000 C 
BRANCH  16  20
ATOM     17  C   UNL     1       5.770   4.930  16.205  0.00  0.00    +0.000 A 
ATOM     18  C   UNL     1       4.559   4.219  16.140  0.00  0.00    +0.000 A 
ATOM     19  C   UNL     1       3.998   3.632  17.275  0.00  0.00    +0.000 A 
ATOM     20  C   UNL     1       4.681   3.672  18.485  0.00  0.00    +0.000 A 
ATOM     21  C   UNL     1       5.941   4.280  18.525  0.00  0.00    +0.000 A 
ATOM     22  C   UNL     1       6.504   4.907  17.398  0.00  0.00    +0.000 A 
BRANCH  17  24
ATOM     23  C   UNL     1       6.919   4.864  14.148  0.00  0.00    +0.000 C 
ATOM     24  O   UNL     1       6.207   5.647  15.118  0.00  0.00    +0.000 OA
ENDBRANCH  17  24
BRANCH  22  25
ATOM     25  O   UNL     1       7.725   5.442  17.703  0.00  0.00    +0.000 OA
ATOM     26  C   UNL     1       7.866   6.303  18.819  0.00  0.00    +0.000 C 
ENDBRANCH  22  25
ENDBRANCH  16  20
ENDBRANCH  15  16
ENDBRANCH   1  15
TORSDOF 9
ENDMDL
MODEL 8
REMARK VINA RESULT:      -7.0      3.420      7.154
REMARK  Name = 
REMARK  11 active torsions:
REMARK  status: ('A' for Active; 'I' for Inactive)
REMARK    1  A    between atoms: C_1  and  O_2
REMARK    2  A    between atoms: O_2  and  C_3
REMARK    3  A    between atoms: C_6  and  C_7
REMARK    4  A    between atoms: C_7  and  C_8
REMARK    5  A    between atoms: C_8  and  C_9
REMARK    6  A    between atoms: C_9  and  C_11
REMARK    7  A    between atoms: C_12  and  C_13
REMARK    8  A    between atoms: C_16  and  O_17
REMARK    9  A    between atoms: C_18  and  O_19
REMARK   10  A    between atoms: C_22  and  O_23
REMARK   11  A    between atoms: O_23  and  C_24
REMARK                            x       y       z     vdW  Elec       q    Type
REMARK                         _______ _______ _______ _____ _____    ______ ____
ROOT
ATOM      1  C   UNL     1       7.265   7.216  17.351  0.00  0.00    +0.000 C 
ATOM      2  O   UNL     1       6.476   7.010  16.439  0.00  0.00    +0.000 OA
ENDROOT
BRANCH   1   3
ATOM      3  C   UNL     1       7.765   8.593  17.659  0.00  0.00    +0.000 C 
ATOM      4  C   UNL     1       8.675   8.799  18.630  0.00  0.00    +0.000 C 
BRANCH   4   5
ATOM      5  C   UNL     1       9.189  10.128  18.986  0.00  0.00    +0.000 A 
ATOM      6  C   UNL     1       9.662  10.976  17.967  0.00  0.00    +0.000 A 
ATOM      7  C   UNL     1      10.216  12.227  18.267  0.00  0.00    +0.000 A 
ATOM      8  C   UNL     1      10.306  12.628  19.594  0.00  0.00    +0.000 A 
ATOM      9  C   UNL     1       9.850  11.792  20.609  0.00  0.00    +0.000 A 
ATOM     10  C   UNL     1       9.296  10.554  20.319  0.00  0.00    +0.000 A 
BRANCH   8  11
ATOM     11  O   UNL     1      10.839  13.833  19.954  0.00  0.00    +0.000 OA
ATOM     12  H   UNL     1      11.804  13.730  20.019  0.00  0.00    +0.000 HD
ENDBRANCH   8  11
BRANCH   9  13
ATOM     13  O   UNL     1       9.958  12.183  21.913  0.00  0.00    +0.000 OA
ATOM     14  H   UNL     1      10.831  12.621  21.967  0.00  0.00    +0.000 HD
ENDBRANCH   9  13
ENDBRANCH   4   5
ENDBRANCH   1   3
BRANCH   1  15
ATOM     15  C   UNL     1       7.822   6.090  18.202  0.00  0.00    +0.000 C 
BRANCH  15  16
ATOM     16  C   UNL     1       6.846   5.665  19.300  0.00  0.00    +0.000 C 
BRANCH  16  20
ATOM     17  C   UNL     1       3.115   4.015  17.857  0.00  0.00    +0.000 A 
ATOM     18  C   UNL     1       4.343   3.634  17.288  0.00  0.00    +0.000 A 
ATOM     19  C   UNL     1       5.552   4.152  17.754  0.00  0.00    +0.000 A 
ATOM     20  C   UNL     1       5.552   5.129  18.744  0.00  0.00    +0.000 A 
ATOM     21  C   UNL     1       4.323   5.592  19.229  0.00  0.00    +0.000 A 
ATOM     22  C   UNL     1       3.097   5.055  18.795  0.00  0.00    +0.000 A 
BRANCH  17  24
ATOM     23  C   UNL     1       1.641   2.241  18.346  0.00  0.00    +0.000 C 
ATOM     24  O   UNL     1       1.961   3.359  17.504  0.00  0.00    +0.000 OA
ENDBRANCH  17  24
BRANCH  22  25
ATOM     25  O   UNL     1       2.051   5.660  19.435  0.00  0.00    +0.000 OA
ATOM     26  C   UNL     1       1.551   5.122  20.646  0.00  0.00    +0.000 C 
ENDBRANCH  22  25
ENDBRANCH  16  20
ENDBRANCH  15  16
ENDBRANCH   1  15
TORSDOF 9
ENDMDL
MODEL 9
REMARK VINA RESULT:      -6.9      3.286      6.837
REMARK  Name = 
REMARK  11 active torsions:
REMARK  status: ('A' for Active; 'I' for Inactive)
REMARK    1  A    between atoms: C_1  and  O_2
REMARK    2  A    between atoms: O_2  and  C_3
REMARK    3  A    between atoms: C_6  and  C_7
REMARK    4  A    between atoms: C_7  and  C_8
REMARK    5  A    between atoms: C_8  and  C_9
REMARK    6  A    between atoms: C_9  and  C_11
REMARK    7  A    between atoms: C_12  and  C_13
REMARK    8  A    between atoms: C_16  and  O_17
REMARK    9  A    between atoms: C_18  and  O_19
REMARK   10  A    between atoms: C_22  and  O_23
REMARK   11  A    between atoms: O_23  and  C_24
REMARK                            x       y       z     vdW  Elec       q    Type
REMARK                         _______ _______ _______ _____ _____    ______ ____
ROOT
ATOM      1  C   UNL     1       7.592   6.937  17.894  0.00  0.00    +0.000 C 
ATOM      2  O   UNL     1       7.745   6.491  19.023  0.00  0.00    +0.000 OA
ENDROOT
BRANCH   1   3
ATOM      3  C   UNL     1       7.939   8.353  17.557  0.00  0.00    +0.000 C 
ATOM      4  C   UNL     1       8.623   9.124  18.423  0.00  0.00    +0.000 C 
BRANCH   4   5
ATOM      5  C   UNL     1       8.977  10.524  18.153  0.00  0.00    +0.000 A 
ATOM      6  C   UNL     1      10.290  10.961  18.415  0.00  0.00    +0.000 A 
ATOM      7  C   UNL     1      10.655  12.301  18.230  0.00  0.00    +0.000 A 
ATOM      8  C   UNL     1       9.701  13.209  17.790  0.00  0.00    +0.000 A 
ATOM      9  C   UNL     1       8.399  12.788  17.539  0.00  0.00    +0.000 A 
ATOM     10  C   UNL     1       8.031  11.462  17.716  0.00  0.00    +0.000 A 
BRANCH   8  11
ATOM     11  O   UNL     1       9.992  14.530  17.593  0.00  0.00    +0.000 OA
ATOM     12  H   UNL     1       9.235  14.942  17.144  0.00  0.00    +0.000 HD
ENDBRANCH   8  11
BRANCH   9  13
ATOM     13  O   UNL     1       7.459  13.689  17.124  0.00  0.00    +0.000 OA
ATOM     14  H   UNL     1       6.611  13.206  17.186  0.00  0.00    +0.000 HD
ENDBRANCH   9  13
ENDBRANCH   4   5
ENDBRANCH   1   3
BRANCH   1  15
ATOM     15  C   UNL     1       7.003   6.102  16.772  0.00  0.00    +0.000 C 
BRANCH  15  16
ATOM     16  C   UNL     1       5.561   6.500  16.457  0.00  0.00    +0.000 C 
BRANCH  16  20
ATOM     17  C   UNL     1       2.654   4.944  19.260  0.00  0.00    +0.000 A 
ATOM     18  C   UNL     1       2.693   6.314  18.942  0.00  0.00    +0.000 A 
ATOM     19  C   UNL     1       3.619   6.822  18.031  0.00  0.00    +0.000 A 
ATOM     20  C   UNL     1       4.584   5.984  17.483  0.00  0.00    +0.000 A 
ATOM     21  C   UNL     1       4.618   4.644  17.887  0.00  0.00    +0.000 A 
ATOM     22  C   UNL     1       3.669   4.109  18.778  0.00  0.00    +0.000 A 
BRANCH  17  24
ATOM     23  C   UNL     1       2.007   4.049  21.343  0.00  0.00    +0.000 C 
ATOM     24  O   UNL     1       1.623   4.443  20.017  0.00  0.00    +0.000 OA
ENDBRANCH  17  24
BRANCH  22  25
ATOM     25  O   UNL     1       3.907   2.779  18.993  0.00  0.00    +0.000 OA
ATOM     26  C   UNL     1       3.478   1.817  18.047  0.00  0.00    +0.000 C 
ENDBRANCH  22  25
ENDBRANCH  16  20
ENDBRANCH  15  16
ENDBRANCH   1  15
TORSDOF 9
ENDMDL
