MODEL 1
REMARK VINA RESULT:      -7.1      0.000      0.000
REMARK  Name = 
REMARK  4 active torsions:
REMARK  status: ('A' for Active; 'I' for Inactive)
REMARK    1  A    between atoms: C_2  and  O_3
REMARK    2  A    between atoms: C_2  and  C_4
REMARK    3  A    between atoms: C_7  and  C_8
REMARK    4  A    between atoms: C_11  and  O_12
REMARK                            x       y       z     vdW  Elec       q    Type
REMARK                         _______ _______ _______ _____ _____    ______ ____
ROOT
ATOM      1  C   UNL     1       2.514   3.295  19.870  0.00  0.00    +0.000 A 
ATOM      2  C   UNL     1       2.076   3.836  18.660  0.00  0.00    +0.000 A 
ATOM      3  C   UNL     1       3.002   4.167  17.666  0.00  0.00    +0.000 A 
ATOM      4  C   UNL     1       4.385   3.978  17.849  0.00  0.00    +0.000 A 
ATOM      5  C   UNL     1       4.800   3.419  19.072  0.00  0.00    +0.000 A 
ATOM      6  C   UNL     1       3.877   3.066  20.069  0.00  0.00    +0.000 A 
ENDROOT
BRANCH   4   7
ATOM      7  C   UNL     1       5.351   4.333  16.781  0.00  0.00    +0.000 A 
ATOM      8  C   UNL     1       6.390   5.259  17.015  0.00  0.00    +0.000 A 
ATOM      9  C   UNL     1       7.276   5.651  16.003  0.00  0.00    +0.000 A 
ATOM     10  C   UNL     1       7.150   5.103  14.734  0.00  0.00    +0.000 A 
ATOM     11  C   UNL     1       6.152   4.167  14.485  0.00  0.00    +0.000 A 
ATOM     12  F   UNL     1       6.024   3.622  13.266  0.00  0.00    +0.000 F 
ATOM     13  C   UNL     1       5.260   3.787  15.488  0.00  0.00    +0.000 A 
BRANCH  10  14
ATOM     14  O   UNL     1       7.990   5.471  13.725  0.00  0.00    +0.000 OA
ATOM     15  H   UNL     1       8.905   5.453  14.048  0.00  0.00    +0.000 HD
ENDBRANCH  10  14
ENDBRANCH   4   7
BRANCH   1  17
ATOM     16  O   UNL     1       1.773   2.557  22.006  0.00  0.00    +0.000 OA
ATOM     17  C   UNL     1       1.490   2.939  20.885  0.00  0.00    +0.000 C 
BRANCH  17  18
ATOM     18  O   UNL     1       0.222   3.032  20.432  0.00  0.00    +0.000 OA
ATOM     19  H   UNL     1      -0.208   3.894  20.584  0.00  0.00    +0.000 HD
ENDBRANCH  17  18
ENDBRANCH   1  17
TORSDOF 4
ENDMDL
MODEL 2
REMARK VINA RESULT:      -7.0      0.235      1.178
REMARK  Name = 
REMARK  4 active torsions:
REMARK  status: ('A' for Active; 'I' for Inactive)
REMARK    1  A    between atoms: C_2  and  O_3
REMARK    2  A    between atoms: C_2  and  C_4
REMARK    3  A    between atoms: C_7  and  C_8
REMARK    4  A    between atoms: C_11  and  O_12
REMARK                            x       y       z     vdW  Elec       q    Type
REMARK                         _______ _______ _______ _____ _____    ______ ____
ROOT
ATOM      1  C   UNL     1       2.563   3.437  19.938  0.00  0.00    +0.000 A 
ATOM      2  C   UNL     1       3.888   3.005  20.003  0.00  0.00    +0.000 A 
ATOM      3  C   UNL     1       4.779   3.323  18.973  0.00  0.00    +0.000 A 
ATOM      4  C   UNL     1       4.377   4.070  17.850  0.00  0.00    +0.000 A 
ATOM      5  C   UNL     1       3.039   4.505  17.815  0.00  0.00    +0.000 A 
ATOM      6  C   UNL     1       2.142   4.208  18.852  0.00  0.00    +0.000 A 
ENDROOT
BRANCH   4   7
ATOM      7  C   UNL     1       5.338   4.400  16.769  0.00  0.00    +0.000 A 
ATOM      8  C   UNL     1       6.386   5.321  16.982  0.00  0.00    +0.000 A 
ATOM      9  C   UNL     1       7.269   5.689  15.958  0.00  0.00    +0.000 A 
ATOM     10  C   UNL     1       7.130   5.120  14.699  0.00  0.00    +0.000 A 
ATOM     11  C   UNL     1       6.123   4.189  14.472  0.00  0.00    +0.000 A 
ATOM     12  F   UNL     1       5.983   3.624  13.262  0.00  0.00    +0.000 F 
ATOM     13  C   UNL     1       5.235   3.833  15.487  0.00  0.00    +0.000 A 
BRANCH  10  14
ATOM     14  O   UNL     1       7.967   5.465  13.679  0.00  0.00    +0.000 OA
ATOM     15  H   UNL     1       7.482   6.007  13.036  0.00  0.00    +0.000 HD
ENDBRANCH  10  14
ENDBRANCH   4   7
BRANCH   1  17
ATOM     16  O   UNL     1       2.049   2.997  22.218  0.00  0.00    +0.000 OA
ATOM     17  C   UNL     1       1.662   3.093  21.067  0.00  0.00    +0.000 C 
BRANCH  17  18
ATOM     18  O   UNL     1       0.390   2.848  20.691  0.00  0.00    +0.000 OA
ATOM     19  H   UNL     1       0.292   2.436  19.813  0.00  0.00    +0.000 HD
ENDBRANCH  17  18
ENDBRANCH   1  17
TORSDOF 4
ENDMDL
MODEL 3
REMARK VINA RESULT:      -7.0      2.480      6.850
REMARK  Name = 
REMARK  4 active torsions:
REMARK  status: ('A' for Active; 'I' for Inactive)
REMARK    1  A    between atoms: C_2  and  O_3
REMARK    2  A    between atoms: C_2  and  C_4
REMARK    3  A    between atoms: C_7  and  C_8
REMARK    4  A    between atoms: C_11  and  O_12
REMARK                            x       y       z     vdW  Elec       q    Type
REMARK                         _______ _______ _______ _____ _____    ______ ____
ROOT
ATOM      1  C   UNL     1       6.506   4.619  15.359  0.00  0.00    +0.000 A 
ATOM      2  C   UNL     1       5.176   4.208  15.270  0.00  0.00    +0.000 A 
ATOM      3  C   UNL     1       4.436   3.973  16.433  0.00  0.00    +0.000 A 
ATOM      4  C   UNL     1       5.000   4.130  17.714  0.00  0.00    +0.000 A 
ATOM      5  C   UNL     1       6.339   4.557  17.777  0.00  0.00    +0.000 A 
ATOM      6  C   UNL     1       7.084   4.815  16.616  0.00  0.00    +0.000 A 
ENDROOT
BRANCH   4   7
ATOM      7  C   UNL     1       4.197   3.878  18.935  0.00  0.00    +0.000 A 
ATOM      8  C   UNL     1       4.309   2.662  19.643  0.00  0.00    +0.000 A 
ATOM      9  C   UNL     1       3.519   2.382  20.766  0.00  0.00    +0.000 A 
ATOM     10  C   UNL     1       2.610   3.331  21.215  0.00  0.00    +0.000 A 
ATOM     11  C   UNL     1       2.500   4.548  20.551  0.00  0.00    +0.000 A 
ATOM     12  F   UNL     1       1.632   5.477  20.980  0.00  0.00    +0.000 F 
ATOM     13  C   UNL     1       3.277   4.821  19.425  0.00  0.00    +0.000 A 
BRANCH  10  14
ATOM     14  O   UNL     1       1.818   3.084  22.298  0.00  0.00    +0.000 OA
ATOM     15  H   UNL     1       1.029   3.647  22.253  0.00  0.00    +0.000 HD
ENDBRANCH  10  14
ENDBRANCH   4   7
BRANCH   1  17
ATOM     16  O   UNL     1       8.166   5.667  14.016  0.00  0.00    +0.000 OA
ATOM     17  C   UNL     1       7.242   4.877  14.095  0.00  0.00    +0.000 C 
BRANCH  17  18
ATOM     18  O   UNL     1       6.759   4.193  13.037  0.00  0.00    +0.000 OA
ATOM     19  H   UNL     1       6.994   4.561  12.166  0.00  0.00    +0.000 HD
ENDBRANCH  17  18
ENDBRANCH   1  17
TORSDOF 4
ENDMDL
MODEL 4
REMARK VINA RESULT:      -6.9      2.478      6.929
REMARK  Name = 
REMARK  4 active torsions:
REMARK  status: ('A' for Active; 'I' for Inactive)
REMARK    1  A    between atoms: C_2  and  O_3
REMARK    2  A    between atoms: C_2  and  C_4
REMARK    3  A    between atoms: C_7  and  C_8
REMARK    4  A    between atoms: C_11  and  O_12
REMARK                            x       y       z     vdW  Elec       q    Type
REMARK                         _______ _______ _______ _____ _____    ______ ____
ROOT
ATOM      1  C   UNL     1       6.396   4.649  15.348  0.00  0.00    +0.000 A 
ATOM      2  C   UNL     1       6.970   4.844  16.605  0.00  0.00    +0.000 A 
ATOM      3  C   UNL     1       6.227   4.584  17.761  0.00  0.00    +0.000 A 
ATOM      4  C   UNL     1       4.895   4.132  17.700  0.00  0.00    +0.000 A 
ATOM      5  C   UNL     1       4.344   3.931  16.420  0.00  0.00    +0.000 A 
ATOM      6  C   UNL     1       5.087   4.170  15.254  0.00  0.00    +0.000 A 
ENDROOT
BRANCH   4   7
ATOM      7  C   UNL     1       4.125   3.860  18.938  0.00  0.00    +0.000 A 
ATOM      8  C   UNL     1       4.349   2.689  19.693  0.00  0.00    +0.000 A 
ATOM      9  C   UNL     1       3.593   2.385  20.833  0.00  0.00    +0.000 A 
ATOM     10  C   UNL     1       2.605   3.266  21.251  0.00  0.00    +0.000 A 
ATOM     11  C   UNL     1       2.383   4.440  20.541  0.00  0.00    +0.000 A 
ATOM     12  F   UNL     1       1.438   5.305  20.939  0.00  0.00    +0.000 F 
ATOM     13  C   UNL     1       3.126   4.736  19.398  0.00  0.00    +0.000 A 
BRANCH  10  14
ATOM     14  O   UNL     1       1.845   2.994  22.351  0.00  0.00    +0.000 OA
ATOM     15  H   UNL     1       0.906   3.050  22.113  0.00  0.00    +0.000 HD
ENDBRANCH  10  14
ENDBRANCH   4   7
BRANCH   1  17
ATOM     16  O   UNL     1       8.179   5.685  14.163  0.00  0.00    +0.000 OA
ATOM     17  C   UNL     1       7.234   4.917  14.151  0.00  0.00    +0.000 C 
BRANCH  17  18
ATOM     18  O   UNL     1       6.819   4.269  13.043  0.00  0.00    +0.000 OA
ATOM     19  H   UNL     1       5.945   3.844  13.116  0.00  0.00    +0.000 HD
ENDBRANCH  17  18
ENDBRANCH   1  17
TORSDOF 4
ENDMDL
MODEL 5
REMARK VINA RESULT:      -6.8      2.257      6.847
REMARK  Name = 
REMARK  4 active torsions:
REMARK  status: ('A' for Active; 'I' for Inactive)
REMARK    1  A    between atoms: C_2  and  O_3
REMARK    2  A    between atoms: C_2  and  C_4
REMARK    3  A    between atoms: C_7  and  C_8
REMARK    4  A    between atoms: C_11  and  O_12
REMARK                            x       y       z     vdW  Elec       q    Type
REMARK                         _______ _______ _______ _____ _____    ______ ____
ROOT
ATOM      1  C   UNL     1       6.209   4.783  14.837  0.00  0.00    +0.000 A 
ATOM      2  C   UNL     1       5.900   3.477  15.221  0.00  0.00    +0.000 A 
ATOM      3  C   UNL     1       4.978   3.250  16.248  0.00  0.00    +0.000 A 
ATOM      4  C   UNL     1       4.347   4.311  16.925  0.00  0.00    +0.000 A 
ATOM      5  C   UNL     1       4.667   5.617  16.510  0.00  0.00    +0.000 A 
ATOM      6  C   UNL     1       5.576   5.855  15.468  0.00  0.00    +0.000 A 
ENDROOT
BRANCH   4   7
ATOM      7  C   UNL     1       3.370   4.049  18.010  0.00  0.00    +0.000 A 
ATOM      8  C   UNL     1       3.563   4.570  19.307  0.00  0.00    +0.000 A 
ATOM      9  C   UNL     1       2.683   4.287  20.359  0.00  0.00    +0.000 A 
ATOM     10  C   UNL     1       1.573   3.486  20.124  0.00  0.00    +0.000 A 
ATOM     11  C   UNL     1       1.345   2.983  18.848  0.00  0.00    +0.000 A 
ATOM     12  F   UNL     1       0.272   2.216  18.604  0.00  0.00    +0.000 F 
ATOM     13  C   UNL     1       2.229   3.254  17.803  0.00  0.00    +0.000 A 
BRANCH  10  14
ATOM     14  O   UNL     1       0.703   3.183  21.130  0.00  0.00    +0.000 OA
ATOM     15  H   UNL     1       0.146   2.436  20.857  0.00  0.00    +0.000 HD
ENDBRANCH  10  14
ENDBRANCH   4   7
BRANCH   1  17
ATOM     16  O   UNL     1       7.031   4.466  12.627  0.00  0.00    +0.000 OA
ATOM     17  C   UNL     1       7.177   4.970  13.726  0.00  0.00    +0.000 C 
BRANCH  17  18
ATOM     18  O   UNL     1       8.254   5.709  14.065  0.00  0.00    +0.000 OA
ATOM     19  H   UNL     1       8.126   6.674  14.011  0.00  0.00    +0.000 HD
ENDBRANCH  17  18
ENDBRANCH   1  17
TORSDOF 4
ENDMDL
MODEL 6
REMARK VINA RESULT:      -6.7      1.263      1.715
REMARK  Name = 
REMARK  4 active torsions:
REMARK  status: ('A' for Active; 'I' for Inactive)
REMARK    1  A    between atoms: C_2  and  O_3
REMARK    2  A    between atoms: C_2  and  C_4
REMARK    3  A    between atoms: C_7  and  C_8
REMARK    4  A    between atoms: C_11  and  O_12
REMARK                            x       y       z     vdW  Elec       q    Type
REMARK                         _______ _______ _______ _____ _____    ______ ____
ROOT
ATOM      1  C   UNL     1       2.204   3.208  19.782  0.00  0.00    +0.000 A 
ATOM      2  C   UNL     1       1.807   3.687  18.533  0.00  0.00    +0.000 A 
ATOM      3  C   UNL     1       2.768   4.102  17.606  0.00  0.00    +0.000 A 
ATOM      4  C   UNL     1       4.145   4.062  17.898  0.00  0.00    +0.000 A 
ATOM      5  C   UNL     1       4.519   3.564  19.160  0.00  0.00    +0.000 A 
ATOM      6  C   UNL     1       3.564   3.127  20.089  0.00  0.00    +0.000 A 
ENDROOT
BRANCH   4   7
ATOM      7  C   UNL     1       5.149   4.505  16.899  0.00  0.00    +0.000 A 
ATOM      8  C   UNL     1       5.234   3.894  15.630  0.00  0.00    +0.000 A 
ATOM      9  C   UNL     1       6.211   4.258  14.695  0.00  0.00    +0.000 A 
ATOM     10  C   UNL     1       7.116   5.264  15.009  0.00  0.00    +0.000 A 
ATOM     11  C   UNL     1       7.036   5.901  16.242  0.00  0.00    +0.000 A 
ATOM     12  F   UNL     1       7.897   6.881  16.556  0.00  0.00    +0.000 F 
ATOM     13  C   UNL     1       6.071   5.529  17.179  0.00  0.00    +0.000 A 
BRANCH  10  14
ATOM     14  O   UNL     1       8.086   5.634  14.125  0.00  0.00    +0.000 OA
ATOM     15  H   UNL     1       7.801   5.410  13.225  0.00  0.00    +0.000 HD
ENDBRANCH  10  14
ENDBRANCH   4   7
BRANCH   1  17
ATOM     16  O   UNL     1       1.356   2.544  21.903  0.00  0.00    +0.000 OA
ATOM     17  C   UNL     1       1.146   2.758  20.723  0.00  0.00    +0.000 C 
BRANCH  17  18
ATOM     18  O   UNL     1      -0.053   2.563  20.136  0.00  0.00    +0.000 OA
ATOM     19  H   UNL     1      -0.071   1.867  19.454  0.00  0.00    +0.000 HD
ENDBRANCH  17  18
ENDBRANCH   1  17
TORSDOF 4
ENDMDL
MODEL 7
REMARK VINA RESULT:      -6.7      4.981      6.264
REMARK  Name = 
REMARK  4 active torsions:
REMARK  status: ('A' for Active; 'I' for Inactive)
REMARK    1  A    between atoms: C_2  and  O_3
REMARK    2  A    between atoms: C_2  and  C_4
REMARK    3  A    between atoms: C_7  and  C_8
REMARK    4  A    between atoms: C_11  and  O_12
REMARK                            x       y       z     vdW  Elec       q    Type
REMARK                         _______ _______ _______ _____ _____    ______ ____
ROOT
ATOM      1  C   UNL     1       1.184   9.522  19.016  0.00  0.00    +0.000 A 
ATOM      2  C   UNL     1       1.860   8.937  17.944  0.00  0.00    +0.000 A 
ATOM      3  C   UNL     1       2.483   7.695  18.103  0.00  0.00    +0.000 A 
ATOM      4  C   UNL     1       2.459   7.006  19.330  0.00  0.00    +0.000 A 
ATOM      5  C   UNL     1       1.759   7.611  20.392  0.00  0.00    +0.000 A 
ATOM      6  C   UNL     1       1.115   8.847  20.237  0.00  0.00    +0.000 A 
ENDROOT
BRANCH   4   7
ATOM      7  C   UNL     1       3.123   5.688  19.478  0.00  0.00    +0.000 A 
ATOM      8  C   UNL     1       4.443   5.482  19.023  0.00  0.00    +0.000 A 
ATOM      9  C   UNL     1       5.068   4.230  19.101  0.00  0.00    +0.000 A 
ATOM     10  C   UNL     1       4.382   3.159  19.658  0.00  0.00    +0.000 A 
ATOM     11  C   UNL     1       3.091   3.342  20.138  0.00  0.00    +0.000 A 
ATOM     12  F   UNL     1       2.420   2.318  20.687  0.00  0.00    +0.000 F 
ATOM     13  C   UNL     1       2.463   4.585  20.048  0.00  0.00    +0.000 A 
BRANCH  10  14
ATOM     14  O   UNL     1       4.959   1.925  19.738  0.00  0.00    +0.000 OA
ATOM     15  H   UNL     1       4.350   1.315  20.184  0.00  0.00    +0.000 HD
ENDBRANCH  10  14
ENDBRANCH   4   7
BRANCH   1  17
ATOM     16  O   UNL     1       0.809  11.837  19.413  0.00  0.00    +0.000 OA
ATOM     17  C   UNL     1       0.520  10.831  18.790  0.00  0.00    +0.000 C 
BRANCH  17  18
ATOM     18  O   UNL     1      -0.463  10.787  17.867  0.00  0.00    +0.000 OA
ATOM     19  H   UNL     1      -0.990  11.604  17.786  0.00  0.00    +0.000 HD
ENDBRANCH  17  18
ENDBRANCH   1  17
TORSDOF 4
ENDMDL
MODEL 8
REMARK VINA RESULT:      -6.7      2.504      7.013
REMARK  Name = 
REMARK  4 active torsions:
REMARK  status: ('A' for Active; 'I' for Inactive)
REMARK    1  A    between atoms: C_2  and  O_3
REMARK    2  A    between atoms: C_2  and  C_4
REMARK    3  A    between atoms: C_7  and  C_8
REMARK    4  A    between atoms: C_11  and  O_12
REMARK                            x       y       z     vdW  Elec       q    Type
REMARK                         _______ _______ _______ _____ _____    ______ ____
ROOT
ATOM      1  C   UNL     1       6.498   4.953  14.596  0.00  0.00    +0.000 A 
ATOM      2  C   UNL     1       6.087   3.660  14.923  0.00  0.00    +0.000 A 
ATOM      3  C   UNL     1       5.109   3.464  15.903  0.00  0.00    +0.000 A 
ATOM      4  C   UNL     1       4.520   4.544  16.589  0.00  0.00    +0.000 A 
ATOM      5  C   UNL     1       4.942   5.838  16.231  0.00  0.00    +0.000 A 
ATOM      6  C   UNL     1       5.909   6.046  15.235  0.00  0.00    +0.000 A 
ENDROOT
BRANCH   4   7
ATOM      7  C   UNL     1       3.482   4.314  17.623  0.00  0.00    +0.000 A 
ATOM      8  C   UNL     1       2.722   3.125  17.642  0.00  0.00    +0.000 A 
ATOM      9  C   UNL     1       1.698   2.914  18.576  0.00  0.00    +0.000 A 
ATOM     10  C   UNL     1       1.429   3.890  19.526  0.00  0.00    +0.000 A 
ATOM     11  C   UNL     1       2.182   5.058  19.546  0.00  0.00    +0.000 A 
ATOM     12  F   UNL     1       1.939   6.005  20.465  0.00  0.00    +0.000 F 
ATOM     13  C   UNL     1       3.192   5.275  18.608  0.00  0.00    +0.000 A 
BRANCH  10  14
ATOM     14  O   UNL     1       0.432   3.719  20.441  0.00  0.00    +0.000 OA
ATOM     15  H   UNL     1      -0.401   4.056  20.074  0.00  0.00    +0.000 HD
ENDBRANCH  10  14
ENDBRANCH   4   7
BRANCH   1  17
ATOM     16  O   UNL     1       8.506   5.817  13.659  0.00  0.00    +0.000 OA
ATOM     17  C   UNL     1       7.523   5.109  13.532  0.00  0.00    +0.000 C 
BRANCH  17  18
ATOM     18  O   UNL     1       7.236   4.434  12.400  0.00  0.00    +0.000 OA
ATOM     19  H   UNL     1       6.286   4.309  12.223  0.00  0.00    +0.000 HD
ENDBRANCH  17  18
ENDBRANCH   1  17
TORSDOF 4
ENDMDL
MODEL 9
REMARK VINA RESULT:      -6.7      5.006      6.309
REMARK  Name = 
REMARK  4 active torsions:
REMARK  status: ('A' for Active; 'I' for Inactive)
REMARK    1  A    between atoms: C_2  and  O_3
REMARK    2  A    between atoms: C_2  and  C_4
REMARK    3  A    between atoms: C_7  and  C_8
REMARK    4  A    between atoms: C_11  and  O_12
REMARK                            x       y       z     vdW  Elec       q    Type
REMARK                         _______ _______ _______ _____ _____    ______ ____
ROOT
ATOM      1  C   UNL     1       1.160   9.547  19.083  0.00  0.00    +0.000 A 
ATOM      2  C   UNL     1       1.148   8.862  20.299  0.00  0.00    +0.000 A 
ATOM      3  C   UNL     1       1.788   7.624  20.411  0.00  0.00    +0.000 A 
ATOM      4  C   UNL     1       2.448   7.030  19.318  0.00  0.00    +0.000 A 
ATOM      5  C   UNL     1       2.456   7.746  18.107  0.00  0.00    +0.000 A 
ATOM      6  C   UNL     1       1.834   8.998  17.990  0.00  0.00    +0.000 A 
ENDROOT
BRANCH   4   7
ATOM      7  C   UNL     1       3.123   5.716  19.458  0.00  0.00    +0.000 A 
ATOM      8  C   UNL     1       4.455   5.532  19.027  0.00  0.00    +0.000 A 
ATOM      9  C   UNL     1       5.091   4.285  19.098  0.00  0.00    +0.000 A 
ATOM     10  C   UNL     1       4.406   3.198  19.624  0.00  0.00    +0.000 A 
ATOM     11  C   UNL     1       3.103   3.360  20.081  0.00  0.00    +0.000 A 
ATOM     12  F   UNL     1       2.432   2.321  20.600  0.00  0.00    +0.000 F 
ATOM     13  C   UNL     1       2.464   4.598  19.998  0.00  0.00    +0.000 A 
BRANCH  10  14
ATOM     14  O   UNL     1       4.994   1.969  19.697  0.00  0.00    +0.000 OA
ATOM     15  H   UNL     1       5.837   1.988  19.217  0.00  0.00    +0.000 HD
ENDBRANCH  10  14
ENDBRANCH   4   7
BRANCH   1  17
ATOM     16  O   UNL     1      -0.464  11.161  19.725  0.00  0.00    +0.000 OA
ATOM     17  C   UNL     1       0.486  10.869  19.022  0.00  0.00    +0.000 C 
BRANCH  17  18
ATOM     18  O   UNL     1       0.994  11.693  18.082  0.00  0.00    +0.000 OA
ATOM     19  H   UNL     1       1.183  12.600  18.387  0.00  0.00    +0.000 HD
ENDBRANCH  17  18
ENDBRANCH   1  17
TORSDOF 4
ENDMDL
