MODEL 1
REMARK VINA RESULT:      -7.7      0.000      0.000
REMARK  Name = 
REMARK  0 active torsions:
REMARK  status: ('A' for Active; 'I' for Inactive)
REMARK                            x       y       z     vdW  Elec       q    Type
REMARK                         _______ _______ _______ _____ _____    ______ ____
ROOT
ATOM      1  N   UNL     1       6.606   4.202  18.663  0.00  0.00    +0.000 NA
ATOM      2  C   UNL     1       6.426   4.503  17.427  0.00  0.00    +0.000 C 
ATOM      3  N   UNL     1       7.437   4.824  16.607  0.00  0.00    +0.000 N 
ATOM      4  C   UNL     1       6.959   5.074  15.376  0.00  0.00    +0.000 C 
ATOM      5  O   UNL     1       7.637   5.407  14.419  0.00  0.00    +0.000 OA
ATOM      6  O   UNL     1       5.608   4.914  15.344  0.00  0.00    +0.000 OA
ATOM      7  C   UNL     1       5.124   4.538  16.656  0.00  0.00    +0.000 C 
ATOM      8  C   UNL     1       4.509   3.138  16.546  0.00  0.00    +0.000 C 
ATOM      9  C   UNL     1       3.759   2.770  17.821  0.00  0.00    +0.000 C 
ATOM     10  C   UNL     1       2.611   3.743  18.062  0.00  0.00    +0.000 C 
ATOM     11  C   UNL     1       2.998   5.194  17.894  0.00  0.00    +0.000 A 
ATOM     12  C   UNL     1       2.137   6.176  18.410  0.00  0.00    +0.000 A 
ATOM     13  C   UNL     1       2.419   7.530  18.242  0.00  0.00    +0.000 A 
ATOM     14  C   UNL     1       3.556   7.919  17.543  0.00  0.00    +0.000 A 
ATOM     15  C   UNL     1       4.416   6.955  17.018  0.00  0.00    +0.000 A 
ATOM     16  C   UNL     1       4.154   5.582  17.185  0.00  0.00    +0.000 A 
ATOM     17  H   UNL     1       7.594   4.258  18.917  0.00  0.00    +0.000 HD
ATOM     18  H   UNL     1       8.413   4.893  16.829  0.00  0.00    +0.000 HD
ENDROOT
TORSDOF 0
ENDMDL
MODEL 2
REMARK VINA RESULT:      -7.7      1.645      3.281
REMARK  Name = 
REMARK  0 active torsions:
REMARK  status: ('A' for Active; 'I' for Inactive)
REMARK                            x       y       z     vdW  Elec       q    Type
REMARK                         _______ _______ _______ _____ _____    ______ ____
ROOT
ATOM      1  N   UNL     1       5.311   5.615  15.065  0.00  0.00    +0.000 NA
ATOM      2  C   UNL     1       5.876   5.264  16.164  0.00  0.00    +0.000 C 
ATOM      3  N   UNL     1       7.128   4.789  16.213  0.00  0.00    +0.000 N 
ATOM      4  C   UNL     1       7.461   4.521  17.487  0.00  0.00    +0.000 C 
ATOM      5  O   UNL     1       8.531   4.063  17.847  0.00  0.00    +0.000 OA
ATOM      6  O   UNL     1       6.433   4.825  18.326  0.00  0.00    +0.000 OA
ATOM      7  C   UNL     1       5.306   5.325  17.565  0.00  0.00    +0.000 C 
ATOM      8  C   UNL     1       5.057   6.776  17.997  0.00  0.00    +0.000 C 
ATOM      9  C   UNL     1       3.742   7.295  17.427  0.00  0.00    +0.000 C 
ATOM     10  C   UNL     1       2.573   6.467  17.947  0.00  0.00    +0.000 C 
ATOM     11  C   UNL     1       2.804   4.976  17.875  0.00  0.00    +0.000 A 
ATOM     12  C   UNL     1       1.695   4.124  18.003  0.00  0.00    +0.000 A 
ATOM     13  C   UNL     1       1.855   2.740  17.993  0.00  0.00    +0.000 A 
ATOM     14  C   UNL     1       3.126   2.191  17.871  0.00  0.00    +0.000 A 
ATOM     15  C   UNL     1       4.238   3.025  17.751  0.00  0.00    +0.000 A 
ATOM     16  C   UNL     1       4.096   4.425  17.749  0.00  0.00    +0.000 A 
ATOM     17  H   UNL     1       5.932   5.466  14.267  0.00  0.00    +0.000 HD
ATOM     18  H   UNL     1       7.757   4.627  15.448  0.00  0.00    +0.000 HD
ENDROOT
TORSDOF 0
ENDMDL
MODEL 3
REMARK VINA RESULT:      -7.5      2.570      3.740
REMARK  Name = 
REMARK  0 active torsions:
REMARK  status: ('A' for Active; 'I' for Inactive)
REMARK                            x       y       z     vdW  Elec       q    Type
REMARK                         _______ _______ _______ _____ _____    ______ ____
ROOT
ATOM      1  N   UNL     1       2.880   2.981  16.824  0.00  0.00    +0.000 NA
ATOM      2  C   UNL     1       3.648   3.085  17.848  0.00  0.00    +0.000 C 
ATOM      3  N   UNL     1       3.767   2.114  18.764  0.00  0.00    +0.000 N 
ATOM      4  C   UNL     1       4.646   2.488  19.709  0.00  0.00    +0.000 C 
ATOM      5  O   UNL     1       4.951   1.819  20.682  0.00  0.00    +0.000 OA
ATOM      6  O   UNL     1       5.147   3.724  19.438  0.00  0.00    +0.000 OA
ATOM      7  C   UNL     1       4.553   4.240  18.221  0.00  0.00    +0.000 C 
ATOM      8  C   UNL     1       5.676   4.416  17.190  0.00  0.00    +0.000 C 
ATOM      9  C   UNL     1       5.180   5.182  15.970  0.00  0.00    +0.000 C 
ATOM     10  C   UNL     1       4.719   6.579  16.370  0.00  0.00    +0.000 C 
ATOM     11  C   UNL     1       3.833   6.600  17.593  0.00  0.00    +0.000 A 
ATOM     12  C   UNL     1       3.086   7.759  17.854  0.00  0.00    +0.000 A 
ATOM     13  C   UNL     1       2.289   7.853  18.993  0.00  0.00    +0.000 A 
ATOM     14  C   UNL     1       2.241   6.795  19.894  0.00  0.00    +0.000 A 
ATOM     15  C   UNL     1       2.985   5.640  19.653  0.00  0.00    +0.000 A 
ATOM     16  C   UNL     1       3.788   5.522  18.503  0.00  0.00    +0.000 A 
ATOM     17  H   UNL     1       2.383   2.089  16.824  0.00  0.00    +0.000 HD
ATOM     18  H   UNL     1       3.288   1.232  18.794  0.00  0.00    +0.000 HD
ENDROOT
TORSDOF 0
ENDMDL
MODEL 4
REMARK VINA RESULT:      -7.5      1.781      2.455
REMARK  Name = 
REMARK  0 active torsions:
REMARK  status: ('A' for Active; 'I' for Inactive)
REMARK                            x       y       z     vdW  Elec       q    Type
REMARK                         _______ _______ _______ _____ _____    ______ ____
ROOT
ATOM      1  N   UNL     1       5.168   2.888  19.513  0.00  0.00    +0.000 NA
ATOM      2  C   UNL     1       4.737   3.369  18.402  0.00  0.00    +0.000 C 
ATOM      3  N   UNL     1       5.551   3.666  17.379  0.00  0.00    +0.000 N 
ATOM      4  C   UNL     1       4.828   4.133  16.347  0.00  0.00    +0.000 C 
ATOM      5  O   UNL     1       5.291   4.500  15.281  0.00  0.00    +0.000 OA
ATOM      6  O   UNL     1       3.502   4.149  16.657  0.00  0.00    +0.000 OA
ATOM      7  C   UNL     1       3.306   3.669  18.009  0.00  0.00    +0.000 C 
ATOM      8  C   UNL     1       2.474   2.383  17.933  0.00  0.00    +0.000 C 
ATOM      9  C   UNL     1       2.014   1.948  19.320  0.00  0.00    +0.000 C 
ATOM     10  C   UNL     1       1.127   3.018  19.946  0.00  0.00    +0.000 C 
ATOM     11  C   UNL     1       1.681   4.418  19.820  0.00  0.00    +0.000 A 
ATOM     12  C   UNL     1       1.137   5.424  20.634  0.00  0.00    +0.000 A 
ATOM     13  C   UNL     1       1.576   6.742  20.526  0.00  0.00    +0.000 A 
ATOM     14  C   UNL     1       2.551   7.074  19.593  0.00  0.00    +0.000 A 
ATOM     15  C   UNL     1       3.094   6.086  18.771  0.00  0.00    +0.000 A 
ATOM     16  C   UNL     1       2.672   4.747  18.871  0.00  0.00    +0.000 A 
ATOM     17  H   UNL     1       6.184   2.787  19.501  0.00  0.00    +0.000 HD
ATOM     18  H   UNL     1       6.550   3.582  17.341  0.00  0.00    +0.000 HD
ENDROOT
TORSDOF 0
ENDMDL
MODEL 5
REMARK VINA RESULT:      -7.4      3.481      4.753
REMARK  Name = 
REMARK  0 active torsions:
REMARK  status: ('A' for Active; 'I' for Inactive)
REMARK                            x       y       z     vdW  Elec       q    Type
REMARK                         _______ _______ _______ _____ _____    ______ ____
ROOT
ATOM      1  N   UNL     1       1.148   3.110  17.877  0.00  0.00    +0.000 NA
ATOM      2  C   UNL     1       1.740   3.313  18.998  0.00  0.00    +0.000 C 
ATOM      3  N   UNL     1       1.253   2.864  20.164  0.00  0.00    +0.000 N 
ATOM      4  C   UNL     1       2.084   3.207  21.164  0.00  0.00    +0.000 C 
ATOM      5  O   UNL     1       1.901   2.951  22.341  0.00  0.00    +0.000 OA
ATOM      6  O   UNL     1       3.159   3.889  20.682  0.00  0.00    +0.000 OA
ATOM      7  C   UNL     1       3.047   4.035  19.245  0.00  0.00    +0.000 C 
ATOM      8  C   UNL     1       4.221   3.284  18.605  0.00  0.00    +0.000 C 
ATOM      9  C   UNL     1       4.318   3.592  17.115  0.00  0.00    +0.000 C 
ATOM     10  C   UNL     1       4.566   5.080  16.895  0.00  0.00    +0.000 C 
ATOM     11  C   UNL     1       3.669   5.975  17.719  0.00  0.00    +0.000 A 
ATOM     12  C   UNL     1       3.570   7.329  17.360  0.00  0.00    +0.000 A 
ATOM     13  C   UNL     1       2.796   8.210  18.112  0.00  0.00    +0.000 A 
ATOM     14  C   UNL     1       2.126   7.753  19.241  0.00  0.00    +0.000 A 
ATOM     15  C   UNL     1       2.222   6.413  19.614  0.00  0.00    +0.000 A 
ATOM     16  C   UNL     1       2.990   5.504  18.862  0.00  0.00    +0.000 A 
ATOM     17  H   UNL     1       0.278   2.590  18.007  0.00  0.00    +0.000 HD
ATOM     18  H   UNL     1       0.401   2.358  20.323  0.00  0.00    +0.000 HD
ENDROOT
TORSDOF 0
ENDMDL
MODEL 6
REMARK VINA RESULT:      -7.4      1.998      2.702
REMARK  Name = 
REMARK  0 active torsions:
REMARK  status: ('A' for Active; 'I' for Inactive)
REMARK                            x       y       z     vdW  Elec       q    Type
REMARK                         _______ _______ _______ _____ _____    ______ ____
ROOT
ATOM      1  N   UNL     1       7.731   4.427  18.346  0.00  0.00    +0.000 NA
ATOM      2  C   UNL     1       7.382   5.574  17.885  0.00  0.00    +0.000 C 
ATOM      3  N   UNL     1       7.994   6.713  18.243  0.00  0.00    +0.000 N 
ATOM      4  C   UNL     1       7.434   7.749  17.596  0.00  0.00    +0.000 C 
ATOM      5  O   UNL     1       7.767   8.915  17.726  0.00  0.00    +0.000 OA
ATOM      6  O   UNL     1       6.434   7.321  16.777  0.00  0.00    +0.000 OA
ATOM      7  C   UNL     1       6.291   5.884  16.883  0.00  0.00    +0.000 C 
ATOM      8  C   UNL     1       6.615   5.279  15.511  0.00  0.00    +0.000 C 
ATOM      9  C   UNL     1       6.251   3.799  15.468  0.00  0.00    +0.000 C 
ATOM     10  C   UNL     1       4.756   3.612  15.698  0.00  0.00    +0.000 C 
ATOM     11  C   UNL     1       4.213   4.414  16.857  0.00  0.00    +0.000 A 
ATOM     12  C   UNL     1       2.951   4.073  17.369  0.00  0.00    +0.000 A 
ATOM     13  C   UNL     1       2.380   4.808  18.406  0.00  0.00    +0.000 A 
ATOM     14  C   UNL     1       3.056   5.902  18.933  0.00  0.00    +0.000 A 
ATOM     15  C   UNL     1       4.307   6.258  18.430  0.00  0.00    +0.000 A 
ATOM     16  C   UNL     1       4.905   5.522  17.389  0.00  0.00    +0.000 A 
ATOM     17  H   UNL     1       8.502   4.515  19.010  0.00  0.00    +0.000 HD
ATOM     18  H   UNL     1       8.748   6.830  18.895  0.00  0.00    +0.000 HD
ENDROOT
TORSDOF 0
ENDMDL
MODEL 7
REMARK VINA RESULT:      -7.3      2.573      4.554
REMARK  Name = 
REMARK  0 active torsions:
REMARK  status: ('A' for Active; 'I' for Inactive)
REMARK                            x       y       z     vdW  Elec       q    Type
REMARK                         _______ _______ _______ _____ _____    ______ ____
ROOT
ATOM      1  N   UNL     1       4.907   2.454  19.057  0.00  0.00    +0.000 NA
ATOM      2  C   UNL     1       4.064   3.266  18.527  0.00  0.00    +0.000 C 
ATOM      3  N   UNL     1       2.763   2.973  18.396  0.00  0.00    +0.000 N 
ATOM      4  C   UNL     1       2.121   4.008  17.827  0.00  0.00    +0.000 C 
ATOM      5  O   UNL     1       0.931   4.032  17.566  0.00  0.00    +0.000 OA
ATOM      6  O   UNL     1       2.985   5.028  17.573  0.00  0.00    +0.000 OA
ATOM      7  C   UNL     1       4.322   4.657  17.988  0.00  0.00    +0.000 C 
ATOM      8  C   UNL     1       4.748   5.613  19.109  0.00  0.00    +0.000 C 
ATOM      9  C   UNL     1       6.229   5.450  19.431  0.00  0.00    +0.000 C 
ATOM     10  C   UNL     1       7.079   5.786  18.211  0.00  0.00    +0.000 C 
ATOM     11  C   UNL     1       6.587   5.149  16.933  0.00  0.00    +0.000 A 
ATOM     12  C   UNL     1       7.458   5.106  15.833  0.00  0.00    +0.000 A 
ATOM     13  C   UNL     1       7.041   4.574  14.614  0.00  0.00    +0.000 A 
ATOM     14  C   UNL     1       5.744   4.094  14.476  0.00  0.00    +0.000 A 
ATOM     15  C   UNL     1       4.865   4.138  15.557  0.00  0.00    +0.000 A 
ATOM     16  C   UNL     1       5.269   4.662  16.799  0.00  0.00    +0.000 A 
ATOM     17  H   UNL     1       4.454   1.582  19.335  0.00  0.00    +0.000 HD
ATOM     18  H   UNL     1       2.292   2.125  18.655  0.00  0.00    +0.000 HD
ENDROOT
TORSDOF 0
ENDMDL
MODEL 8
REMARK VINA RESULT:      -7.3      1.259      1.447
REMARK  Name = 
REMARK  0 active torsions:
REMARK  status: ('A' for Active; 'I' for Inactive)
REMARK                            x       y       z     vdW  Elec       q    Type
REMARK                         _______ _______ _______ _____ _____    ______ ____
ROOT
ATOM      1  N   UNL     1       6.627   4.682  19.254  0.00  0.00    +0.000 NA
ATOM      2  C   UNL     1       6.059   4.445  18.127  0.00  0.00    +0.000 C 
ATOM      3  N   UNL     1       6.749   4.297  16.987  0.00  0.00    +0.000 N 
ATOM      4  C   UNL     1       5.901   4.043  15.975  0.00  0.00    +0.000 C 
ATOM      5  O   UNL     1       6.232   3.876  14.814  0.00  0.00    +0.000 OA
ATOM      6  O   UNL     1       4.616   4.006  16.422  0.00  0.00    +0.000 OA
ATOM      7  C   UNL     1       4.582   4.267  17.847  0.00  0.00    +0.000 C 
ATOM      8  C   UNL     1       4.036   3.013  18.540  0.00  0.00    +0.000 C 
ATOM      9  C   UNL     1       3.737   3.289  20.009  0.00  0.00    +0.000 C 
ATOM     10  C   UNL     1       2.671   4.372  20.141  0.00  0.00    +0.000 C 
ATOM     11  C   UNL     1       2.913   5.574  19.257  0.00  0.00    +0.000 A 
ATOM     12  C   UNL     1       2.204   6.754  19.532  0.00  0.00    +0.000 A 
ATOM     13  C   UNL     1       2.351   7.878  18.722  0.00  0.00    +0.000 A 
ATOM     14  C   UNL     1       3.195   7.831  17.618  0.00  0.00    +0.000 A 
ATOM     15  C   UNL     1       3.898   6.662  17.327  0.00  0.00    +0.000 A 
ATOM     16  C   UNL     1       3.772   5.519  18.139  0.00  0.00    +0.000 A 
ATOM     17  H   UNL     1       7.641   4.752  19.149  0.00  0.00    +0.000 HD
ATOM     18  H   UNL     1       7.741   4.366  16.853  0.00  0.00    +0.000 HD
ENDROOT
TORSDOF 0
ENDMDL
MODEL 9
REMARK VINA RESULT:      -7.2      1.675      2.200
REMARK  Name = 
REMARK  0 active torsions:
REMARK  status: ('A' for Active; 'I' for Inactive)
REMARK                            x       y       z     vdW  Elec       q    Type
REMARK                         _______ _______ _______ _____ _____    ______ ____
ROOT
ATOM      1  N   UNL     1       5.573   3.351  19.125  0.00  0.00    +0.000 NA
ATOM      2  C   UNL     1       5.217   4.212  18.241  0.00  0.00    +0.000 C 
ATOM      3  N   UNL     1       6.089   5.029  17.634  0.00  0.00    +0.000 N 
ATOM      4  C   UNL     1       5.442   5.806  16.750  0.00  0.00    +0.000 C 
ATOM      5  O   UNL     1       5.967   6.660  16.056  0.00  0.00    +0.000 OA
ATOM      6  O   UNL     1       4.112   5.516  16.738  0.00  0.00    +0.000 OA
ATOM      7  C   UNL     1       3.827   4.469  17.698  0.00  0.00    +0.000 C 
ATOM      8  C   UNL     1       3.303   3.253  16.924  0.00  0.00    +0.000 C 
ATOM      9  C   UNL     1       2.749   2.199  17.875  0.00  0.00    +0.000 C 
ATOM     10  C   UNL     1       1.576   2.762  18.669  0.00  0.00    +0.000 C 
ATOM     11  C   UNL     1       1.836   4.133  19.249  0.00  0.00    +0.000 A 
ATOM     12  C   UNL     1       0.982   4.601  20.260  0.00  0.00    +0.000 A 
ATOM     13  C   UNL     1       1.145   5.876  20.797  0.00  0.00    +0.000 A 
ATOM     14  C   UNL     1       2.153   6.705  20.319  0.00  0.00    +0.000 A 
ATOM     15  C   UNL     1       3.004   6.257  19.309  0.00  0.00    +0.000 A 
ATOM     16  C   UNL     1       2.862   4.969  18.761  0.00  0.00    +0.000 A 
ATOM     17  H   UNL     1       6.579   3.395  19.299  0.00  0.00    +0.000 HD
ATOM     18  H   UNL     1       7.079   5.098  17.788  0.00  0.00    +0.000 HD
ENDROOT
TORSDOF 0
ENDMDL
