MODEL 1
REMARK VINA RESULT:      -6.4      0.000      0.000
REMARK  Name = 
REMARK  9 active torsions:
REMARK  status: ('A' for Active; 'I' for Inactive)
REMARK    1  A    between atoms: C_1  and  O_2
REMARK    2  A    between atoms: O_2  and  C_3
REMARK    3  A    between atoms: C_3  and  C_5
REMARK    4  A    between atoms: C_8  and  N_9
REMARK    5  A    between atoms: N_9  and  C_10
REMARK    6  A    between atoms: C_10  and  N_12
REMARK    7  A    between atoms: N_15  and  C_16
REMARK    8  A    between atoms: C_16  and  C_17
REMARK    9  A    between atoms: C_17  and  O_18
REMARK                            x       y       z     vdW  Elec       q    Type
REMARK                         _______ _______ _______ _____ _____    ______ ____
ROOT
ATOM      1  N   UNL     1       6.255   4.504  17.852  0.00  0.00    +0.000 N 
ATOM      2  H   UNL     1       6.726   3.777  18.380  0.00  0.00    +0.000 HD
ENDROOT
BRANCH   1   6
ATOM      3  C   UNL     1       7.964   8.343  18.177  0.00  0.00    +0.000 A 
ATOM      4  C   UNL     1       6.902   8.129  17.290  0.00  0.00    +0.000 A 
ATOM      5  C   UNL     1       6.331   6.861  17.175  0.00  0.00    +0.000 A 
ATOM      6  C   UNL     1       6.817   5.792  17.931  0.00  0.00    +0.000 A 
ATOM      7  C   UNL     1       7.842   6.018  18.855  0.00  0.00    +0.000 A 
ATOM      8  C   UNL     1       8.419   7.286  18.977  0.00  0.00    +0.000 A 
BRANCH   3   9
ATOM      9  C   UNL     1       8.613   9.673  18.299  0.00  0.00    +0.000 C 
ATOM     10  O   UNL     1       8.397  10.610  17.549  0.00  0.00    +0.000 OA
BRANCH   9  12
ATOM     11  C   UNL     1       9.436  10.908  20.114  0.00  0.00    +0.000 C 
ATOM     12  O   UNL     1       9.429   9.682  19.384  0.00  0.00    +0.000 OA
ENDBRANCH   9  12
ENDBRANCH   3   9
ENDBRANCH   1   6
BRANCH   1  13
ATOM     13  C   UNL     1       5.342   4.009  16.929  0.00  0.00    +0.000 C 
ATOM     14  S   UNL     1       5.744   3.633  15.336  0.00  0.00    +0.000 S 
BRANCH  13  15
ATOM     15  N   UNL     1       4.076   3.762  17.503  0.00  0.00    +0.000 N 
ATOM     16  C   UNL     1       3.083   4.843  17.654  0.00  0.00    +0.000 C 
ATOM     17  C   UNL     1       1.644   4.303  17.742  0.00  0.00    +0.000 C 
ATOM     18  N   UNL     1       1.426   3.267  18.778  0.00  0.00    +0.000 NA
ATOM     19  C   UNL     1       2.421   2.190  18.558  0.00  0.00    +0.000 C 
ATOM     20  C   UNL     1       3.889   2.659  18.467  0.00  0.00    +0.000 C 
BRANCH  18  21
ATOM     21  C   UNL     1       1.516   3.789  20.160  0.00  0.00    +0.000 C 
BRANCH  21  22
ATOM     22  C   UNL     1       1.390   2.698  21.237  0.00  0.00    +0.000 C 
BRANCH  22  23
ATOM     23  O   UNL     1       2.507   2.736  22.119  0.00  0.00    +0.000 OA
ATOM     24  H   UNL     1       2.868   3.641  22.043  0.00  0.00    +0.000 HD
ENDBRANCH  22  23
ENDBRANCH  21  22
ENDBRANCH  18  21
ENDBRANCH  13  15
ENDBRANCH   1  13
TORSDOF 8
ENDMDL
MODEL 2
REMARK VINA RESULT:      -6.3      5.017      6.919
REMARK  Name = 
REMARK  9 active torsions:
REMARK  status: ('A' for Active; 'I' for Inactive)
REMARK    1  A    between atoms: C_1  and  O_2
REMARK    2  A    between atoms: O_2  and  C_3
REMARK    3  A    between atoms: C_3  and  C_5
REMARK    4  A    between atoms: C_8  and  N_9
REMARK    5  A    between atoms: N_9  and  C_10
REMARK    6  A    between atoms: C_10  and  N_12
REMARK    7  A    between atoms: N_15  and  C_16
REMARK    8  A    between atoms: C_16  and  C_17
REMARK    9  A    between atoms: C_17  and  O_18
REMARK                            x       y       z     vdW  Elec       q    Type
REMARK                         _______ _______ _______ _____ _____    ______ ____
ROOT
ATOM      1  N   UNL     1       2.781   6.600  20.004  0.00  0.00    +0.000 N 
ATOM      2  H   UNL     1       3.413   6.657  20.795  0.00  0.00    +0.000 HD
ENDROOT
BRANCH   1   6
ATOM      3  C   UNL     1       0.445  10.020  19.218  0.00  0.00    +0.000 A 
ATOM      4  C   UNL     1       0.455   9.467  20.504  0.00  0.00    +0.000 A 
ATOM      5  C   UNL     1       1.224   8.334  20.773  0.00  0.00    +0.000 A 
ATOM      6  C   UNL     1       1.981   7.734  19.765  0.00  0.00    +0.000 A 
ATOM      7  C   UNL     1       2.013   8.318  18.494  0.00  0.00    +0.000 A 
ATOM      8  C   UNL     1       1.245   9.453  18.217  0.00  0.00    +0.000 A 
BRANCH   3   9
ATOM      9  C   UNL     1      -0.387  11.207  18.894  0.00  0.00    +0.000 C 
ATOM     10  O   UNL     1      -1.601  11.180  18.785  0.00  0.00    +0.000 OA
BRANCH   9  12
ATOM     11  C   UNL     1      -0.278  13.502  18.428  0.00  0.00    +0.000 C 
ATOM     12  O   UNL     1       0.407  12.302  18.785  0.00  0.00    +0.000 OA
ENDBRANCH   9  12
ENDBRANCH   3   9
ENDBRANCH   1   6
BRANCH   1  13
ATOM     13  C   UNL     1       3.061   5.539  19.152  0.00  0.00    +0.000 C 
ATOM     14  S   UNL     1       1.967   4.298  18.826  0.00  0.00    +0.000 S 
BRANCH  13  15
ATOM     15  N   UNL     1       4.315   5.673  18.519  0.00  0.00    +0.000 N 
ATOM     16  C   UNL     1       4.414   6.004  17.084  0.00  0.00    +0.000 C 
ATOM     17  C   UNL     1       5.764   6.653  16.730  0.00  0.00    +0.000 C 
ATOM     18  N   UNL     1       6.959   5.890  17.157  0.00  0.00    +0.000 NA
ATOM     19  C   UNL     1       6.827   5.619  18.609  0.00  0.00    +0.000 C 
ATOM     20  C   UNL     1       5.499   4.958  19.037  0.00  0.00    +0.000 C 
BRANCH  18  21
ATOM     21  C   UNL     1       7.153   4.631  16.404  0.00  0.00    +0.000 C 
BRANCH  21  22
ATOM     22  C   UNL     1       6.947   4.784  14.887  0.00  0.00    +0.000 C 
BRANCH  22  23
ATOM     23  O   UNL     1       8.026   5.510  14.308  0.00  0.00    +0.000 OA
ATOM     24  H   UNL     1       8.542   4.851  13.804  0.00  0.00    +0.000 HD
ENDBRANCH  22  23
ENDBRANCH  21  22
ENDBRANCH  18  21
ENDBRANCH  13  15
ENDBRANCH   1  13
TORSDOF 8
ENDMDL
MODEL 3
REMARK VINA RESULT:      -6.3      4.973      7.030
REMARK  Name = 
REMARK  9 active torsions:
REMARK  status: ('A' for Active; 'I' for Inactive)
REMARK    1  A    between atoms: C_1  and  O_2
REMARK    2  A    between atoms: O_2  and  C_3
REMARK    3  A    between atoms: C_3  and  C_5
REMARK    4  A    between atoms: C_8  and  N_9
REMARK    5  A    between atoms: N_9  and  C_10
REMARK    6  A    between atoms: C_10  and  N_12
REMARK    7  A    between atoms: N_15  and  C_16
REMARK    8  A    between atoms: C_16  and  C_17
REMARK    9  A    between atoms: C_17  and  O_18
REMARK                            x       y       z     vdW  Elec       q    Type
REMARK                         _______ _______ _______ _____ _____    ______ ____
ROOT
ATOM      1  N   UNL     1       2.769   6.491  20.154  0.00  0.00    +0.000 N 
ATOM      2  H   UNL     1       3.377   6.469  20.965  0.00  0.00    +0.000 HD
ENDROOT
BRANCH   1   6
ATOM      3  C   UNL     1       0.457   9.985  19.684  0.00  0.00    +0.000 A 
ATOM      4  C   UNL     1       1.176   9.477  18.595  0.00  0.00    +0.000 A 
ATOM      5  C   UNL     1       1.945   8.322  18.742  0.00  0.00    +0.000 A 
ATOM      6  C   UNL     1       2.016   7.667  19.973  0.00  0.00    +0.000 A 
ATOM      7  C   UNL     1       1.256   8.144  21.046  0.00  0.00    +0.000 A 
ATOM      8  C   UNL     1       0.482   9.301  20.907  0.00  0.00    +0.000 A 
BRANCH   3   9
ATOM      9  C   UNL     1      -0.345  11.229  19.567  0.00  0.00    +0.000 C 
ATOM     10  O   UNL     1      -0.519  12.018  20.481  0.00  0.00    +0.000 OA
BRANCH   9  12
ATOM     11  C   UNL     1      -2.197  11.103  18.134  0.00  0.00    +0.000 C 
ATOM     12  O   UNL     1      -0.802  11.357  18.296  0.00  0.00    +0.000 OA
ENDBRANCH   9  12
ENDBRANCH   3   9
ENDBRANCH   1   6
BRANCH   1  13
ATOM     13  C   UNL     1       3.040   5.484  19.236  0.00  0.00    +0.000 C 
ATOM     14  S   UNL     1       1.936   4.275  18.832  0.00  0.00    +0.000 S 
BRANCH  13  15
ATOM     15  N   UNL     1       4.295   5.648  18.611  0.00  0.00    +0.000 N 
ATOM     16  C   UNL     1       4.396   6.006  17.183  0.00  0.00    +0.000 C 
ATOM     17  C   UNL     1       5.737   6.681  16.847  0.00  0.00    +0.000 C 
ATOM     18  N   UNL     1       6.941   5.929  17.266  0.00  0.00    +0.000 NA
ATOM     19  C   UNL     1       6.807   5.629  18.712  0.00  0.00    +0.000 C 
ATOM     20  C   UNL     1       5.487   4.941  19.122  0.00  0.00    +0.000 C 
BRANCH  18  21
ATOM     21  C   UNL     1       7.158   4.686  16.492  0.00  0.00    +0.000 C 
BRANCH  21  22
ATOM     22  C   UNL     1       6.863   4.839  14.990  0.00  0.00    +0.000 C 
BRANCH  22  23
ATOM     23  O   UNL     1       7.960   5.459  14.326  0.00  0.00    +0.000 OA
ATOM     24  H   UNL     1       8.756   4.992  14.649  0.00  0.00    +0.000 HD
ENDBRANCH  22  23
ENDBRANCH  21  22
ENDBRANCH  18  21
ENDBRANCH  13  15
ENDBRANCH   1  13
TORSDOF 8
ENDMDL
MODEL 4
REMARK VINA RESULT:      -6.3      4.871      6.497
REMARK  Name = 
REMARK  9 active torsions:
REMARK  status: ('A' for Active; 'I' for Inactive)
REMARK    1  A    between atoms: C_1  and  O_2
REMARK    2  A    between atoms: O_2  and  C_3
REMARK    3  A    between atoms: C_3  and  C_5
REMARK    4  A    between atoms: C_8  and  N_9
REMARK    5  A    between atoms: N_9  and  C_10
REMARK    6  A    between atoms: C_10  and  N_12
REMARK    7  A    between atoms: N_15  and  C_16
REMARK    8  A    between atoms: C_16  and  C_17
REMARK    9  A    between atoms: C_17  and  O_18
REMARK                            x       y       z     vdW  Elec       q    Type
REMARK                         _______ _______ _______ _____ _____    ______ ____
ROOT
ATOM      1  N   UNL     1       2.721   6.555  20.311  0.00  0.00    +0.000 N 
ATOM      2  H   UNL     1       3.618   6.724  20.751  0.00  0.00    +0.000 HD
ENDROOT
BRANCH   1   6
ATOM      3  C   UNL     1       0.555   9.954  19.076  0.00  0.00    +0.000 A 
ATOM      4  C   UNL     1       1.321   9.243  18.144  0.00  0.00    +0.000 A 
ATOM      5  C   UNL     1       2.043   8.118  18.544  0.00  0.00    +0.000 A 
ATOM      6  C   UNL     1       2.018   7.694  19.875  0.00  0.00    +0.000 A 
ATOM      7  C   UNL     1       1.210   8.373  20.794  0.00  0.00    +0.000 A 
ATOM      8  C   UNL     1       0.484   9.501  20.401  0.00  0.00    +0.000 A 
BRANCH   3   9
ATOM      9  C   UNL     1      -0.199  11.173  18.687  0.00  0.00    +0.000 C 
ATOM     10  O   UNL     1      -1.147  11.175  17.921  0.00  0.00    +0.000 OA
BRANCH   9  12
ATOM     11  C   UNL     1       1.405  12.884  18.697  0.00  0.00    +0.000 C 
ATOM     12  O   UNL     1       0.305  12.247  19.347  0.00  0.00    +0.000 OA
ENDBRANCH   9  12
ENDBRANCH   3   9
ENDBRANCH   1   6
BRANCH   1  13
ATOM     13  C   UNL     1       2.521   5.225  19.961  0.00  0.00    +0.000 C 
ATOM     14  S   UNL     1       1.264   4.283  20.571  0.00  0.00    +0.000 S 
BRANCH  13  15
ATOM     15  N   UNL     1       3.424   4.789  18.967  0.00  0.00    +0.000 N 
ATOM     16  C   UNL     1       4.824   5.254  18.950  0.00  0.00    +0.000 C 
ATOM     17  C   UNL     1       5.751   4.279  18.202  0.00  0.00    +0.000 C 
ATOM     18  N   UNL     1       5.318   3.929  16.830  0.00  0.00    +0.000 NA
ATOM     19  C   UNL     1       3.923   3.433  16.909  0.00  0.00    +0.000 C 
ATOM     20  C   UNL     1       2.933   4.366  17.639  0.00  0.00    +0.000 C 
BRANCH  18  21
ATOM     21  C   UNL     1       5.421   5.055  15.875  0.00  0.00    +0.000 C 
BRANCH  21  22
ATOM     22  C   UNL     1       6.781   5.133  15.162  0.00  0.00    +0.000 C 
BRANCH  22  23
ATOM     23  O   UNL     1       7.610   6.116  15.775  0.00  0.00    +0.000 OA
ATOM     24  H   UNL     1       7.116   6.419  16.562  0.00  0.00    +0.000 HD
ENDBRANCH  22  23
ENDBRANCH  21  22
ENDBRANCH  18  21
ENDBRANCH  13  15
ENDBRANCH   1  13
TORSDOF 8
ENDMDL
MODEL 5
REMARK VINA RESULT:      -6.3      5.001      6.901
REMARK  Name = 
REMARK  9 active torsions:
REMARK  status: ('A' for Active; 'I' for Inactive)
REMARK    1  A    between atoms: C_1  and  O_2
REMARK    2  A    between atoms: O_2  and  C_3
REMARK    3  A    between atoms: C_3  and  C_5
REMARK    4  A    between atoms: C_8  and  N_9
REMARK    5  A    between atoms: N_9  and  C_10
REMARK    6  A    between atoms: C_10  and  N_12
REMARK    7  A    between atoms: N_15  and  C_16
REMARK    8  A    between atoms: C_16  and  C_17
REMARK    9  A    between atoms: C_17  and  O_18
REMARK                            x       y       z     vdW  Elec       q    Type
REMARK                         _______ _______ _______ _____ _____    ______ ____
ROOT
ATOM      1  N   UNL     1       2.884   6.445  19.918  0.00  0.00    +0.000 N 
ATOM      2  H   UNL     1       3.536   6.507  20.692  0.00  0.00    +0.000 HD
ENDROOT
BRANCH   1   6
ATOM      3  C   UNL     1       0.615   9.900  19.091  0.00  0.00    +0.000 A 
ATOM      4  C   UNL     1       0.632   9.374  20.388  0.00  0.00    +0.000 A 
ATOM      5  C   UNL     1       1.379   8.230  20.671  0.00  0.00    +0.000 A 
ATOM      6  C   UNL     1       2.107   7.591  19.665  0.00  0.00    +0.000 A 
ATOM      7  C   UNL     1       2.133   8.146  18.382  0.00  0.00    +0.000 A 
ATOM      8  C   UNL     1       1.388   9.293  18.090  0.00  0.00    +0.000 A 
BRANCH   3   9
ATOM      9  C   UNL     1      -0.195  11.097  18.752  0.00  0.00    +0.000 C 
ATOM     10  O   UNL     1       0.265  12.220  18.626  0.00  0.00    +0.000 OA
BRANCH   9  12
ATOM     11  C   UNL     1      -2.194  11.508  17.599  0.00  0.00    +0.000 C 
ATOM     12  O   UNL     1      -1.489  10.733  18.567  0.00  0.00    +0.000 OA
ENDBRANCH   9  12
ENDBRANCH   3   9
ENDBRANCH   1   6
BRANCH   1  13
ATOM     13  C   UNL     1       3.118   5.353  19.089  0.00  0.00    +0.000 C 
ATOM     14  S   UNL     1       1.995   4.123  18.837  0.00  0.00    +0.000 S 
BRANCH  13  15
ATOM     15  N   UNL     1       4.353   5.447  18.412  0.00  0.00    +0.000 N 
ATOM     16  C   UNL     1       4.417   5.859  16.996  0.00  0.00    +0.000 C 
ATOM     17  C   UNL     1       5.791   6.442  16.622  0.00  0.00    +0.000 C 
ATOM     18  N   UNL     1       6.949   5.581  16.952  0.00  0.00    +0.000 NA
ATOM     19  C   UNL     1       6.858   5.229  18.389  0.00  0.00    +0.000 C 
ATOM     20  C   UNL     1       5.507   4.629  18.835  0.00  0.00    +0.000 C 
BRANCH  18  21
ATOM     21  C   UNL     1       7.031   4.360  16.118  0.00  0.00    +0.000 C 
BRANCH  21  22
ATOM     22  C   UNL     1       6.813   4.625  14.619  0.00  0.00    +0.000 C 
BRANCH  22  23
ATOM     23  O   UNL     1       6.419   3.429  13.953  0.00  0.00    +0.000 OA
ATOM     24  H   UNL     1       7.250   2.952  13.762  0.00  0.00    +0.000 HD
ENDBRANCH  22  23
ENDBRANCH  21  22
ENDBRANCH  18  21
ENDBRANCH  13  15
ENDBRANCH   1  13
TORSDOF 8
ENDMDL
MODEL 6
REMARK VINA RESULT:      -6.2      5.083      6.666
REMARK  Name = 
REMARK  9 active torsions:
REMARK  status: ('A' for Active; 'I' for Inactive)
REMARK    1  A    between atoms: C_1  and  O_2
REMARK    2  A    between atoms: O_2  and  C_3
REMARK    3  A    between atoms: C_3  and  C_5
REMARK    4  A    between atoms: C_8  and  N_9
REMARK    5  A    between atoms: N_9  and  C_10
REMARK    6  A    between atoms: C_10  and  N_12
REMARK    7  A    between atoms: N_15  and  C_16
REMARK    8  A    between atoms: C_16  and  C_17
REMARK    9  A    between atoms: C_17  and  O_18
REMARK                            x       y       z     vdW  Elec       q    Type
REMARK                         _______ _______ _______ _____ _____    ______ ____
ROOT
ATOM      1  N   UNL     1       2.623   6.342  20.462  0.00  0.00    +0.000 N 
ATOM      2  H   UNL     1       3.444   6.443  21.049  0.00  0.00    +0.000 HD
ENDROOT
BRANCH   1   6
ATOM      3  C   UNL     1       0.743   9.908  19.229  0.00  0.00    +0.000 A 
ATOM      4  C   UNL     1       1.513   9.178  18.316  0.00  0.00    +0.000 A 
ATOM      5  C   UNL     1       2.140   7.997  18.716  0.00  0.00    +0.000 A 
ATOM      6  C   UNL     1       2.018   7.537  20.028  0.00  0.00    +0.000 A 
ATOM      7  C   UNL     1       1.205   8.238  20.926  0.00  0.00    +0.000 A 
ATOM      8  C   UNL     1       0.573   9.421  20.533  0.00  0.00    +0.000 A 
BRANCH   3   9
ATOM      9  C   UNL     1       0.089  11.184  18.843  0.00  0.00    +0.000 C 
ATOM     10  O   UNL     1       0.694  12.211  18.584  0.00  0.00    +0.000 OA
BRANCH   9  12
ATOM     11  C   UNL     1      -2.023  12.064  19.356  0.00  0.00    +0.000 C 
ATOM     12  O   UNL     1      -1.255  11.006  18.784  0.00  0.00    +0.000 OA
ENDBRANCH   9  12
ENDBRANCH   3   9
ENDBRANCH   1   6
BRANCH   1  13
ATOM     13  C   UNL     1       2.458   5.054  19.966  0.00  0.00    +0.000 C 
ATOM     14  S   UNL     1       1.147   4.070  20.361  0.00  0.00    +0.000 S 
BRANCH  13  15
ATOM     15  N   UNL     1       3.450   4.709  19.024  0.00  0.00    +0.000 N 
ATOM     16  C   UNL     1       4.772   5.363  19.033  0.00  0.00    +0.000 C 
ATOM     17  C   UNL     1       5.854   4.497  18.362  0.00  0.00    +0.000 C 
ATOM     18  N   UNL     1       5.527   4.035  16.994  0.00  0.00    +0.000 NA
ATOM     19  C   UNL     1       4.211   3.354  17.047  0.00  0.00    +0.000 C 
ATOM     20  C   UNL     1       3.074   4.168  17.701  0.00  0.00    +0.000 C 
BRANCH  18  21
ATOM     21  C   UNL     1       5.512   5.126  15.993  0.00  0.00    +0.000 C 
BRANCH  21  22
ATOM     22  C   UNL     1       6.482   4.897  14.821  0.00  0.00    +0.000 C 
BRANCH  22  23
ATOM     23  O   UNL     1       6.369   3.565  14.331  0.00  0.00    +0.000 OA
ATOM     24  H   UNL     1       5.441   3.475  14.036  0.00  0.00    +0.000 HD
ENDBRANCH  22  23
ENDBRANCH  21  22
ENDBRANCH  18  21
ENDBRANCH  13  15
ENDBRANCH   1  13
TORSDOF 8
ENDMDL
MODEL 7
REMARK VINA RESULT:      -6.2      5.193      6.680
REMARK  Name = 
REMARK  9 active torsions:
REMARK  status: ('A' for Active; 'I' for Inactive)
REMARK    1  A    between atoms: C_1  and  O_2
REMARK    2  A    between atoms: O_2  and  C_3
REMARK    3  A    between atoms: C_3  and  C_5
REMARK    4  A    between atoms: C_8  and  N_9
REMARK    5  A    between atoms: N_9  and  C_10
REMARK    6  A    between atoms: C_10  and  N_12
REMARK    7  A    between atoms: N_15  and  C_16
REMARK    8  A    between atoms: C_16  and  C_17
REMARK    9  A    between atoms: C_17  and  O_18
REMARK                            x       y       z     vdW  Elec       q    Type
REMARK                         _______ _______ _______ _____ _____    ______ ____
ROOT
ATOM      1  N   UNL     1       2.759   6.608  20.243  0.00  0.00    +0.000 N 
ATOM      2  H   UNL     1       3.676   6.813  20.624  0.00  0.00    +0.000 HD
ENDROOT
BRANCH   1   6
ATOM      3  C   UNL     1       0.497   9.953  19.035  0.00  0.00    +0.000 A 
ATOM      4  C   UNL     1       0.435   9.518  20.364  0.00  0.00    +0.000 A 
ATOM      5  C   UNL     1       1.180   8.410  20.772  0.00  0.00    +0.000 A 
ATOM      6  C   UNL     1       1.983   7.719  19.862  0.00  0.00    +0.000 A 
ATOM      7  C   UNL     1       2.085   8.187  18.548  0.00  0.00    +0.000 A 
ATOM      8  C   UNL     1       1.342   9.296  18.131  0.00  0.00    +0.000 A 
BRANCH   3   9
ATOM      9  C   UNL     1      -0.308  11.109  18.562  0.00  0.00    +0.000 C 
ATOM     10  O   UNL     1      -1.483  11.040  18.246  0.00  0.00    +0.000 OA
BRANCH   9  12
ATOM     11  C   UNL     1      -0.256  13.428  18.903  0.00  0.00    +0.000 C 
ATOM     12  O   UNL     1       0.454  12.232  18.585  0.00  0.00    +0.000 OA
ENDBRANCH   9  12
ENDBRANCH   3   9
ENDBRANCH   1   6
BRANCH   1  13
ATOM     13  C   UNL     1       2.593   5.272  19.898  0.00  0.00    +0.000 C 
ATOM     14  S   UNL     1       1.321   4.320  20.463  0.00  0.00    +0.000 S 
BRANCH  13  15
ATOM     15  N   UNL     1       3.544   4.839  18.950  0.00  0.00    +0.000 N 
ATOM     16  C   UNL     1       4.899   5.421  18.906  0.00  0.00    +0.000 C 
ATOM     17  C   UNL     1       5.917   4.475  18.246  0.00  0.00    +0.000 C 
ATOM     18  N   UNL     1       5.536   3.979  16.904  0.00  0.00    +0.000 NA
ATOM     19  C   UNL     1       4.187   3.371  17.012  0.00  0.00    +0.000 C 
ATOM     20  C   UNL     1       3.110   4.269  17.657  0.00  0.00    +0.000 C 
BRANCH  18  21
ATOM     21  C   UNL     1       5.554   5.030  15.862  0.00  0.00    +0.000 C 
BRANCH  21  22
ATOM     22  C   UNL     1       6.585   4.773  14.749  0.00  0.00    +0.000 C 
BRANCH  22  23
ATOM     23  O   UNL     1       6.353   3.508  14.137  0.00  0.00    +0.000 OA
ATOM     24  H   UNL     1       7.106   3.372  13.528  0.00  0.00    +0.000 HD
ENDBRANCH  22  23
ENDBRANCH  21  22
ENDBRANCH  18  21
ENDBRANCH  13  15
ENDBRANCH   1  13
TORSDOF 8
ENDMDL
MODEL 8
REMARK VINA RESULT:      -6.2      3.728      6.542
REMARK  Name = 
REMARK  9 active torsions:
REMARK  status: ('A' for Active; 'I' for Inactive)
REMARK    1  A    between atoms: C_1  and  O_2
REMARK    2  A    between atoms: O_2  and  C_3
REMARK    3  A    between atoms: C_3  and  C_5
REMARK    4  A    between atoms: C_8  and  N_9
REMARK    5  A    between atoms: N_9  and  C_10
REMARK    6  A    between atoms: C_10  and  N_12
REMARK    7  A    between atoms: N_15  and  C_16
REMARK    8  A    between atoms: C_16  and  C_17
REMARK    9  A    between atoms: C_17  and  O_18
REMARK                            x       y       z     vdW  Elec       q    Type
REMARK                         _______ _______ _______ _____ _____    ______ ____
ROOT
ATOM      1  N   UNL     1       2.915   4.626  18.580  0.00  0.00    +0.000 N 
ATOM      2  H   UNL     1       2.245   4.077  18.052  0.00  0.00    +0.000 HD
ENDROOT
BRANCH   1   6
ATOM      3  C   UNL     1       1.567   8.326  20.083  0.00  0.00    +0.000 A 
ATOM      4  C   UNL     1       1.516   7.188  20.896  0.00  0.00    +0.000 A 
ATOM      5  C   UNL     1       1.959   5.958  20.406  0.00  0.00    +0.000 A 
ATOM      6  C   UNL     1       2.445   5.846  19.102  0.00  0.00    +0.000 A 
ATOM      7  C   UNL     1       2.545   6.994  18.308  0.00  0.00    +0.000 A 
ATOM      8  C   UNL     1       2.104   8.230  18.791  0.00  0.00    +0.000 A 
BRANCH   3   9
ATOM      9  C   UNL     1       1.075   9.642  20.564  0.00  0.00    +0.000 C 
ATOM     10  O   UNL     1       1.174  10.029  21.716  0.00  0.00    +0.000 OA
BRANCH   9  12
ATOM     11  C   UNL     1      -0.874  10.409  19.510  0.00  0.00    +0.000 C 
ATOM     12  O   UNL     1       0.551  10.339  19.524  0.00  0.00    +0.000 OA
ENDBRANCH   9  12
ENDBRANCH   3   9
ENDBRANCH   1   6
BRANCH   1  13
ATOM     13  C   UNL     1       4.055   3.912  18.930  0.00  0.00    +0.000 C 
ATOM     14  S   UNL     1       4.013   2.448  19.765  0.00  0.00    +0.000 S 
BRANCH  13  15
ATOM     15  N   UNL     1       5.234   4.498  18.421  0.00  0.00    +0.000 N 
ATOM     16  C   UNL     1       6.126   5.294  19.285  0.00  0.00    +0.000 C 
ATOM     17  C   UNL     1       7.565   5.348  18.743  0.00  0.00    +0.000 C 
ATOM     18  N   UNL     1       7.689   5.797  17.337  0.00  0.00    +0.000 NA
ATOM     19  C   UNL     1       6.805   4.942  16.509  0.00  0.00    +0.000 C 
ATOM     20  C   UNL     1       5.341   4.849  16.990  0.00  0.00    +0.000 C 
BRANCH  18  21
ATOM     21  C   UNL     1       7.363   7.228  17.146  0.00  0.00    +0.000 C 
BRANCH  21  22
ATOM     22  C   UNL     1       8.168   8.168  18.060  0.00  0.00    +0.000 C 
BRANCH  22  23
ATOM     23  O   UNL     1       7.824   9.526  17.805  0.00  0.00    +0.000 OA
ATOM     24  H   UNL     1       7.101   9.733  18.430  0.00  0.00    +0.000 HD
ENDBRANCH  22  23
ENDBRANCH  21  22
ENDBRANCH  18  21
ENDBRANCH  13  15
ENDBRANCH   1  13
TORSDOF 8
ENDMDL
MODEL 9
REMARK VINA RESULT:      -6.2      0.747      1.403
REMARK  Name = 
REMARK  9 active torsions:
REMARK  status: ('A' for Active; 'I' for Inactive)
REMARK    1  A    between atoms: C_1  and  O_2
REMARK    2  A    between atoms: O_2  and  C_3
REMARK    3  A    between atoms: C_3  and  C_5
REMARK    4  A    between atoms: C_8  and  N_9
REMARK    5  A    between atoms: N_9  and  C_10
REMARK    6  A    between atoms: C_10  and  N_12
REMARK    7  A    between atoms: N_15  and  C_16
REMARK    8  A    between atoms: C_16  and  C_17
REMARK    9  A    between atoms: C_17  and  O_18
REMARK                            x       y       z     vdW  Elec       q    Type
REMARK                         _______ _______ _______ _____ _____    ______ ____
ROOT
ATOM      1  N   UNL     1       6.357   4.720  17.779  0.00  0.00    +0.000 N 
ATOM      2  H   UNL     1       6.903   3.914  18.066  0.00  0.00    +0.000 HD
ENDROOT
BRANCH   1   6
ATOM      3  C   UNL     1       8.139   8.509  18.268  0.00  0.00    +0.000 A 
ATOM      4  C   UNL     1       8.555   7.438  19.068  0.00  0.00    +0.000 A 
ATOM      5  C   UNL     1       7.969   6.181  18.914  0.00  0.00    +0.000 A 
ATOM      6  C   UNL     1       6.959   5.978  17.973  0.00  0.00    +0.000 A 
ATOM      7  C   UNL     1       6.581   7.034  17.137  0.00  0.00    +0.000 A 
ATOM      8  C   UNL     1       7.162   8.297  17.284  0.00  0.00    +0.000 A 
BRANCH   3   9
ATOM      9  C   UNL     1       8.720   9.866  18.429  0.00  0.00    +0.000 C 
ATOM     10  O   UNL     1       8.510  10.794  17.667  0.00  0.00    +0.000 OA
BRANCH   9  12
ATOM     11  C   UNL     1       9.622  11.209  20.126  0.00  0.00    +0.000 C 
ATOM     12  O   UNL     1       9.467   9.908  19.561  0.00  0.00    +0.000 OA
ENDBRANCH   9  12
ENDBRANCH   3   9
ENDBRANCH   1   6
BRANCH   1  13
ATOM     13  C   UNL     1       5.268   4.390  16.982  0.00  0.00    +0.000 C 
ATOM     14  S   UNL     1       5.399   4.008  15.345  0.00  0.00    +0.000 S 
BRANCH  13  15
ATOM     15  N   UNL     1       4.066   4.312  17.718  0.00  0.00    +0.000 N 
ATOM     16  C   UNL     1       4.052   4.511  19.180  0.00  0.00    +0.000 C 
ATOM     17  C   UNL     1       2.670   4.953  19.693  0.00  0.00    +0.000 C 
ATOM     18  N   UNL     1       1.543   4.081  19.290  0.00  0.00    +0.000 NA
ATOM     19  C   UNL     1       1.580   3.946  17.813  0.00  0.00    +0.000 C 
ATOM     20  C   UNL     1       2.936   3.497  17.228  0.00  0.00    +0.000 C 
BRANCH  18  21
ATOM     21  C   UNL     1       1.567   2.750  19.938  0.00  0.00    +0.000 C 
BRANCH  21  22
ATOM     22  C   UNL     1       1.472   2.813  21.472  0.00  0.00    +0.000 C 
BRANCH  22  23
ATOM     23  O   UNL     1       2.708   2.429  22.064  0.00  0.00    +0.000 OA
ATOM     24  H   UNL     1       2.748   2.908  22.916  0.00  0.00    +0.000 HD
ENDBRANCH  22  23
ENDBRANCH  21  22
ENDBRANCH  18  21
ENDBRANCH  13  15
ENDBRANCH   1  13
TORSDOF 8
ENDMDL
