MODEL 1
REMARK VINA RESULT:      -7.6      0.000      0.000
REMARK  Name = 
REMARK  9 active torsions:
REMARK  status: ('A' for Active; 'I' for Inactive)
REMARK    1  A    between atoms: C_1  and  C_2
REMARK    2  A    between atoms: C_5  and  S_6
REMARK    3  A    between atoms: S_6  and  N_9
REMARK    4  A    between atoms: N_9  and  C_10
REMARK    5  A    between atoms: C_10  and  C_11
REMARK    6  A    between atoms: C_10  and  C_16
REMARK    7  A    between atoms: C_11  and  C_12
REMARK    8  A    between atoms: C_12  and  C_13
REMARK    9  A    between atoms: C_19  and  C_20
REMARK                            x       y       z     vdW  Elec       q    Type
REMARK                         _______ _______ _______ _____ _____    ______ ____
ROOT
ATOM      1  N   UNL     1       6.228   6.911  17.453  0.00  0.00    +0.000 NA
ATOM      2  H   UNL     1       5.579   7.008  18.233  0.00  0.00    +0.000 HD
ENDROOT
BRANCH   1   3
ATOM      3  S   UNL     1       5.498   6.059  16.186  0.00  0.00    +0.000 S 
ATOM      4  O   UNL     1       6.446   5.059  15.741  0.00  0.00    +0.000 OA
ATOM      5  O   UNL     1       4.967   7.038  15.271  0.00  0.00    +0.000 OA
BRANCH   3  10
ATOM      6  C   UNL     1       1.234   3.086  19.310  0.00  0.00    +0.000 C 
ATOM      7  C   UNL     1       2.209   3.818  18.437  0.00  0.00    +0.000 A 
ATOM      8  C   UNL     1       3.120   3.131  17.632  0.00  0.00    +0.000 A 
ATOM      9  C   UNL     1       4.071   3.836  16.894  0.00  0.00    +0.000 A 
ATOM     10  C   UNL     1       4.126   5.239  16.971  0.00  0.00    +0.000 A 
ATOM     11  C   UNL     1       3.177   5.953  17.725  0.00  0.00    +0.000 A 
ATOM     12  C   UNL     1       3.144   7.447  17.880  0.00  0.00    +0.000 C 
ATOM     13  C   UNL     1       2.232   5.219  18.460  0.00  0.00    +0.000 A 
ENDBRANCH   3  10
ENDBRANCH   1   3
BRANCH   1  14
ATOM     14  C   UNL     1       7.639   6.653  17.861  0.00  0.00    +0.000 C 
BRANCH  14  15
ATOM     15  C   UNL     1       7.626   5.408  18.772  0.00  0.00    +0.000 C 
ATOM     16  N   UNL     1       7.870   4.202  18.177  0.00  0.00    +0.000 N 
ATOM     17  O   UNL     1       7.371   5.459  19.974  0.00  0.00    +0.000 OA
ATOM     18  H   UNL     1       7.830   4.108  17.169  0.00  0.00    +0.000 HD
ATOM     19  H   UNL     1       7.747   3.373  18.745  0.00  0.00    +0.000 HD
ENDBRANCH  14  15
BRANCH  14  20
ATOM     20  C   UNL     1       8.305   7.826  18.593  0.00  0.00    +0.000 C 
BRANCH  20  21
ATOM     21  C   UNL     1       8.160   9.130  17.793  0.00  0.00    +0.000 C 
BRANCH  21  22
ATOM     22  C   UNL     1       8.841  10.329  18.410  0.00  0.00    +0.000 C 
ATOM     23  N   UNL     1       9.436  10.058  19.615  0.00  0.00    +0.000 N 
ATOM     24  O   UNL     1       8.889  11.446  17.917  0.00  0.00    +0.000 OA
ATOM     25  H   UNL     1       9.286   9.197  20.114  0.00  0.00    +0.000 HD
ATOM     26  H   UNL     1       9.868  10.829  20.108  0.00  0.00    +0.000 HD
ENDBRANCH  21  22
ENDBRANCH  20  21
ENDBRANCH  14  20
ENDBRANCH   1  14
TORSDOF 7
ENDMDL
MODEL 2
REMARK VINA RESULT:      -7.5      3.279      5.633
REMARK  Name = 
REMARK  9 active torsions:
REMARK  status: ('A' for Active; 'I' for Inactive)
REMARK    1  A    between atoms: C_1  and  C_2
REMARK    2  A    between atoms: C_5  and  S_6
REMARK    3  A    between atoms: S_6  and  N_9
REMARK    4  A    between atoms: N_9  and  C_10
REMARK    5  A    between atoms: C_10  and  C_11
REMARK    6  A    between atoms: C_10  and  C_16
REMARK    7  A    between atoms: C_11  and  C_12
REMARK    8  A    between atoms: C_12  and  C_13
REMARK    9  A    between atoms: C_19  and  C_20
REMARK                            x       y       z     vdW  Elec       q    Type
REMARK                         _______ _______ _______ _____ _____    ______ ____
ROOT
ATOM      1  N   UNL     1       4.467   4.752  16.680  0.00  0.00    +0.000 NA
ATOM      2  H   UNL     1       4.458   5.758  16.846  0.00  0.00    +0.000 HD
ENDROOT
BRANCH   1   3
ATOM      3  S   UNL     1       4.038   3.921  18.089  0.00  0.00    +0.000 S 
ATOM      4  O   UNL     1       5.268   3.531  18.746  0.00  0.00    +0.000 OA
ATOM      5  O   UNL     1       3.053   2.938  17.715  0.00  0.00    +0.000 OA
BRANCH   3  10
ATOM      6  C   UNL     1       0.803   8.118  21.037  0.00  0.00    +0.000 C 
ATOM      7  C   UNL     1       1.705   7.121  20.373  0.00  0.00    +0.000 A 
ATOM      8  C   UNL     1       2.416   7.444  19.214  0.00  0.00    +0.000 A 
ATOM      9  C   UNL     1       3.182   6.472  18.571  0.00  0.00    +0.000 A 
ATOM     10  C   UNL     1       3.230   5.162  19.077  0.00  0.00    +0.000 A 
ATOM     11  C   UNL     1       2.575   4.833  20.278  0.00  0.00    +0.000 A 
ATOM     12  C   UNL     1       2.555   3.468  20.906  0.00  0.00    +0.000 C 
ATOM     13  C   UNL     1       1.809   5.829  20.905  0.00  0.00    +0.000 A 
ENDBRANCH   3  10
ENDBRANCH   1   3
BRANCH   1  14
ATOM     14  C   UNL     1       5.581   4.288  15.803  0.00  0.00    +0.000 C 
BRANCH  14  15
ATOM     15  C   UNL     1       6.853   5.034  16.256  0.00  0.00    +0.000 C 
ATOM     16  N   UNL     1       7.790   4.307  16.935  0.00  0.00    +0.000 N 
ATOM     17  O   UNL     1       7.029   6.236  16.067  0.00  0.00    +0.000 OA
ATOM     18  H   UNL     1       7.557   3.398  17.317  0.00  0.00    +0.000 HD
ATOM     19  H   UNL     1       8.569   4.814  17.335  0.00  0.00    +0.000 HD
ENDBRANCH  14  15
BRANCH  14  20
ATOM     20  C   UNL     1       5.343   4.528  14.306  0.00  0.00    +0.000 C 
BRANCH  20  21
ATOM     21  C   UNL     1       6.304   3.687  13.452  0.00  0.00    +0.000 C 
BRANCH  21  22
ATOM     22  C   UNL     1       5.674   3.040  12.242  0.00  0.00    +0.000 C 
ATOM     23  N   UNL     1       6.405   1.995  11.740  0.00  0.00    +0.000 N 
ATOM     24  O   UNL     1       4.615   3.375  11.732  0.00  0.00    +0.000 OA
ATOM     25  H   UNL     1       7.344   1.793  12.041  0.00  0.00    +0.000 HD
ATOM     26  H   UNL     1       6.065   1.547  10.899  0.00  0.00    +0.000 HD
ENDBRANCH  21  22
ENDBRANCH  20  21
ENDBRANCH  14  20
ENDBRANCH   1  14
TORSDOF 7
ENDMDL
MODEL 3
REMARK VINA RESULT:      -7.4      3.249      5.396
REMARK  Name = 
REMARK  9 active torsions:
REMARK  status: ('A' for Active; 'I' for Inactive)
REMARK    1  A    between atoms: C_1  and  C_2
REMARK    2  A    between atoms: C_5  and  S_6
REMARK    3  A    between atoms: S_6  and  N_9
REMARK    4  A    between atoms: N_9  and  C_10
REMARK    5  A    between atoms: C_10  and  C_11
REMARK    6  A    between atoms: C_10  and  C_16
REMARK    7  A    between atoms: C_11  and  C_12
REMARK    8  A    between atoms: C_12  and  C_13
REMARK    9  A    between atoms: C_19  and  C_20
REMARK                            x       y       z     vdW  Elec       q    Type
REMARK                         _______ _______ _______ _____ _____    ______ ____
ROOT
ATOM      1  N   UNL     1       4.264   4.569  16.418  0.00  0.00    +0.000 NA
ATOM      2  H   UNL     1       3.890   5.513  16.317  0.00  0.00    +0.000 HD
ENDROOT
BRANCH   1   3
ATOM      3  S   UNL     1       3.387   3.714  17.585  0.00  0.00    +0.000 S 
ATOM      4  O   UNL     1       4.317   2.829  18.254  0.00  0.00    +0.000 OA
ATOM      5  O   UNL     1       2.210   3.198  16.932  0.00  0.00    +0.000 OA
BRANCH   3  10
ATOM      6  C   UNL     1       1.139   8.115  21.098  0.00  0.00    +0.000 C 
ATOM      7  C   UNL     1       1.806   7.042  20.291  0.00  0.00    +0.000 A 
ATOM      8  C   UNL     1       2.511   7.344  19.124  0.00  0.00    +0.000 A 
ATOM      9  C   UNL     1       3.050   6.318  18.348  0.00  0.00    +0.000 A 
ATOM     10  C   UNL     1       2.872   4.977  18.729  0.00  0.00    +0.000 A 
ATOM     11  C   UNL     1       2.222   4.654  19.935  0.00  0.00    +0.000 A 
ATOM     12  C   UNL     1       1.974   3.261  20.437  0.00  0.00    +0.000 C 
ATOM     13  C   UNL     1       1.687   5.706  20.696  0.00  0.00    +0.000 A 
ENDBRANCH   3  10
ENDBRANCH   1   3
BRANCH   1  14
ATOM     14  C   UNL     1       5.751   4.490  16.339  0.00  0.00    +0.000 C 
BRANCH  14  15
ATOM     15  C   UNL     1       6.273   5.934  16.187  0.00  0.00    +0.000 C 
ATOM     16  N   UNL     1       5.377   6.877  15.769  0.00  0.00    +0.000 N 
ATOM     17  O   UNL     1       7.446   6.247  16.384  0.00  0.00    +0.000 OA
ATOM     18  H   UNL     1       4.490   6.600  15.364  0.00  0.00    +0.000 HD
ATOM     19  H   UNL     1       5.739   7.797  15.556  0.00  0.00    +0.000 HD
ENDBRANCH  14  15
BRANCH  14  20
ATOM     20  C   UNL     1       6.273   3.624  15.184  0.00  0.00    +0.000 C 
BRANCH  20  21
ATOM     21  C   UNL     1       5.563   3.973  13.867  0.00  0.00    +0.000 C 
BRANCH  21  22
ATOM     22  C   UNL     1       6.346   3.639  12.619  0.00  0.00    +0.000 C 
ATOM     23  N   UNL     1       5.945   2.474  12.020  0.00  0.00    +0.000 N 
ATOM     24  O   UNL     1       7.249   4.315  12.149  0.00  0.00    +0.000 OA
ATOM     25  H   UNL     1       5.315   1.824  12.460  0.00  0.00    +0.000 HD
ATOM     26  H   UNL     1       6.460   2.164  11.206  0.00  0.00    +0.000 HD
ENDBRANCH  21  22
ENDBRANCH  20  21
ENDBRANCH  14  20
ENDBRANCH   1  14
TORSDOF 7
ENDMDL
MODEL 4
REMARK VINA RESULT:      -7.2      3.249      5.512
REMARK  Name = 
REMARK  9 active torsions:
REMARK  status: ('A' for Active; 'I' for Inactive)
REMARK    1  A    between atoms: C_1  and  C_2
REMARK    2  A    between atoms: C_5  and  S_6
REMARK    3  A    between atoms: S_6  and  N_9
REMARK    4  A    between atoms: N_9  and  C_10
REMARK    5  A    between atoms: C_10  and  C_11
REMARK    6  A    between atoms: C_10  and  C_16
REMARK    7  A    between atoms: C_11  and  C_12
REMARK    8  A    between atoms: C_12  and  C_13
REMARK    9  A    between atoms: C_19  and  C_20
REMARK                            x       y       z     vdW  Elec       q    Type
REMARK                         _______ _______ _______ _____ _____    ______ ____
ROOT
ATOM      1  N   UNL     1       4.668   4.713  16.567  0.00  0.00    +0.000 NA
ATOM      2  H   UNL     1       4.581   5.728  16.618  0.00  0.00    +0.000 HD
ENDROOT
BRANCH   1   3
ATOM      3  S   UNL     1       4.387   4.023  18.086  0.00  0.00    +0.000 S 
ATOM      4  O   UNL     1       5.647   4.032  18.799  0.00  0.00    +0.000 OA
ATOM      5  O   UNL     1       3.669   2.793  17.863  0.00  0.00    +0.000 OA
BRANCH   3  10
ATOM      6  C   UNL     1       1.011   7.948  21.242  0.00  0.00    +0.000 C 
ATOM      7  C   UNL     1       1.742   6.955  20.390  0.00  0.00    +0.000 A 
ATOM      8  C   UNL     1       1.724   5.590  20.687  0.00  0.00    +0.000 A 
ATOM      9  C   UNL     1       2.481   4.699  19.926  0.00  0.00    +0.000 A 
ATOM     10  C   UNL     1       3.277   5.174  18.868  0.00  0.00    +0.000 A 
ATOM     11  C   UNL     1       3.259   6.535  18.512  0.00  0.00    +0.000 A 
ATOM     12  C   UNL     1       4.070   7.149  17.407  0.00  0.00    +0.000 C 
ATOM     13  C   UNL     1       2.490   7.410  19.295  0.00  0.00    +0.000 A 
ENDBRANCH   3  10
ENDBRANCH   1   3
BRANCH   1  14
ATOM     14  C   UNL     1       5.771   4.239  15.681  0.00  0.00    +0.000 C 
BRANCH  14  15
ATOM     15  C   UNL     1       7.063   4.935  16.156  0.00  0.00    +0.000 C 
ATOM     16  N   UNL     1       7.896   4.211  16.964  0.00  0.00    +0.000 N 
ATOM     17  O   UNL     1       7.341   6.099  15.875  0.00  0.00    +0.000 OA
ATOM     18  H   UNL     1       7.571   3.360  17.408  0.00  0.00    +0.000 HD
ATOM     19  H   UNL     1       8.683   4.699  17.373  0.00  0.00    +0.000 HD
ENDBRANCH  14  15
BRANCH  14  20
ATOM     20  C   UNL     1       5.545   4.524  14.191  0.00  0.00    +0.000 C 
BRANCH  20  21
ATOM     21  C   UNL     1       6.354   3.556  13.313  0.00  0.00    +0.000 C 
BRANCH  21  22
ATOM     22  C   UNL     1       5.590   2.966  12.152  0.00  0.00    +0.000 C 
ATOM     23  N   UNL     1       6.183   1.851  11.620  0.00  0.00    +0.000 N 
ATOM     24  O   UNL     1       4.540   3.401  11.702  0.00  0.00    +0.000 OA
ATOM     25  H   UNL     1       7.115   1.560  11.866  0.00  0.00    +0.000 HD
ATOM     26  H   UNL     1       5.750   1.433  10.807  0.00  0.00    +0.000 HD
ENDBRANCH  21  22
ENDBRANCH  20  21
ENDBRANCH  14  20
ENDBRANCH   1  14
TORSDOF 7
ENDMDL
MODEL 5
REMARK VINA RESULT:      -7.2      3.294      4.984
REMARK  Name = 
REMARK  9 active torsions:
REMARK  status: ('A' for Active; 'I' for Inactive)
REMARK    1  A    between atoms: C_1  and  C_2
REMARK    2  A    between atoms: C_5  and  S_6
REMARK    3  A    between atoms: S_6  and  N_9
REMARK    4  A    between atoms: N_9  and  C_10
REMARK    5  A    between atoms: C_10  and  C_11
REMARK    6  A    between atoms: C_10  and  C_16
REMARK    7  A    between atoms: C_11  and  C_12
REMARK    8  A    between atoms: C_12  and  C_13
REMARK    9  A    between atoms: C_19  and  C_20
REMARK                            x       y       z     vdW  Elec       q    Type
REMARK                         _______ _______ _______ _____ _____    ______ ____
ROOT
ATOM      1  N   UNL     1       5.245   3.750  16.833  0.00  0.00    +0.000 NA
ATOM      2  H   UNL     1       4.483   3.081  16.726  0.00  0.00    +0.000 HD
ENDROOT
BRANCH   1   3
ATOM      3  S   UNL     1       4.735   5.077  17.751  0.00  0.00    +0.000 S 
ATOM      4  O   UNL     1       4.051   5.980  16.851  0.00  0.00    +0.000 OA
ATOM      5  O   UNL     1       5.870   5.516  18.523  0.00  0.00    +0.000 OA
BRANCH   3  10
ATOM      6  C   UNL     1       1.162   2.599  21.978  0.00  0.00    +0.000 C 
ATOM      7  C   UNL     1       1.952   3.190  20.848  0.00  0.00    +0.000 A 
ATOM      8  C   UNL     1       2.758   2.393  20.032  0.00  0.00    +0.000 A 
ATOM      9  C   UNL     1       3.546   2.980  19.042  0.00  0.00    +0.000 A 
ATOM     10  C   UNL     1       3.544   4.375  18.873  0.00  0.00    +0.000 A 
ATOM     11  C   UNL     1       2.691   5.189  19.641  0.00  0.00    +0.000 A 
ATOM     12  C   UNL     1       2.610   6.686  19.548  0.00  0.00    +0.000 C 
ATOM     13  C   UNL     1       1.909   4.574  20.632  0.00  0.00    +0.000 A 
ENDBRANCH   3  10
ENDBRANCH   1   3
BRANCH   1  14
ATOM     14  C   UNL     1       6.088   3.916  15.614  0.00  0.00    +0.000 C 
BRANCH  14  15
ATOM     15  C   UNL     1       7.325   4.740  16.028  0.00  0.00    +0.000 C 
ATOM     16  N   UNL     1       8.046   4.284  17.096  0.00  0.00    +0.000 N 
ATOM     17  O   UNL     1       7.650   5.787  15.472  0.00  0.00    +0.000 OA
ATOM     18  H   UNL     1       7.659   3.581  17.715  0.00  0.00    +0.000 HD
ATOM     19  H   UNL     1       8.785   4.881  17.444  0.00  0.00    +0.000 HD
ENDBRANCH  14  15
BRANCH  14  20
ATOM     20  C   UNL     1       5.372   4.603  14.445  0.00  0.00    +0.000 C 
BRANCH  20  21
ATOM     21  C   UNL     1       5.242   3.656  13.242  0.00  0.00    +0.000 C 
BRANCH  21  22
ATOM     22  C   UNL     1       6.481   3.547  12.385  0.00  0.00    +0.000 C 
ATOM     23  N   UNL     1       6.647   2.309  11.822  0.00  0.00    +0.000 N 
ATOM     24  O   UNL     1       7.279   4.450  12.179  0.00  0.00    +0.000 OA
ATOM     25  H   UNL     1       6.097   1.510  12.091  0.00  0.00    +0.000 HD
ATOM     26  H   UNL     1       7.484   2.152  11.275  0.00  0.00    +0.000 HD
ENDBRANCH  21  22
ENDBRANCH  20  21
ENDBRANCH  14  20
ENDBRANCH   1  14
TORSDOF 7
ENDMDL
MODEL 6
REMARK VINA RESULT:      -7.1      3.365      6.401
REMARK  Name = 
REMARK  9 active torsions:
REMARK  status: ('A' for Active; 'I' for Inactive)
REMARK    1  A    between atoms: C_1  and  C_2
REMARK    2  A    between atoms: C_5  and  S_6
REMARK    3  A    between atoms: S_6  and  N_9
REMARK    4  A    between atoms: N_9  and  C_10
REMARK    5  A    between atoms: C_10  and  C_11
REMARK    6  A    between atoms: C_10  and  C_16
REMARK    7  A    between atoms: C_11  and  C_12
REMARK    8  A    between atoms: C_12  and  C_13
REMARK    9  A    between atoms: C_19  and  C_20
REMARK                            x       y       z     vdW  Elec       q    Type
REMARK                         _______ _______ _______ _____ _____    ______ ____
ROOT
ATOM      1  N   UNL     1       3.089   4.619  17.825  0.00  0.00    +0.000 NA
ATOM      2  H   UNL     1       3.019   4.271  16.869  0.00  0.00    +0.000 HD
ENDROOT
BRANCH   1   3
ATOM      3  S   UNL     1       4.399   5.680  17.968  0.00  0.00    +0.000 S 
ATOM      4  O   UNL     1       5.097   5.335  19.188  0.00  0.00    +0.000 OA
ATOM      5  O   UNL     1       3.888   7.010  17.756  0.00  0.00    +0.000 OA
BRANCH   3  10
ATOM      6  C   UNL     1       7.545   4.630  12.891  0.00  0.00    +0.000 C 
ATOM      7  C   UNL     1       6.822   4.784  14.195  0.00  0.00    +0.000 A 
ATOM      8  C   UNL     1       5.596   4.154  14.425  0.00  0.00    +0.000 A 
ATOM      9  C   UNL     1       4.905   4.383  15.615  0.00  0.00    +0.000 A 
ATOM     10  C   UNL     1       5.431   5.259  16.580  0.00  0.00    +0.000 A 
ATOM     11  C   UNL     1       6.694   5.852  16.397  0.00  0.00    +0.000 A 
ATOM     12  C   UNL     1       7.349   6.804  17.357  0.00  0.00    +0.000 C 
ATOM     13  C   UNL     1       7.368   5.608  15.189  0.00  0.00    +0.000 A 
ENDBRANCH   3  10
ENDBRANCH   1   3
BRANCH   1  14
ATOM     14  C   UNL     1       2.788   3.597  18.870  0.00  0.00    +0.000 C 
BRANCH  14  15
ATOM     15  C   UNL     1       3.746   2.411  18.631  0.00  0.00    +0.000 C 
ATOM     16  N   UNL     1       4.817   2.300  19.473  0.00  0.00    +0.000 N 
ATOM     17  O   UNL     1       3.604   1.609  17.710  0.00  0.00    +0.000 OA
ATOM     18  H   UNL     1       5.090   3.077  20.064  0.00  0.00    +0.000 HD
ATOM     19  H   UNL     1       5.509   1.596  19.250  0.00  0.00    +0.000 HD
ENDBRANCH  14  15
BRANCH  14  20
ATOM     20  C   UNL     1       1.336   3.103  18.864  0.00  0.00    +0.000 C 
BRANCH  20  21
ATOM     21  C   UNL     1       0.710   3.209  20.264  0.00  0.00    +0.000 C 
BRANCH  21  22
ATOM     22  C   UNL     1       1.684   3.546  21.368  0.00  0.00    +0.000 C 
ATOM     23  N   UNL     1       1.968   2.485  22.187  0.00  0.00    +0.000 N 
ATOM     24  O   UNL     1       2.199   4.640  21.547  0.00  0.00    +0.000 OA
ATOM     25  H   UNL     1       1.450   1.622  22.159  0.00  0.00    +0.000 HD
ATOM     26  H   UNL     1       2.575   2.653  22.978  0.00  0.00    +0.000 HD
ENDBRANCH  21  22
ENDBRANCH  20  21
ENDBRANCH  14  20
ENDBRANCH   1  14
TORSDOF 7
ENDMDL
MODEL 7
REMARK VINA RESULT:      -7.1      3.443      6.578
REMARK  Name = 
REMARK  9 active torsions:
REMARK  status: ('A' for Active; 'I' for Inactive)
REMARK    1  A    between atoms: C_1  and  C_2
REMARK    2  A    between atoms: C_5  and  S_6
REMARK    3  A    between atoms: S_6  and  N_9
REMARK    4  A    between atoms: N_9  and  C_10
REMARK    5  A    between atoms: C_10  and  C_11
REMARK    6  A    between atoms: C_10  and  C_16
REMARK    7  A    between atoms: C_11  and  C_12
REMARK    8  A    between atoms: C_12  and  C_13
REMARK    9  A    between atoms: C_19  and  C_20
REMARK                            x       y       z     vdW  Elec       q    Type
REMARK                         _______ _______ _______ _____ _____    ______ ____
ROOT
ATOM      1  N   UNL     1       4.017   5.557  18.847  0.00  0.00    +0.000 NA
ATOM      2  H   UNL     1       4.581   6.232  18.331  0.00  0.00    +0.000 HD
ENDROOT
BRANCH   1   3
ATOM      3  S   UNL     1       4.439   3.980  18.405  0.00  0.00    +0.000 S 
ATOM      4  O   UNL     1       3.225   3.317  17.978  0.00  0.00    +0.000 OA
ATOM      5  O   UNL     1       5.241   3.442  19.475  0.00  0.00    +0.000 OA
BRANCH   3  10
ATOM      6  C   UNL     1       7.662   5.259  13.430  0.00  0.00    +0.000 C 
ATOM      7  C   UNL     1       6.920   4.828  14.660  0.00  0.00    +0.000 A 
ATOM      8  C   UNL     1       5.702   4.151  14.572  0.00  0.00    +0.000 A 
ATOM      9  C   UNL     1       4.992   3.835  15.731  0.00  0.00    +0.000 A 
ATOM     10  C   UNL     1       5.494   4.211  16.989  0.00  0.00    +0.000 A 
ATOM     11  C   UNL     1       6.750   4.834  17.104  0.00  0.00    +0.000 A 
ATOM     12  C   UNL     1       7.379   5.281  18.392  0.00  0.00    +0.000 C 
ATOM     13  C   UNL     1       7.442   5.143  15.922  0.00  0.00    +0.000 A 
ENDBRANCH   3  10
ENDBRANCH   1   3
BRANCH   1  14
ATOM     14  C   UNL     1       2.595   5.967  19.034  0.00  0.00    +0.000 C 
BRANCH  14  15
ATOM     15  C   UNL     1       2.505   7.463  18.670  0.00  0.00    +0.000 C 
ATOM     16  N   UNL     1       1.794   8.266  19.518  0.00  0.00    +0.000 N 
ATOM     17  O   UNL     1       3.001   7.937  17.650  0.00  0.00    +0.000 OA
ATOM     18  H   UNL     1       1.176   7.862  20.212  0.00  0.00    +0.000 HD
ATOM     19  H   UNL     1       1.633   9.221  19.225  0.00  0.00    +0.000 HD
ENDBRANCH  14  15
BRANCH  14  20
ATOM     20  C   UNL     1       2.060   5.744  20.454  0.00  0.00    +0.000 C 
BRANCH  20  21
ATOM     21  C   UNL     1       1.118   4.531  20.506  0.00  0.00    +0.000 C 
BRANCH  21  22
ATOM     22  C   UNL     1       1.722   3.286  21.111  0.00  0.00    +0.000 C 
ATOM     23  N   UNL     1       1.709   2.207  20.266  0.00  0.00    +0.000 N 
ATOM     24  O   UNL     1       2.194   3.205  22.236  0.00  0.00    +0.000 OA
ATOM     25  H   UNL     1       1.196   2.200  19.400  0.00  0.00    +0.000 HD
ATOM     26  H   UNL     1       2.054   1.327  20.625  0.00  0.00    +0.000 HD
ENDBRANCH  21  22
ENDBRANCH  20  21
ENDBRANCH  14  20
ENDBRANCH   1  14
TORSDOF 7
ENDMDL
MODEL 8
REMARK VINA RESULT:      -7.1      3.315      6.331
REMARK  Name = 
REMARK  9 active torsions:
REMARK  status: ('A' for Active; 'I' for Inactive)
REMARK    1  A    between atoms: C_1  and  C_2
REMARK    2  A    between atoms: C_5  and  S_6
REMARK    3  A    between atoms: S_6  and  N_9
REMARK    4  A    between atoms: N_9  and  C_10
REMARK    5  A    between atoms: C_10  and  C_11
REMARK    6  A    between atoms: C_10  and  C_16
REMARK    7  A    between atoms: C_11  and  C_12
REMARK    8  A    between atoms: C_12  and  C_13
REMARK    9  A    between atoms: C_19  and  C_20
REMARK                            x       y       z     vdW  Elec       q    Type
REMARK                         _______ _______ _______ _____ _____    ______ ____
ROOT
ATOM      1  N   UNL     1       4.560   5.886  19.588  0.00  0.00    +0.000 NA
ATOM      2  H   UNL     1       5.035   6.771  19.413  0.00  0.00    +0.000 HD
ENDROOT
BRANCH   1   3
ATOM      3  S   UNL     1       5.594   4.590  19.257  0.00  0.00    +0.000 S 
ATOM      4  O   UNL     1       4.898   3.379  19.639  0.00  0.00    +0.000 OA
ATOM      5  O   UNL     1       6.877   4.919  19.826  0.00  0.00    +0.000 OA
BRANCH   3  10
ATOM      6  C   UNL     1       6.542   4.219  13.279  0.00  0.00    +0.000 C 
ATOM      7  C   UNL     1       6.261   4.428  14.737  0.00  0.00    +0.000 A 
ATOM      8  C   UNL     1       7.195   5.039  15.576  0.00  0.00    +0.000 A 
ATOM      9  C   UNL     1       6.943   5.145  16.944  0.00  0.00    +0.000 A 
ATOM     10  C   UNL     1       5.754   4.624  17.485  0.00  0.00    +0.000 A 
ATOM     11  C   UNL     1       4.771   4.064  16.648  0.00  0.00    +0.000 A 
ATOM     12  C   UNL     1       3.471   3.475  17.116  0.00  0.00    +0.000 C 
ATOM     13  C   UNL     1       5.052   3.967  15.275  0.00  0.00    +0.000 A 
ENDBRANCH   3  10
ENDBRANCH   1   3
BRANCH   1  14
ATOM     14  C   UNL     1       3.126   5.872  19.177  0.00  0.00    +0.000 C 
BRANCH  14  15
ATOM     15  C   UNL     1       2.882   7.148  18.345  0.00  0.00    +0.000 C 
ATOM     16  N   UNL     1       1.960   8.036  18.826  0.00  0.00    +0.000 N 
ATOM     17  O   UNL     1       3.442   7.368  17.273  0.00  0.00    +0.000 OA
ATOM     18  H   UNL     1       1.314   7.761  19.557  0.00  0.00    +0.000 HD
ATOM     19  H   UNL     1       1.711   8.814  18.228  0.00  0.00    +0.000 HD
ENDBRANCH  14  15
BRANCH  14  20
ATOM     20  C   UNL     1       2.138   5.819  20.349  0.00  0.00    +0.000 C 
BRANCH  20  21
ATOM     21  C   UNL     1       1.267   4.554  20.281  0.00  0.00    +0.000 C 
BRANCH  21  22
ATOM     22  C   UNL     1       1.839   3.353  20.996  0.00  0.00    +0.000 C 
ATOM     23  N   UNL     1       2.001   2.262  20.183  0.00  0.00    +0.000 N 
ATOM     24  O   UNL     1       2.148   3.315  22.178  0.00  0.00    +0.000 OA
ATOM     25  H   UNL     1       1.619   2.214  19.253  0.00  0.00    +0.000 HD
ATOM     26  H   UNL     1       2.334   1.406  20.609  0.00  0.00    +0.000 HD
ENDBRANCH  21  22
ENDBRANCH  20  21
ENDBRANCH  14  20
ENDBRANCH   1  14
TORSDOF 7
ENDMDL
MODEL 9
REMARK VINA RESULT:      -7.0      3.432      6.451
REMARK  Name = 
REMARK  9 active torsions:
REMARK  status: ('A' for Active; 'I' for Inactive)
REMARK    1  A    between atoms: C_1  and  C_2
REMARK    2  A    between atoms: C_5  and  S_6
REMARK    3  A    between atoms: S_6  and  N_9
REMARK    4  A    between atoms: N_9  and  C_10
REMARK    5  A    between atoms: C_10  and  C_11
REMARK    6  A    between atoms: C_10  and  C_16
REMARK    7  A    between atoms: C_11  and  C_12
REMARK    8  A    between atoms: C_12  and  C_13
REMARK    9  A    between atoms: C_19  and  C_20
REMARK                            x       y       z     vdW  Elec       q    Type
REMARK                         _______ _______ _______ _____ _____    ______ ____
ROOT
ATOM      1  N   UNL     1       3.674   4.352  18.968  0.00  0.00    +0.000 NA
ATOM      2  H   UNL     1       3.404   3.905  18.092  0.00  0.00    +0.000 HD
ENDROOT
BRANCH   1   3
ATOM      3  S   UNL     1       4.896   5.489  18.692  0.00  0.00    +0.000 S 
ATOM      4  O   UNL     1       5.894   5.304  19.724  0.00  0.00    +0.000 OA
ATOM      5  O   UNL     1       4.249   6.764  18.505  0.00  0.00    +0.000 OA
BRANCH   3  10
ATOM      6  C   UNL     1       6.761   4.083  13.096  0.00  0.00    +0.000 C 
ATOM      7  C   UNL     1       6.377   4.339  14.522  0.00  0.00    +0.000 A 
ATOM      8  C   UNL     1       5.340   3.631  15.133  0.00  0.00    +0.000 A 
ATOM      9  C   UNL     1       4.949   3.947  16.435  0.00  0.00    +0.000 A 
ATOM     10  C   UNL     1       5.587   4.989  17.129  0.00  0.00    +0.000 A 
ATOM     11  C   UNL     1       6.677   5.671  16.557  0.00  0.00    +0.000 A 
ATOM     12  C   UNL     1       7.427   6.800  17.204  0.00  0.00    +0.000 C 
ATOM     13  C   UNL     1       7.048   5.335  15.245  0.00  0.00    +0.000 A 
ENDBRANCH   3  10
ENDBRANCH   1   3
BRANCH   1  14
ATOM     14  C   UNL     1       3.711   3.428  20.138  0.00  0.00    +0.000 C 
BRANCH  14  15
ATOM     15  C   UNL     1       4.183   2.055  19.616  0.00  0.00    +0.000 C 
ATOM     16  N   UNL     1       5.230   1.468  20.270  0.00  0.00    +0.000 N 
ATOM     17  O   UNL     1       3.689   1.505  18.633  0.00  0.00    +0.000 OA
ATOM     18  H   UNL     1       5.805   2.007  20.906  0.00  0.00    +0.000 HD
ATOM     19  H   UNL     1       5.618   0.627  19.861  0.00  0.00    +0.000 HD
ENDBRANCH  14  15
BRANCH  14  20
ATOM     20  C   UNL     1       2.367   3.276  20.861  0.00  0.00    +0.000 C 
BRANCH  20  21
ATOM     21  C   UNL     1       1.227   3.906  20.046  0.00  0.00    +0.000 C 
BRANCH  21  22
ATOM     22  C   UNL     1       0.806   3.116  18.829  0.00  0.00    +0.000 C 
ATOM     23  N   UNL     1       1.187   3.692  17.646  0.00  0.00    +0.000 N 
ATOM     24  O   UNL     1       0.194   2.058  18.850  0.00  0.00    +0.000 OA
ATOM     25  H   UNL     1       1.555   4.628  17.590  0.00  0.00    +0.000 HD
ATOM     26  H   UNL     1       0.895   3.241  16.789  0.00  0.00    +0.000 HD
ENDBRANCH  21  22
ENDBRANCH  20  21
ENDBRANCH  14  20
ENDBRANCH   1  14
TORSDOF 7
ENDMDL
