MODEL 1
REMARK VINA RESULT:      -5.2      0.000      0.000
REMARK  Name = 
REMARK  16 active torsions:
REMARK  status: ('A' for Active; 'I' for Inactive)
REMARK    1  A    between atoms: C_1  and  C_2
REMARK    2  A    between atoms: C_2  and  C_3
REMARK    3  A    between atoms: C_3  and  C_4
REMARK    4  A    between atoms: C_4  and  C_5
REMARK    5  A    between atoms: C_5  and  C_6
REMARK    6  A    between atoms: C_6  and  C_7
REMARK    7  A    between atoms: C_7  and  C_8
REMARK    8  A    between atoms: C_8  and  C_9
REMARK    9  A    between atoms: C_9  and  C_10
REMARK   10  A    between atoms: C_10  and  C_11
REMARK   11  A    between atoms: C_11  and  C_12
REMARK   12  A    between atoms: C_12  and  C_13
REMARK   13  A    between atoms: C_13  and  O_14
REMARK   14  A    between atoms: O_14  and  C_15
REMARK   15  A    between atoms: C_15  and  C_16
REMARK   16  A    between atoms: C_16  and  O_18
REMARK                            x       y       z     vdW  Elec       q    Type
REMARK                         _______ _______ _______ _____ _____    ______ ____
ROOT
ATOM      1  C   UNL     1       2.815   6.846  17.976  0.00  0.00    +0.000 C 
ENDROOT
BRANCH   1   2
ATOM      2  C   UNL     1       2.743   6.840  19.494  0.00  0.00    +0.000 C 
BRANCH   2   3
ATOM      3  C   UNL     1       3.102   5.465  20.027  0.00  0.00    +0.000 C 
BRANCH   3   4
ATOM      4  C   UNL     1       2.212   5.116  21.206  0.00  0.00    +0.000 C 
BRANCH   4   5
ATOM      5  C   UNL     1       1.745   3.676  21.095  0.00  0.00    +0.000 C 
BRANCH   5   6
ATOM      6  C   UNL     1       0.629   3.570  20.072  0.00  0.00    +0.000 C 
BRANCH   6   7
ATOM      7  C   UNL     1       0.989   2.544  19.012  0.00  0.00    +0.000 C 
BRANCH   7   8
ATOM      8  C   UNL     1       1.600   3.233  17.804  0.00  0.00    +0.000 C 
BRANCH   8  10
ATOM      9  C   UNL     1       3.493   1.724  18.394  0.00  0.00    +0.000 C 
ATOM     10  C   UNL     1       2.766   2.420  17.261  0.00  0.00    +0.000 C 
ENDBRANCH   8  10
ENDBRANCH   7   8
ENDBRANCH   6   7
ENDBRANCH   5   6
ENDBRANCH   4   5
ENDBRANCH   3   4
ENDBRANCH   2   3
ENDBRANCH   1   2
BRANCH   1  11
ATOM     11  C   UNL     1       3.916   5.910  17.506  0.00  0.00    +0.000 C 
BRANCH  11  12
ATOM     12  C   UNL     1       4.892   6.640  16.596  0.00  0.00    +0.000 C 
BRANCH  12  13
ATOM     13  C   UNL     1       6.246   6.766  17.275  0.00  0.00    +0.000 C 
BRANCH  13  14
ATOM     14  O   UNL     1       7.242   6.253  16.388  0.00  0.00    +0.000 OA
BRANCH  14  15
ATOM     15  C   UNL     1       7.035   4.863  16.119  0.00  0.00    +0.000 C 
BRANCH  15  16
ATOM     16  C   UNL     1       6.991   4.621  14.613  0.00  0.00    +0.000 C 
ATOM     17  O   UNL     1       7.512   5.374  13.782  0.00  0.00    +0.000 OA
BRANCH  16  18
ATOM     18  O   UNL     1       6.332   3.503  14.233  0.00  0.00    +0.000 OA
ATOM     19  H   UNL     1       5.432   3.439  14.622  0.00  0.00    +0.000 HD
ENDBRANCH  16  18
ENDBRANCH  15  16
ENDBRANCH  14  15
ENDBRANCH  13  14
ENDBRANCH  12  13
ENDBRANCH  11  12
ENDBRANCH   1  11
TORSDOF 15
ENDMDL
MODEL 2
REMARK VINA RESULT:      -5.1      3.506      6.218
REMARK  Name = 
REMARK  16 active torsions:
REMARK  status: ('A' for Active; 'I' for Inactive)
REMARK    1  A    between atoms: C_1  and  C_2
REMARK    2  A    between atoms: C_2  and  C_3
REMARK    3  A    between atoms: C_3  and  C_4
REMARK    4  A    between atoms: C_4  and  C_5
REMARK    5  A    between atoms: C_5  and  C_6
REMARK    6  A    between atoms: C_6  and  C_7
REMARK    7  A    between atoms: C_7  and  C_8
REMARK    8  A    between atoms: C_8  and  C_9
REMARK    9  A    between atoms: C_9  and  C_10
REMARK   10  A    between atoms: C_10  and  C_11
REMARK   11  A    between atoms: C_11  and  C_12
REMARK   12  A    between atoms: C_12  and  C_13
REMARK   13  A    between atoms: C_13  and  O_14
REMARK   14  A    between atoms: O_14  and  C_15
REMARK   15  A    between atoms: C_15  and  C_16
REMARK   16  A    between atoms: C_16  and  O_18
REMARK                            x       y       z     vdW  Elec       q    Type
REMARK                         _______ _______ _______ _____ _____    ______ ____
ROOT
ATOM      1  C   UNL     1       2.662   5.356  18.219  0.00  0.00    +0.000 C 
ENDROOT
BRANCH   1   2
ATOM      2  C   UNL     1       3.549   6.576  18.023  0.00  0.00    +0.000 C 
BRANCH   2   3
ATOM      3  C   UNL     1       4.552   6.316  16.914  0.00  0.00    +0.000 C 
BRANCH   3   4
ATOM      4  C   UNL     1       5.916   6.852  17.310  0.00  0.00    +0.000 C 
BRANCH   4   5
ATOM      5  C   UNL     1       7.003   6.116  16.549  0.00  0.00    +0.000 C 
BRANCH   5   6
ATOM      6  C   UNL     1       7.011   4.650  16.944  0.00  0.00    +0.000 C 
BRANCH   6   7
ATOM      7  C   UNL     1       6.420   3.807  15.828  0.00  0.00    +0.000 C 
BRANCH   7   8
ATOM      8  C   UNL     1       6.626   4.495  14.489  0.00  0.00    +0.000 C 
BRANCH   8  10
ATOM      9  C   UNL     1       6.166   3.364  12.317  0.00  0.00    +0.000 C 
ATOM     10  C   UNL     1       5.546   4.075  13.503  0.00  0.00    +0.000 C 
ENDBRANCH   8  10
ENDBRANCH   7   8
ENDBRANCH   6   7
ENDBRANCH   5   6
ENDBRANCH   4   5
ENDBRANCH   3   4
ENDBRANCH   2   3
ENDBRANCH   1   2
BRANCH   1  11
ATOM     11  C   UNL     1       3.055   4.268  17.234  0.00  0.00    +0.000 C 
BRANCH  11  12
ATOM     12  C   UNL     1       3.291   2.949  17.956  0.00  0.00    +0.000 C 
BRANCH  12  13
ATOM     13  C   UNL     1       4.267   3.149  19.103  0.00  0.00    +0.000 C 
BRANCH  13  14
ATOM     14  O   UNL     1       3.703   2.566  20.280  0.00  0.00    +0.000 OA
BRANCH  14  15
ATOM     15  C   UNL     1       2.380   2.079  20.037  0.00  0.00    +0.000 C 
BRANCH  15  16
ATOM     16  C   UNL     1       1.385   2.776  20.960  0.00  0.00    +0.000 C 
ATOM     17  O   UNL     1       1.415   2.684  22.193  0.00  0.00    +0.000 OA
BRANCH  16  18
ATOM     18  O   UNL     1       0.447   3.519  20.333  0.00  0.00    +0.000 OA
ATOM     19  H   UNL     1      -0.469   3.207  20.508  0.00  0.00    +0.000 HD
ENDBRANCH  16  18
ENDBRANCH  15  16
ENDBRANCH  14  15
ENDBRANCH  13  14
ENDBRANCH  12  13
ENDBRANCH  11  12
ENDBRANCH   1  11
TORSDOF 15
ENDMDL
MODEL 3
REMARK VINA RESULT:      -5.1      3.421      6.462
REMARK  Name = 
REMARK  16 active torsions:
REMARK  status: ('A' for Active; 'I' for Inactive)
REMARK    1  A    between atoms: C_1  and  C_2
REMARK    2  A    between atoms: C_2  and  C_3
REMARK    3  A    between atoms: C_3  and  C_4
REMARK    4  A    between atoms: C_4  and  C_5
REMARK    5  A    between atoms: C_5  and  C_6
REMARK    6  A    between atoms: C_6  and  C_7
REMARK    7  A    between atoms: C_7  and  C_8
REMARK    8  A    between atoms: C_8  and  C_9
REMARK    9  A    between atoms: C_9  and  C_10
REMARK   10  A    between atoms: C_10  and  C_11
REMARK   11  A    between atoms: C_11  and  C_12
REMARK   12  A    between atoms: C_12  and  C_13
REMARK   13  A    between atoms: C_13  and  O_14
REMARK   14  A    between atoms: O_14  and  C_15
REMARK   15  A    between atoms: C_15  and  C_16
REMARK   16  A    between atoms: C_16  and  O_18
REMARK                            x       y       z     vdW  Elec       q    Type
REMARK                         _______ _______ _______ _____ _____    ______ ____
ROOT
ATOM      1  C   UNL     1       3.283   4.747  17.397  0.00  0.00    +0.000 C 
ENDROOT
BRANCH   1   2
ATOM      2  C   UNL     1       4.244   5.568  18.242  0.00  0.00    +0.000 C 
BRANCH   2   3
ATOM      3  C   UNL     1       4.488   6.917  17.590  0.00  0.00    +0.000 C 
BRANCH   3   4
ATOM      4  C   UNL     1       5.455   6.766  16.430  0.00  0.00    +0.000 C 
BRANCH   4   5
ATOM      5  C   UNL     1       6.710   6.048  16.892  0.00  0.00    +0.000 C 
BRANCH   5   6
ATOM      6  C   UNL     1       7.010   4.880  15.971  0.00  0.00    +0.000 C 
BRANCH   6   7
ATOM      7  C   UNL     1       6.139   4.961  14.729  0.00  0.00    +0.000 C 
BRANCH   7   8
ATOM      8  C   UNL     1       6.328   3.717  13.877  0.00  0.00    +0.000 C 
BRANCH   8  10
ATOM      9  C   UNL     1       5.639   2.633  11.742  0.00  0.00    +0.000 C 
ATOM     10  C   UNL     1       5.247   3.635  12.809  0.00  0.00    +0.000 C 
ENDBRANCH   8  10
ENDBRANCH   7   8
ENDBRANCH   6   7
ENDBRANCH   5   6
ENDBRANCH   4   5
ENDBRANCH   3   4
ENDBRANCH   2   3
ENDBRANCH   1   2
BRANCH   1  11
ATOM     11  C   UNL     1       3.816   3.334  17.232  0.00  0.00    +0.000 C 
BRANCH  11  12
ATOM     12  C   UNL     1       2.761   2.311  17.625  0.00  0.00    +0.000 C 
BRANCH  12  13
ATOM     13  C   UNL     1       2.908   1.946  19.093  0.00  0.00    +0.000 C 
BRANCH  13  14
ATOM     14  O   UNL     1       1.601   1.818  19.657  0.00  0.00    +0.000 OA
BRANCH  14  15
ATOM     15  C   UNL     1       1.051   3.096  19.993  0.00  0.00    +0.000 C 
BRANCH  15  16
ATOM     16  C   UNL     1       1.803   3.697  21.177  0.00  0.00    +0.000 C 
ATOM     17  O   UNL     1       2.276   4.839  21.179  0.00  0.00    +0.000 OA
BRANCH  16  18
ATOM     18  O   UNL     1       1.923   2.884  22.250  0.00  0.00    +0.000 OA
ATOM     19  H   UNL     1       1.389   3.185  23.019  0.00  0.00    +0.000 HD
ENDBRANCH  16  18
ENDBRANCH  15  16
ENDBRANCH  14  15
ENDBRANCH  13  14
ENDBRANCH  12  13
ENDBRANCH  11  12
ENDBRANCH   1  11
TORSDOF 15
ENDMDL
MODEL 4
REMARK VINA RESULT:      -5.1      1.422      2.994
REMARK  Name = 
REMARK  16 active torsions:
REMARK  status: ('A' for Active; 'I' for Inactive)
REMARK    1  A    between atoms: C_1  and  C_2
REMARK    2  A    between atoms: C_2  and  C_3
REMARK    3  A    between atoms: C_3  and  C_4
REMARK    4  A    between atoms: C_4  and  C_5
REMARK    5  A    between atoms: C_5  and  C_6
REMARK    6  A    between atoms: C_6  and  C_7
REMARK    7  A    between atoms: C_7  and  C_8
REMARK    8  A    between atoms: C_8  and  C_9
REMARK    9  A    between atoms: C_9  and  C_10
REMARK   10  A    between atoms: C_10  and  C_11
REMARK   11  A    between atoms: C_11  and  C_12
REMARK   12  A    between atoms: C_12  and  C_13
REMARK   13  A    between atoms: C_13  and  O_14
REMARK   14  A    between atoms: O_14  and  C_15
REMARK   15  A    between atoms: C_15  and  C_16
REMARK   16  A    between atoms: C_16  and  O_18
REMARK                            x       y       z     vdW  Elec       q    Type
REMARK                         _______ _______ _______ _____ _____    ______ ____
ROOT
ATOM      1  C   UNL     1       4.718   4.222  18.598  0.00  0.00    +0.000 C 
ENDROOT
BRANCH   1   2
ATOM      2  C   UNL     1       3.558   4.495  17.653  0.00  0.00    +0.000 C 
BRANCH   2   3
ATOM      3  C   UNL     1       2.831   3.201  17.336  0.00  0.00    +0.000 C 
BRANCH   3   4
ATOM      4  C   UNL     1       2.979   2.225  18.489  0.00  0.00    +0.000 C 
BRANCH   4   5
ATOM      5  C   UNL     1       1.610   1.805  18.992  0.00  0.00    +0.000 C 
BRANCH   5   6
ATOM      6  C   UNL     1       0.952   2.958  19.729  0.00  0.00    +0.000 C 
BRANCH   6   7
ATOM      7  C   UNL     1       1.585   3.127  21.099  0.00  0.00    +0.000 C 
BRANCH   7   8
ATOM      8  C   UNL     1       2.211   4.505  21.218  0.00  0.00    +0.000 C 
BRANCH   8  10
ATOM      9  C   UNL     1       2.176   6.741  20.118  0.00  0.00    +0.000 C 
ATOM     10  C   UNL     1       1.340   5.546  20.532  0.00  0.00    +0.000 C 
ENDBRANCH   8  10
ENDBRANCH   7   8
ENDBRANCH   6   7
ENDBRANCH   5   6
ENDBRANCH   4   5
ENDBRANCH   3   4
ENDBRANCH   2   3
ENDBRANCH   1   2
BRANCH   1  11
ATOM     11  C   UNL     1       5.432   5.521  18.930  0.00  0.00    +0.000 C 
BRANCH  11  12
ATOM     12  C   UNL     1       6.938   5.311  18.976  0.00  0.00    +0.000 C 
BRANCH  12  13
ATOM     13  C   UNL     1       7.428   4.750  17.651  0.00  0.00    +0.000 C 
BRANCH  13  14
ATOM     14  O   UNL     1       6.831   5.505  16.595  0.00  0.00    +0.000 OA
BRANCH  14  15
ATOM     15  C   UNL     1       7.192   4.983  15.313  0.00  0.00    +0.000 C 
BRANCH  15  16
ATOM     16  C   UNL     1       6.143   3.982  14.838  0.00  0.00    +0.000 C 
ATOM     17  O   UNL     1       5.462   4.135  13.818  0.00  0.00    +0.000 OA
BRANCH  16  18
ATOM     18  O   UNL     1       6.000   2.889  15.622  0.00  0.00    +0.000 OA
ATOM     19  H   UNL     1       6.842   2.605  16.039  0.00  0.00    +0.000 HD
ENDBRANCH  16  18
ENDBRANCH  15  16
ENDBRANCH  14  15
ENDBRANCH  13  14
ENDBRANCH  12  13
ENDBRANCH  11  12
ENDBRANCH   1  11
TORSDOF 15
ENDMDL
MODEL 5
REMARK VINA RESULT:      -5.0      4.147      7.132
REMARK  Name = 
REMARK  16 active torsions:
REMARK  status: ('A' for Active; 'I' for Inactive)
REMARK    1  A    between atoms: C_1  and  C_2
REMARK    2  A    between atoms: C_2  and  C_3
REMARK    3  A    between atoms: C_3  and  C_4
REMARK    4  A    between atoms: C_4  and  C_5
REMARK    5  A    between atoms: C_5  and  C_6
REMARK    6  A    between atoms: C_6  and  C_7
REMARK    7  A    between atoms: C_7  and  C_8
REMARK    8  A    between atoms: C_8  and  C_9
REMARK    9  A    between atoms: C_9  and  C_10
REMARK   10  A    between atoms: C_10  and  C_11
REMARK   11  A    between atoms: C_11  and  C_12
REMARK   12  A    between atoms: C_12  and  C_13
REMARK   13  A    between atoms: C_13  and  O_14
REMARK   14  A    between atoms: O_14  and  C_15
REMARK   15  A    between atoms: C_15  and  C_16
REMARK   16  A    between atoms: C_16  and  O_18
REMARK                            x       y       z     vdW  Elec       q    Type
REMARK                         _______ _______ _______ _____ _____    ______ ____
ROOT
ATOM      1  C   UNL     1       3.919   3.968  16.884  0.00  0.00    +0.000 C 
ENDROOT
BRANCH   1   2
ATOM      2  C   UNL     1       5.294   4.202  17.488  0.00  0.00    +0.000 C 
BRANCH   2   3
ATOM      3  C   UNL     1       6.349   4.195  16.397  0.00  0.00    +0.000 C 
BRANCH   3   4
ATOM      4  C   UNL     1       5.781   3.583  15.129  0.00  0.00    +0.000 C 
BRANCH   4   5
ATOM      5  C   UNL     1       5.984   4.531  13.961  0.00  0.00    +0.000 C 
BRANCH   5   6
ATOM      6  C   UNL     1       6.579   3.782  12.782  0.00  0.00    +0.000 C 
BRANCH   6   7
ATOM      7  C   UNL     1       5.510   2.940  12.108  0.00  0.00    +0.000 C 
BRANCH   7   8
ATOM      8  C   UNL     1       4.380   3.828  11.616  0.00  0.00    +0.000 C 
BRANCH   8  10
ATOM      9  C   UNL     1       2.909   4.067   9.618  0.00  0.00    +0.000 C 
ATOM     10  C   UNL     1       3.528   3.087  10.596  0.00  0.00    +0.000 C 
ENDBRANCH   8  10
ENDBRANCH   7   8
ENDBRANCH   6   7
ENDBRANCH   5   6
ENDBRANCH   4   5
ENDBRANCH   3   4
ENDBRANCH   2   3
ENDBRANCH   1   2
BRANCH   1  11
ATOM     11  C   UNL     1       2.925   4.964  17.456  0.00  0.00    +0.000 C 
BRANCH  11  12
ATOM     12  C   UNL     1       1.896   4.259  18.325  0.00  0.00    +0.000 C 
BRANCH  12  13
ATOM     13  C   UNL     1       1.950   2.759  18.087  0.00  0.00    +0.000 C 
BRANCH  13  14
ATOM     14  O   UNL     1       1.896   2.100  19.354  0.00  0.00    +0.000 OA
BRANCH  14  15
ATOM     15  C   UNL     1       2.900   2.599  20.244  0.00  0.00    +0.000 C 
BRANCH  15  16
ATOM     16  C   UNL     1       2.252   3.151  21.511  0.00  0.00    +0.000 C 
ATOM     17  O   UNL     1       1.580   2.466  22.290  0.00  0.00    +0.000 OA
BRANCH  16  18
ATOM     18  O   UNL     1       2.465   4.467  21.734  0.00  0.00    +0.000 OA
ATOM     19  H   UNL     1       1.663   4.935  22.055  0.00  0.00    +0.000 HD
ENDBRANCH  16  18
ENDBRANCH  15  16
ENDBRANCH  14  15
ENDBRANCH  13  14
ENDBRANCH  12  13
ENDBRANCH  11  12
ENDBRANCH   1  11
TORSDOF 15
ENDMDL
MODEL 6
REMARK VINA RESULT:      -5.0      1.278      3.127
REMARK  Name = 
REMARK  16 active torsions:
REMARK  status: ('A' for Active; 'I' for Inactive)
REMARK    1  A    between atoms: C_1  and  C_2
REMARK    2  A    between atoms: C_2  and  C_3
REMARK    3  A    between atoms: C_3  and  C_4
REMARK    4  A    between atoms: C_4  and  C_5
REMARK    5  A    between atoms: C_5  and  C_6
REMARK    6  A    between atoms: C_6  and  C_7
REMARK    7  A    between atoms: C_7  and  C_8
REMARK    8  A    between atoms: C_8  and  C_9
REMARK    9  A    between atoms: C_9  and  C_10
REMARK   10  A    between atoms: C_10  and  C_11
REMARK   11  A    between atoms: C_11  and  C_12
REMARK   12  A    between atoms: C_12  and  C_13
REMARK   13  A    between atoms: C_13  and  O_14
REMARK   14  A    between atoms: O_14  and  C_15
REMARK   15  A    between atoms: C_15  and  C_16
REMARK   16  A    between atoms: C_16  and  O_18
REMARK                            x       y       z     vdW  Elec       q    Type
REMARK                         _______ _______ _______ _____ _____    ______ ____
ROOT
ATOM      1  C   UNL     1       4.624   4.373  18.262  0.00  0.00    +0.000 C 
ENDROOT
BRANCH   1   2
ATOM      2  C   UNL     1       4.037   2.981  18.097  0.00  0.00    +0.000 C 
BRANCH   2   3
ATOM      3  C   UNL     1       2.539   3.073  17.865  0.00  0.00    +0.000 C 
BRANCH   3   4
ATOM      4  C   UNL     1       1.806   2.172  18.842  0.00  0.00    +0.000 C 
BRANCH   4   5
ATOM      5  C   UNL     1       0.804   2.984  19.643  0.00  0.00    +0.000 C 
BRANCH   5   6
ATOM      6  C   UNL     1       1.289   3.141  21.073  0.00  0.00    +0.000 C 
BRANCH   6   7
ATOM      7  C   UNL     1       2.253   4.310  21.170  0.00  0.00    +0.000 C 
BRANCH   7   8
ATOM      8  C   UNL     1       1.608   5.567  20.613  0.00  0.00    +0.000 C 
BRANCH   8  10
ATOM      9  C   UNL     1       2.083   7.168  18.763  0.00  0.00    +0.000 C 
ATOM     10  C   UNL     1       2.657   6.468  19.978  0.00  0.00    +0.000 C 
ENDBRANCH   8  10
ENDBRANCH   7   8
ENDBRANCH   6   7
ENDBRANCH   5   6
ENDBRANCH   4   5
ENDBRANCH   3   4
ENDBRANCH   2   3
ENDBRANCH   1   2
BRANCH   1  11
ATOM     11  C   UNL     1       4.402   5.182  16.996  0.00  0.00    +0.000 C 
BRANCH  11  12
ATOM     12  C   UNL     1       5.376   4.757  15.907  0.00  0.00    +0.000 C 
BRANCH  12  13
ATOM     13  C   UNL     1       6.807   4.937  16.388  0.00  0.00    +0.000 C 
BRANCH  13  14
ATOM     14  O   UNL     1       7.624   5.251  15.258  0.00  0.00    +0.000 OA
BRANCH  14  15
ATOM     15  C   UNL     1       7.039   4.775  14.043  0.00  0.00    +0.000 C 
BRANCH  15  16
ATOM     16  C   UNL     1       7.863   5.239  12.845  0.00  0.00    +0.000 C 
ATOM     17  O   UNL     1       7.593   4.949  11.674  0.00  0.00    +0.000 OA
BRANCH  16  18
ATOM     18  O   UNL     1       8.933   6.006  13.151  0.00  0.00    +0.000 OA
ATOM     19  H   UNL     1       8.683   6.890  13.499  0.00  0.00    +0.000 HD
ENDBRANCH  16  18
ENDBRANCH  15  16
ENDBRANCH  14  15
ENDBRANCH  13  14
ENDBRANCH  12  13
ENDBRANCH  11  12
ENDBRANCH   1  11
TORSDOF 15
ENDMDL
MODEL 7
REMARK VINA RESULT:      -5.0      3.624      6.512
REMARK  Name = 
REMARK  16 active torsions:
REMARK  status: ('A' for Active; 'I' for Inactive)
REMARK    1  A    between atoms: C_1  and  C_2
REMARK    2  A    between atoms: C_2  and  C_3
REMARK    3  A    between atoms: C_3  and  C_4
REMARK    4  A    between atoms: C_4  and  C_5
REMARK    5  A    between atoms: C_5  and  C_6
REMARK    6  A    between atoms: C_6  and  C_7
REMARK    7  A    between atoms: C_7  and  C_8
REMARK    8  A    between atoms: C_8  and  C_9
REMARK    9  A    between atoms: C_9  and  C_10
REMARK   10  A    between atoms: C_10  and  C_11
REMARK   11  A    between atoms: C_11  and  C_12
REMARK   12  A    between atoms: C_12  and  C_13
REMARK   13  A    between atoms: C_13  and  O_14
REMARK   14  A    between atoms: O_14  and  C_15
REMARK   15  A    between atoms: C_15  and  C_16
REMARK   16  A    between atoms: C_16  and  O_18
REMARK                            x       y       z     vdW  Elec       q    Type
REMARK                         _______ _______ _______ _____ _____    ______ ____
ROOT
ATOM      1  C   UNL     1       5.148   6.299  16.727  0.00  0.00    +0.000 C 
ENDROOT
BRANCH   1   2
ATOM      2  C   UNL     1       6.405   5.938  17.502  0.00  0.00    +0.000 C 
BRANCH   2   3
ATOM      3  C   UNL     1       7.199   4.889  16.745  0.00  0.00    +0.000 C 
BRANCH   3   4
ATOM      4  C   UNL     1       6.289   4.133  15.795  0.00  0.00    +0.000 C 
BRANCH   4   5
ATOM      5  C   UNL     1       6.741   4.350  14.362  0.00  0.00    +0.000 C 
BRANCH   5   6
ATOM      6  C   UNL     1       5.661   3.887  13.402  0.00  0.00    +0.000 C 
BRANCH   6   7
ATOM      7  C   UNL     1       6.265   2.995  12.331  0.00  0.00    +0.000 C 
BRANCH   7   8
ATOM      8  C   UNL     1       5.201   2.596  11.323  0.00  0.00    +0.000 C 
BRANCH   8  10
ATOM      9  C   UNL     1       3.242   3.608  10.159  0.00  0.00    +0.000 C 
ATOM     10  C   UNL     1       3.962   3.464  11.486  0.00  0.00    +0.000 C 
ENDBRANCH   8  10
ENDBRANCH   7   8
ENDBRANCH   6   7
ENDBRANCH   5   6
ENDBRANCH   4   5
ENDBRANCH   3   4
ENDBRANCH   2   3
ENDBRANCH   1   2
BRANCH   1  11
ATOM     11  C   UNL     1       3.955   6.343  17.667  0.00  0.00    +0.000 C 
BRANCH  11  12
ATOM     12  C   UNL     1       4.210   5.491  18.901  0.00  0.00    +0.000 C 
BRANCH  12  13
ATOM     13  C   UNL     1       3.721   4.071  18.667  0.00  0.00    +0.000 C 
BRANCH  13  14
ATOM     14  O   UNL     1       2.519   4.132  17.897  0.00  0.00    +0.000 OA
BRANCH  14  15
ATOM     15  C   UNL     1       1.366   3.894  18.711  0.00  0.00    +0.000 C 
BRANCH  15  16
ATOM     16  C   UNL     1       1.491   2.549  19.420  0.00  0.00    +0.000 C 
ATOM     17  O   UNL     1       1.581   2.426  20.647  0.00  0.00    +0.000 OA
BRANCH  16  18
ATOM     18  O   UNL     1       1.497   1.471  18.603  0.00  0.00    +0.000 OA
ATOM     19  H   UNL     1       1.230   0.643  19.060  0.00  0.00    +0.000 HD
ENDBRANCH  16  18
ENDBRANCH  15  16
ENDBRANCH  14  15
ENDBRANCH  13  14
ENDBRANCH  12  13
ENDBRANCH  11  12
ENDBRANCH   1  11
TORSDOF 15
ENDMDL
MODEL 8
REMARK VINA RESULT:      -5.0      1.888      3.494
REMARK  Name = 
REMARK  16 active torsions:
REMARK  status: ('A' for Active; 'I' for Inactive)
REMARK    1  A    between atoms: C_1  and  C_2
REMARK    2  A    between atoms: C_2  and  C_3
REMARK    3  A    between atoms: C_3  and  C_4
REMARK    4  A    between atoms: C_4  and  C_5
REMARK    5  A    between atoms: C_5  and  C_6
REMARK    6  A    between atoms: C_6  and  C_7
REMARK    7  A    between atoms: C_7  and  C_8
REMARK    8  A    between atoms: C_8  and  C_9
REMARK    9  A    between atoms: C_9  and  C_10
REMARK   10  A    between atoms: C_10  and  C_11
REMARK   11  A    between atoms: C_11  and  C_12
REMARK   12  A    between atoms: C_12  and  C_13
REMARK   13  A    between atoms: C_13  and  O_14
REMARK   14  A    between atoms: O_14  and  C_15
REMARK   15  A    between atoms: C_15  and  C_16
REMARK   16  A    between atoms: C_16  and  O_18
REMARK                            x       y       z     vdW  Elec       q    Type
REMARK                         _______ _______ _______ _____ _____    ______ ____
ROOT
ATOM      1  C   UNL     1       5.975   4.418  18.038  0.00  0.00    +0.000 C 
ENDROOT
BRANCH   1   2
ATOM      2  C   UNL     1       4.988   5.526  18.366  0.00  0.00    +0.000 C 
BRANCH   2   3
ATOM      3  C   UNL     1       3.888   5.569  17.320  0.00  0.00    +0.000 C 
BRANCH   3   4
ATOM      4  C   UNL     1       2.626   4.927  17.867  0.00  0.00    +0.000 C 
BRANCH   4   5
ATOM      5  C   UNL     1       2.401   3.580  17.203  0.00  0.00    +0.000 C 
BRANCH   5   6
ATOM      6  C   UNL     1       2.028   2.543  18.246  0.00  0.00    +0.000 C 
BRANCH   6   7
ATOM      7  C   UNL     1       3.282   1.900  18.812  0.00  0.00    +0.000 C 
BRANCH   7   8
ATOM      8  C   UNL     1       3.592   2.478  20.182  0.00  0.00    +0.000 C 
BRANCH   8  10
ATOM      9  C   UNL     1       2.281   4.228  21.380  0.00  0.00    +0.000 C 
ATOM     10  C   UNL     1       2.305   2.778  20.936  0.00  0.00    +0.000 C 
ENDBRANCH   8  10
ENDBRANCH   7   8
ENDBRANCH   6   7
ENDBRANCH   5   6
ENDBRANCH   4   5
ENDBRANCH   3   4
ENDBRANCH   2   3
ENDBRANCH   1   2
BRANCH   1  11
ATOM     11  C   UNL     1       5.916   4.094  16.554  0.00  0.00    +0.000 C 
BRANCH  11  12
ATOM     12  C   UNL     1       7.116   4.680  15.827  0.00  0.00    +0.000 C 
BRANCH  12  13
ATOM     13  C   UNL     1       6.776   4.920  14.365  0.00  0.00    +0.000 C 
BRANCH  13  14
ATOM     14  O   UNL     1       6.190   3.728  13.839  0.00  0.00    +0.000 OA
BRANCH  14  15
ATOM     15  C   UNL     1       6.551   3.531  12.468  0.00  0.00    +0.000 C 
BRANCH  15  16
ATOM     16  C   UNL     1       5.473   2.723  11.751  0.00  0.00    +0.000 C 
ATOM     17  O   UNL     1       5.653   1.583  11.308  0.00  0.00    +0.000 OA
BRANCH  16  18
ATOM     18  O   UNL     1       4.280   3.346  11.628  0.00  0.00    +0.000 OA
ATOM     19  H   UNL     1       4.301   4.279  11.936  0.00  0.00    +0.000 HD
ENDBRANCH  16  18
ENDBRANCH  15  16
ENDBRANCH  14  15
ENDBRANCH  13  14
ENDBRANCH  12  13
ENDBRANCH  11  12
ENDBRANCH   1  11
TORSDOF 15
ENDMDL
MODEL 9
REMARK VINA RESULT:      -5.0      1.168      3.346
REMARK  Name = 
REMARK  16 active torsions:
REMARK  status: ('A' for Active; 'I' for Inactive)
REMARK    1  A    between atoms: C_1  and  C_2
REMARK    2  A    between atoms: C_2  and  C_3
REMARK    3  A    between atoms: C_3  and  C_4
REMARK    4  A    between atoms: C_4  and  C_5
REMARK    5  A    between atoms: C_5  and  C_6
REMARK    6  A    between atoms: C_6  and  C_7
REMARK    7  A    between atoms: C_7  and  C_8
REMARK    8  A    between atoms: C_8  and  C_9
REMARK    9  A    between atoms: C_9  and  C_10
REMARK   10  A    between atoms: C_10  and  C_11
REMARK   11  A    between atoms: C_11  and  C_12
REMARK   12  A    between atoms: C_12  and  C_13
REMARK   13  A    between atoms: C_13  and  O_14
REMARK   14  A    between atoms: O_14  and  C_15
REMARK   15  A    between atoms: C_15  and  C_16
REMARK   16  A    between atoms: C_16  and  O_18
REMARK                            x       y       z     vdW  Elec       q    Type
REMARK                         _______ _______ _______ _____ _____    ______ ____
ROOT
ATOM      1  C   UNL     1       2.211   2.463  18.110  0.00  0.00    +0.000 C 
ENDROOT
BRANCH   1   2
ATOM      2  C   UNL     1       3.239   2.183  19.194  0.00  0.00    +0.000 C 
BRANCH   2   3
ATOM      3  C   UNL     1       2.731   2.685  20.534  0.00  0.00    +0.000 C 
BRANCH   3   4
ATOM      4  C   UNL     1       1.223   2.846  20.491  0.00  0.00    +0.000 C 
BRANCH   4   5
ATOM      5  C   UNL     1       0.863   4.314  20.350  0.00  0.00    +0.000 C 
BRANCH   5   6
ATOM      6  C   UNL     1       1.913   5.173  21.030  0.00  0.00    +0.000 C 
BRANCH   6   7
ATOM      7  C   UNL     1       1.942   6.555  20.400  0.00  0.00    +0.000 C 
BRANCH   7   8
ATOM      8  C   UNL     1       2.903   6.572  19.224  0.00  0.00    +0.000 C 
BRANCH   8  10
ATOM      9  C   UNL     1       1.728   8.704  18.686  0.00  0.00    +0.000 C 
ATOM     10  C   UNL     1       2.361   7.454  18.108  0.00  0.00    +0.000 C 
ENDBRANCH   8  10
ENDBRANCH   7   8
ENDBRANCH   6   7
ENDBRANCH   5   6
ENDBRANCH   4   5
ENDBRANCH   3   4
ENDBRANCH   2   3
ENDBRANCH   1   2
BRANCH   1  11
ATOM     11  C   UNL     1       2.786   3.430  17.088  0.00  0.00    +0.000 C 
BRANCH  11  12
ATOM     12  C   UNL     1       4.218   3.800  17.444  0.00  0.00    +0.000 C 
BRANCH  12  13
ATOM     13  C   UNL     1       4.666   5.000  16.626  0.00  0.00    +0.000 C 
BRANCH  13  14
ATOM     14  O   UNL     1       6.021   5.297  16.969  0.00  0.00    +0.000 OA
BRANCH  14  15
ATOM     15  C   UNL     1       6.923   4.342  16.403  0.00  0.00    +0.000 C 
BRANCH  15  16
ATOM     16  C   UNL     1       6.972   4.499  14.886  0.00  0.00    +0.000 C 
ATOM     17  O   UNL     1       7.501   5.459  14.314  0.00  0.00    +0.000 OA
BRANCH  16  18
ATOM     18  O   UNL     1       6.388   3.499  14.189  0.00  0.00    +0.000 OA
ATOM     19  H   UNL     1       5.535   3.208  14.580  0.00  0.00    +0.000 HD
ENDBRANCH  16  18
ENDBRANCH  15  16
ENDBRANCH  14  15
ENDBRANCH  13  14
ENDBRANCH  12  13
ENDBRANCH  11  12
ENDBRANCH   1  11
TORSDOF 15
ENDMDL
