MODEL 1
REMARK VINA RESULT:      -7.3      0.000      0.000
REMARK  Name = 
REMARK  1 active torsions:
REMARK  status: ('A' for Active; 'I' for Inactive)
REMARK    1  A    between atoms: C_1  and  N_2
REMARK                            x       y       z     vdW  Elec       q    Type
REMARK                         _______ _______ _______ _____ _____    ______ ____
ROOT
ATOM      1  C   UNL     1      -1.107  12.205  21.614  0.00  0.00    +0.000 C 
ATOM      2  N   UNL     1      -0.540  10.903  21.822  0.00  0.00    +0.000 N 
ATOM      3  C   UNL     1      -0.667  10.112  22.933  0.00  0.00    +0.000 A 
ATOM      4  N   UNL     1      -0.047   8.962  22.795  0.00  0.00    +0.000 NA
ATOM      5  C   UNL     1       0.531   9.015  21.540  0.00  0.00    +0.000 A 
ATOM      6  C   UNL     1       1.324   8.103  20.808  0.00  0.00    +0.000 A 
ATOM      7  N   UNL     1       1.698   6.858  21.327  0.00  0.00    +0.000 N 
ATOM      8  C   UNL     1       1.932   5.771  20.562  0.00  0.00    +0.000 A 
ATOM      9  N   UNL     1       1.870   5.717  19.246  0.00  0.00    +0.000 NA
ATOM     10  C   UNL     1       2.255   4.480  18.771  0.00  0.00    +0.000 A 
ATOM     11  C   UNL     1       2.414   4.107  17.416  0.00  0.00    +0.000 A 
ATOM     12  C   UNL     1       2.836   2.808  17.103  0.00  0.00    +0.000 A 
ATOM     13  C   UNL     1       3.082   1.880  18.108  0.00  0.00    +0.000 A 
ATOM     14  C   UNL     1       2.925   2.230  19.451  0.00  0.00    +0.000 A 
ATOM     15  C   UNL     1       2.523   3.537  19.757  0.00  0.00    +0.000 A 
ATOM     16  S   UNL     1       2.294   4.259  21.303  0.00  0.00    +0.000 S 
ATOM     17  N   UNL     1       1.730   8.496  19.569  0.00  0.00    +0.000 NA
ATOM     18  C   UNL     1       1.353   9.692  19.100  0.00  0.00    +0.000 A 
ATOM     19 CL   UNL     1       1.910  10.084  17.533  0.00  0.00    +0.000 Cl
ATOM     20  N   UNL     1       0.605  10.635  19.702  0.00  0.00    +0.000 NA
ATOM     21  C   UNL     1       0.228  10.218  20.922  0.00  0.00    +0.000 A 
ATOM     22  H   UNL     1       1.520   6.748  22.320  0.00  0.00    +0.000 HD
ENDROOT
TORSDOF 0
ENDMDL
MODEL 2
REMARK VINA RESULT:      -6.5      2.204      3.239
REMARK  Name = 
REMARK  1 active torsions:
REMARK  status: ('A' for Active; 'I' for Inactive)
REMARK    1  A    between atoms: C_1  and  N_2
REMARK                            x       y       z     vdW  Elec       q    Type
REMARK                         _______ _______ _______ _____ _____    ______ ____
ROOT
ATOM      1  C   UNL     1       1.060  14.005  20.401  0.00  0.00    +0.000 C 
ATOM      2  N   UNL     1       1.387  12.775  19.736  0.00  0.00    +0.000 N 
ATOM      3  C   UNL     1       2.104  12.626  18.579  0.00  0.00    +0.000 A 
ATOM      4  N   UNL     1       2.252  11.362  18.250  0.00  0.00    +0.000 NA
ATOM      5  C   UNL     1       1.580  10.655  19.229  0.00  0.00    +0.000 A 
ATOM      6  C   UNL     1       1.368   9.275  19.444  0.00  0.00    +0.000 A 
ATOM      7  N   UNL     1       1.862   8.300  18.569  0.00  0.00    +0.000 N 
ATOM      8  C   UNL     1       2.195   7.051  18.955  0.00  0.00    +0.000 A 
ATOM      9  N   UNL     1       2.091   6.559  20.174  0.00  0.00    +0.000 NA
ATOM     10  C   UNL     1       2.431   5.222  20.211  0.00  0.00    +0.000 A 
ATOM     11  C   UNL     1       2.328   4.355  21.323  0.00  0.00    +0.000 A 
ATOM     12  C   UNL     1       2.697   3.010  21.186  0.00  0.00    +0.000 A 
ATOM     13  C   UNL     1       3.178   2.525  19.975  0.00  0.00    +0.000 A 
ATOM     14  C   UNL     1       3.292   3.370  18.868  0.00  0.00    +0.000 A 
ATOM     15  C   UNL     1       2.901   4.709  19.008  0.00  0.00    +0.000 A 
ATOM     16  S   UNL     1       2.885   5.955  17.820  0.00  0.00    +0.000 S 
ATOM     17  N   UNL     1       0.639   8.927  20.540  0.00  0.00    +0.000 NA
ATOM     18  C   UNL     1       0.184   9.882  21.360  0.00  0.00    +0.000 A 
ATOM     19 CL   UNL     1      -0.712   9.337  22.709  0.00  0.00    +0.000 Cl
ATOM     20  N   UNL     1       0.323  11.217  21.257  0.00  0.00    +0.000 NA
ATOM     21  C   UNL     1       1.040  11.524  20.164  0.00  0.00    +0.000 A 
ATOM     22  H   UNL     1       2.209   8.666  17.688  0.00  0.00    +0.000 HD
ENDROOT
TORSDOF 0
ENDMDL
MODEL 3
REMARK VINA RESULT:      -6.5      2.544      3.675
REMARK  Name = 
REMARK  1 active torsions:
REMARK  status: ('A' for Active; 'I' for Inactive)
REMARK    1  A    between atoms: C_1  and  N_2
REMARK                            x       y       z     vdW  Elec       q    Type
REMARK                         _______ _______ _______ _____ _____    ______ ____
ROOT
ATOM      1  C   UNL     1       0.785  15.034  21.479  0.00  0.00    +0.000 C 
ATOM      2  N   UNL     1       1.099  13.923  20.626  0.00  0.00    +0.000 N 
ATOM      3  C   UNL     1       1.786  13.958  19.441  0.00  0.00    +0.000 A 
ATOM      4  N   UNL     1       1.929  12.760  18.918  0.00  0.00    +0.000 NA
ATOM      5  C   UNL     1       1.283  11.907  19.794  0.00  0.00    +0.000 A 
ATOM      6  C   UNL     1       1.080  10.509  19.799  0.00  0.00    +0.000 A 
ATOM      7  N   UNL     1       1.553   9.684  18.772  0.00  0.00    +0.000 N 
ATOM      8  C   UNL     1       1.899   8.392  18.953  0.00  0.00    +0.000 A 
ATOM      9  N   UNL     1       1.827   7.718  20.084  0.00  0.00    +0.000 NA
ATOM     10  C   UNL     1       2.170   6.393  19.906  0.00  0.00    +0.000 A 
ATOM     11  C   UNL     1       2.098   5.364  20.873  0.00  0.00    +0.000 A 
ATOM     12  C   UNL     1       2.466   4.059  20.522  0.00  0.00    +0.000 A 
ATOM     13  C   UNL     1       2.918   3.769  19.239  0.00  0.00    +0.000 A 
ATOM     14  C   UNL     1       3.001   4.775  18.273  0.00  0.00    +0.000 A 
ATOM     15  C   UNL     1       2.611   6.074  18.627  0.00  0.00    +0.000 A 
ATOM     16  S   UNL     1       2.562   7.488  17.646  0.00  0.00    +0.000 S 
ATOM     17  N   UNL     1       0.380   9.992  20.846  0.00  0.00    +0.000 NA
ATOM     18  C   UNL     1      -0.057  10.807  21.814  0.00  0.00    +0.000 A 
ATOM     19 CL   UNL     1      -0.917  10.056  23.085  0.00  0.00    +0.000 Cl
ATOM     20  N   UNL     1       0.077  12.142  21.914  0.00  0.00    +0.000 NA
ATOM     21  C   UNL     1       0.765  12.619  20.864  0.00  0.00    +0.000 A 
ATOM     22  H   UNL     1       1.877  10.183  17.949  0.00  0.00    +0.000 HD
ENDROOT
TORSDOF 0
ENDMDL
MODEL 4
REMARK VINA RESULT:      -6.4      5.484      7.894
REMARK  Name = 
REMARK  1 active torsions:
REMARK  status: ('A' for Active; 'I' for Inactive)
REMARK    1  A    between atoms: C_1  and  N_2
REMARK                            x       y       z     vdW  Elec       q    Type
REMARK                         _______ _______ _______ _____ _____    ______ ____
ROOT
ATOM      1  C   UNL     1       8.701   5.260  12.971  0.00  0.00    +0.000 C 
ATOM      2  N   UNL     1       7.422   4.880  13.499  0.00  0.00    +0.000 N 
ATOM      3  C   UNL     1       6.449   4.151  12.867  0.00  0.00    +0.000 A 
ATOM      4  N   UNL     1       5.403   3.952  13.638  0.00  0.00    +0.000 NA
ATOM      5  C   UNL     1       5.700   4.602  14.821  0.00  0.00    +0.000 A 
ATOM      6  C   UNL     1       4.992   4.762  16.033  0.00  0.00    +0.000 A 
ATOM      7  N   UNL     1       3.714   4.225  16.226  0.00  0.00    +0.000 N 
ATOM      8  C   UNL     1       3.237   3.846  17.431  0.00  0.00    +0.000 A 
ATOM      9  N   UNL     1       3.872   3.939  18.583  0.00  0.00    +0.000 NA
ATOM     10  C   UNL     1       3.070   3.548  19.635  0.00  0.00    +0.000 A 
ATOM     11  C   UNL     1       3.385   3.624  21.011  0.00  0.00    +0.000 A 
ATOM     12  C   UNL     1       2.443   3.202  21.960  0.00  0.00    +0.000 A 
ATOM     13  C   UNL     1       1.212   2.695  21.561  0.00  0.00    +0.000 A 
ATOM     14  C   UNL     1       0.886   2.607  20.205  0.00  0.00    +0.000 A 
ATOM     15  C   UNL     1       1.826   3.051  19.263  0.00  0.00    +0.000 A 
ATOM     16  S   UNL     1       1.687   3.107  17.548  0.00  0.00    +0.000 S 
ATOM     17  N   UNL     1       5.604   5.483  17.013  0.00  0.00    +0.000 NA
ATOM     18  C   UNL     1       6.827   5.981  16.799  0.00  0.00    +0.000 A 
ATOM     19 CL   UNL     1       7.507   6.863  18.096  0.00  0.00    +0.000 Cl
ATOM     20  N   UNL     1       7.591   5.893  15.695  0.00  0.00    +0.000 NA
ATOM     21  C   UNL     1       6.956   5.182  14.749  0.00  0.00    +0.000 A 
ATOM     22  H   UNL     1       3.269   3.887  15.378  0.00  0.00    +0.000 HD
ENDROOT
TORSDOF 0
ENDMDL
MODEL 5
REMARK VINA RESULT:      -6.1      2.692      3.954
REMARK  Name = 
REMARK  1 active torsions:
REMARK  status: ('A' for Active; 'I' for Inactive)
REMARK    1  A    between atoms: C_1  and  N_2
REMARK                            x       y       z     vdW  Elec       q    Type
REMARK                         _______ _______ _______ _____ _____    ______ ____
ROOT
ATOM      1  C   UNL     1       1.324  15.351  19.835  0.00  0.00    +0.000 C 
ATOM      2  N   UNL     1       1.686  14.108  19.215  0.00  0.00    +0.000 N 
ATOM      3  C   UNL     1       2.569  13.925  18.183  0.00  0.00    +0.000 A 
ATOM      4  N   UNL     1       2.699  12.656  17.865  0.00  0.00    +0.000 NA
ATOM      5  C   UNL     1       1.843  11.983  18.716  0.00  0.00    +0.000 A 
ATOM      6  C   UNL     1       1.526  10.616  18.876  0.00  0.00    +0.000 A 
ATOM      7  N   UNL     1       2.099   9.619  18.078  0.00  0.00    +0.000 N 
ATOM      8  C   UNL     1       2.299   8.351  18.495  0.00  0.00    +0.000 A 
ATOM      9  N   UNL     1       1.976   7.861  19.675  0.00  0.00    +0.000 NA
ATOM     10  C   UNL     1       2.233   6.507  19.749  0.00  0.00    +0.000 A 
ATOM     11  C   UNL     1       1.909   5.642  20.818  0.00  0.00    +0.000 A 
ATOM     12  C   UNL     1       2.222   4.279  20.724  0.00  0.00    +0.000 A 
ATOM     13  C   UNL     1       2.863   3.774  19.598  0.00  0.00    +0.000 A 
ATOM     14  C   UNL     1       3.196   4.616  18.534  0.00  0.00    +0.000 A 
ATOM     15  C   UNL     1       2.861   5.974  18.628  0.00  0.00    +0.000 A 
ATOM     16  S   UNL     1       3.101   7.225  17.469  0.00  0.00    +0.000 S 
ATOM     17  N   UNL     1       0.614  10.303  19.839  0.00  0.00    +0.000 NA
ATOM     18  C   UNL     1       0.086  11.279  20.588  0.00  0.00    +0.000 A 
ATOM     19 CL   UNL     1      -1.041  10.778  21.771  0.00  0.00    +0.000 Cl
ATOM     20  N   UNL     1       0.312  12.604  20.527  0.00  0.00    +0.000 NA
ATOM     21  C   UNL     1       1.209  12.876  19.565  0.00  0.00    +0.000 A 
ATOM     22  H   UNL     1       2.601   9.970  17.267  0.00  0.00    +0.000 HD
ENDROOT
TORSDOF 0
ENDMDL
MODEL 6
REMARK VINA RESULT:      -6.0      9.154     10.301
REMARK  Name = 
REMARK  1 active torsions:
REMARK  status: ('A' for Active; 'I' for Inactive)
REMARK    1  A    between atoms: C_1  and  N_2
REMARK                            x       y       z     vdW  Elec       q    Type
REMARK                         _______ _______ _______ _____ _____    ______ ____
ROOT
ATOM      1  C   UNL     1       5.288  13.378  27.082  0.00  0.00    +0.000 C 
ATOM      2  N   UNL     1       5.954  12.709  26.001  0.00  0.00    +0.000 N 
ATOM      3  C   UNL     1       5.727  11.435  25.552  0.00  0.00    +0.000 A 
ATOM      4  N   UNL     1       6.488  11.131  24.524  0.00  0.00    +0.000 NA
ATOM      5  C   UNL     1       7.263  12.255  24.308  0.00  0.00    +0.000 A 
ATOM      6  C   UNL     1       8.268  12.561  23.362  0.00  0.00    +0.000 A 
ATOM      7  N   UNL     1       8.685  11.642  22.393  0.00  0.00    +0.000 N 
ATOM      8  C   UNL     1       9.169  11.998  21.185  0.00  0.00    +0.000 A 
ATOM      9  N   UNL     1       9.340  13.231  20.748  0.00  0.00    +0.000 NA
ATOM     10  C   UNL     1       9.938  13.249  19.505  0.00  0.00    +0.000 A 
ATOM     11  C   UNL     1      10.368  14.390  18.790  0.00  0.00    +0.000 A 
ATOM     12  C   UNL     1      10.981  14.232  17.540  0.00  0.00    +0.000 A 
ATOM     13  C   UNL     1      11.154  12.967  16.989  0.00  0.00    +0.000 A 
ATOM     14  C   UNL     1      10.730  11.829  17.679  0.00  0.00    +0.000 A 
ATOM     15  C   UNL     1      10.136  11.994  18.938  0.00  0.00    +0.000 A 
ATOM     16  S   UNL     1       9.565  10.788  20.026  0.00  0.00    +0.000 S 
ATOM     17  N   UNL     1       8.834  13.797  23.445  0.00  0.00    +0.000 NA
ATOM     18  C   UNL     1       8.411  14.655  24.380  0.00  0.00    +0.000 A 
ATOM     19 CL   UNL     1       9.182  16.181  24.392  0.00  0.00    +0.000 Cl
ATOM     20  N   UNL     1       7.470  14.475  25.325  0.00  0.00    +0.000 NA
ATOM     21  C   UNL     1       6.938  13.246  25.219  0.00  0.00    +0.000 A 
ATOM     22  H   UNL     1       8.353  10.694  22.545  0.00  0.00    +0.000 HD
ENDROOT
TORSDOF 0
ENDMDL
MODEL 7
REMARK VINA RESULT:      -6.0      2.200      7.031
REMARK  Name = 
REMARK  1 active torsions:
REMARK  status: ('A' for Active; 'I' for Inactive)
REMARK    1  A    between atoms: C_1  and  N_2
REMARK                            x       y       z     vdW  Elec       q    Type
REMARK                         _______ _______ _______ _____ _____    ______ ____
ROOT
ATOM      1  C   UNL     1       4.487   2.348  19.695  0.00  0.00    +0.000 C 
ATOM      2  N   UNL     1       3.504   3.247  20.228  0.00  0.00    +0.000 N 
ATOM      3  C   UNL     1       2.685   3.034  21.305  0.00  0.00    +0.000 A 
ATOM      4  N   UNL     1       1.914   4.070  21.552  0.00  0.00    +0.000 NA
ATOM      5  C   UNL     1       2.232   4.994  20.575  0.00  0.00    +0.000 A 
ATOM      6  C   UNL     1       1.760   6.295  20.293  0.00  0.00    +0.000 A 
ATOM      7  N   UNL     1       0.759   6.907  21.057  0.00  0.00    +0.000 N 
ATOM      8  C   UNL     1       0.659   8.242  21.227  0.00  0.00    +0.000 A 
ATOM      9  N   UNL     1       1.450   9.154  20.697  0.00  0.00    +0.000 NA
ATOM     10  C   UNL     1       1.020  10.431  20.995  0.00  0.00    +0.000 A 
ATOM     11  C   UNL     1       1.561  11.641  20.503  0.00  0.00    +0.000 A 
ATOM     12  C   UNL     1       0.989  12.861  20.889  0.00  0.00    +0.000 A 
ATOM     13  C   UNL     1      -0.092  12.893  21.762  0.00  0.00    +0.000 A 
ATOM     14  C   UNL     1      -0.636  11.708  22.263  0.00  0.00    +0.000 A 
ATOM     15  C   UNL     1      -0.070  10.491  21.855  0.00  0.00    +0.000 A 
ATOM     16  S   UNL     1      -0.552   8.889  22.265  0.00  0.00    +0.000 S 
ATOM     17  N   UNL     1       2.311   6.933  19.223  0.00  0.00    +0.000 NA
ATOM     18  C   UNL     1       3.268   6.323  18.514  0.00  0.00    +0.000 A 
ATOM     19 CL   UNL     1       3.898   7.213  17.198  0.00  0.00    +0.000 Cl
ATOM     20  N   UNL     1       3.794   5.097  18.689  0.00  0.00    +0.000 NA
ATOM     21  C   UNL     1       3.224   4.495  19.746  0.00  0.00    +0.000 A 
ATOM     22  H   UNL     1       0.277   6.279  21.694  0.00  0.00    +0.000 HD
ENDROOT
TORSDOF 0
ENDMDL
MODEL 8
REMARK VINA RESULT:      -5.9      3.602      5.466
REMARK  Name = 
REMARK  1 active torsions:
REMARK  status: ('A' for Active; 'I' for Inactive)
REMARK    1  A    between atoms: C_1  and  N_2
REMARK                            x       y       z     vdW  Elec       q    Type
REMARK                         _______ _______ _______ _____ _____    ______ ____
ROOT
ATOM      1  C   UNL     1      -4.786  15.747  23.039  0.00  0.00    +0.000 C 
ATOM      2  N   UNL     1      -3.952  14.582  23.112  0.00  0.00    +0.000 N 
ATOM      3  C   UNL     1      -4.065  13.537  23.991  0.00  0.00    +0.000 A 
ATOM      4  N   UNL     1      -3.159  12.610  23.775  0.00  0.00    +0.000 NA
ATOM      5  C   UNL     1      -2.405  13.085  22.718  0.00  0.00    +0.000 A 
ATOM      6  C   UNL     1      -1.292  12.563  22.021  0.00  0.00    +0.000 A 
ATOM      7  N   UNL     1      -0.710  11.335  22.358  0.00  0.00    +0.000 N 
ATOM      8  C   UNL     1      -0.079  10.539  21.469  0.00  0.00    +0.000 A 
ATOM      9  N   UNL     1       0.103  10.795  20.189  0.00  0.00    +0.000 NA
ATOM     10  C   UNL     1       0.866   9.818  19.581  0.00  0.00    +0.000 A 
ATOM     11  C   UNL     1       1.346   9.825  18.252  0.00  0.00    +0.000 A 
ATOM     12  C   UNL     1       2.132   8.758  17.795  0.00  0.00    +0.000 A 
ATOM     13  C   UNL     1       2.428   7.687  18.630  0.00  0.00    +0.000 A 
ATOM     14  C   UNL     1       1.957   7.660  19.944  0.00  0.00    +0.000 A 
ATOM     15  C   UNL     1       1.189   8.741  20.400  0.00  0.00    +0.000 A 
ATOM     16  S   UNL     1       0.520   9.003  21.965  0.00  0.00    +0.000 S 
ATOM     17  N   UNL     1      -0.791  13.320  21.006  0.00  0.00    +0.000 NA
ATOM     18  C   UNL     1      -1.371  14.488  20.706  0.00  0.00    +0.000 A 
ATOM     19 CL   UNL     1      -0.669  15.356  19.412  0.00  0.00    +0.000 Cl
ATOM     20  N   UNL     1      -2.427  15.080  21.295  0.00  0.00    +0.000 NA
ATOM     21  C   UNL     1      -2.891  14.311  22.293  0.00  0.00    +0.000 A 
ATOM     22  H   UNL     1      -1.023  10.953  23.245  0.00  0.00    +0.000 HD
ENDROOT
TORSDOF 0
ENDMDL
MODEL 9
REMARK VINA RESULT:      -5.9      2.873      4.332
REMARK  Name = 
REMARK  1 active torsions:
REMARK  status: ('A' for Active; 'I' for Inactive)
REMARK    1  A    between atoms: C_1  and  N_2
REMARK                            x       y       z     vdW  Elec       q    Type
REMARK                         _______ _______ _______ _____ _____    ______ ____
ROOT
ATOM      1  C   UNL     1      -4.207  14.957  21.971  0.00  0.00    +0.000 C 
ATOM      2  N   UNL     1      -3.389  13.790  22.140  0.00  0.00    +0.000 N 
ATOM      3  C   UNL     1      -3.564  12.781  23.050  0.00  0.00    +0.000 A 
ATOM      4  N   UNL     1      -2.655  11.840  22.925  0.00  0.00    +0.000 NA
ATOM      5  C   UNL     1      -1.834  12.269  21.898  0.00  0.00    +0.000 A 
ATOM      6  C   UNL     1      -0.686  11.714  21.290  0.00  0.00    +0.000 A 
ATOM      7  N   UNL     1      -0.136  10.497  21.709  0.00  0.00    +0.000 N 
ATOM      8  C   UNL     1       0.541   9.663  20.891  0.00  0.00    +0.000 A 
ATOM      9  N   UNL     1       0.802   9.867  19.615  0.00  0.00    +0.000 NA
ATOM     10  C   UNL     1       1.591   8.863  19.093  0.00  0.00    +0.000 A 
ATOM     11  C   UNL     1       2.151   8.816  17.796  0.00  0.00    +0.000 A 
ATOM     12  C   UNL     1       2.953   7.727  17.428  0.00  0.00    +0.000 A 
ATOM     13  C   UNL     1       3.189   6.686  18.320  0.00  0.00    +0.000 A 
ATOM     14  C   UNL     1       2.639   6.714  19.604  0.00  0.00    +0.000 A 
ATOM     15  C   UNL     1       1.855   7.817  19.970  0.00  0.00    +0.000 A 
ATOM     16  S   UNL     1       1.095   8.143  21.480  0.00  0.00    +0.000 S 
ATOM     17  N   UNL     1      -0.118  12.428  20.279  0.00  0.00    +0.000 NA
ATOM     18  C   UNL     1      -0.669  13.587  19.900  0.00  0.00    +0.000 A 
ATOM     19 CL   UNL     1       0.117  14.399  18.618  0.00  0.00    +0.000 Cl
ATOM     20  N   UNL     1      -1.753  14.208  20.401  0.00  0.00    +0.000 NA
ATOM     21  C   UNL     1      -2.283  13.481  21.398  0.00  0.00    +0.000 A 
ATOM     22  H   UNL     1      -0.506  10.151  22.589  0.00  0.00    +0.000 HD
ENDROOT
TORSDOF 0
ENDMDL
