MODEL 1
REMARK VINA RESULT:      -7.4      0.000      0.000
REMARK  Name = 
REMARK  11 active torsions:
REMARK  status: ('A' for Active; 'I' for Inactive)
REMARK    1  A    between atoms: C_2  and  O_3
REMARK    2  A    between atoms: C_2  and  C_4
REMARK    3  A    between atoms: C_4  and  O_5
REMARK    4  A    between atoms: O_5  and  C_6
REMARK    5  A    between atoms: C_6  and  C_7
REMARK    6  A    between atoms: C_7  and  C_8
REMARK    7  A    between atoms: C_8  and  C_9
REMARK    8  A    between atoms: C_9  and  C_10
REMARK    9  A    between atoms: C_11  and  N_12
REMARK   10  A    between atoms: N_12  and  S_13
REMARK   11  A    between atoms: S_13  and  C_16
REMARK                            x       y       z     vdW  Elec       q    Type
REMARK                         _______ _______ _______ _____ _____    ______ ____
ROOT
ATOM      1  C   UNL     1       2.254   3.638  18.750  0.00  0.00    +0.000 C 
ATOM      2  C   UNL     1       3.068   4.150  19.964  0.00  0.00    +0.000 C 
ATOM      3  C   UNL     1       2.244   3.738  21.200  0.00  0.00    +0.000 C 
ATOM      4  C   UNL     1       0.988   3.052  20.693  0.00  0.00    +0.000 C 
ATOM      5  C   UNL     1       1.401   2.519  19.344  0.00  0.00    +0.000 C 
ATOM      6  F   UNL     1       0.315   2.283  18.575  0.00  0.00    +0.000 F 
ENDROOT
BRANCH   2   7
ATOM      7  N   UNL     1       3.228   5.614  19.902  0.00  0.00    +0.000 NA
ATOM      8  H   UNL     1       4.098   6.018  20.257  0.00  0.00    +0.000 HD
BRANCH   7   9
ATOM      9  S   UNL     1       2.677   6.465  18.548  0.00  0.00    +0.000 S 
ATOM     10  O   UNL     1       3.874   6.794  17.796  0.00  0.00    +0.000 OA
ATOM     11  O   UNL     1       1.590   5.751  17.936  0.00  0.00    +0.000 OA
BRANCH   9  12
ATOM     12  C   UNL     1       2.036   7.967  19.209  0.00  0.00    +0.000 A 
ATOM     13  C   UNL     1       1.785   9.029  18.347  0.00  0.00    +0.000 A 
ATOM     14  C   UNL     1       1.097  10.142  18.819  0.00  0.00    +0.000 A 
ATOM     15  C   UNL     1       0.718  10.235  20.163  0.00  0.00    +0.000 A 
ATOM     16 CL   UNL     1      -0.065  11.680  20.689  0.00  0.00    +0.000 Cl
ATOM     17  C   UNL     1       0.977   9.165  21.027  0.00  0.00    +0.000 A 
ATOM     18 CL   UNL     1       0.496   9.182  22.686  0.00  0.00    +0.000 Cl
ATOM     19  C   UNL     1       1.617   8.015  20.545  0.00  0.00    +0.000 A 
ENDBRANCH   9  12
ENDBRANCH   7   9
ENDBRANCH   2   7
BRANCH   1  20
ATOM     20  C   UNL     1       3.076   3.086  17.582  0.00  0.00    +0.000 C 
BRANCH  20  21
ATOM     21  C   UNL     1       4.586   3.296  17.711  0.00  0.00    +0.000 C 
BRANCH  21  22
ATOM     22  C   UNL     1       5.153   3.905  16.422  0.00  0.00    +0.000 C 
BRANCH  22  23
ATOM     23  C   UNL     1       6.566   4.451  16.599  0.00  0.00    +0.000 C 
BRANCH  23  24
ATOM     24  O   UNL     1       6.560   5.872  16.764  0.00  0.00    +0.000 OA
BRANCH  24  25
ATOM     25  C   UNL     1       7.539   6.255  17.721  0.00  0.00    +0.000 C 
BRANCH  25  27
ATOM     26  O   UNL     1       8.285   5.216  19.773  0.00  0.00    +0.000 OA
ATOM     27  C   UNL     1       7.364   5.681  19.120  0.00  0.00    +0.000 C 
BRANCH  27  28
ATOM     28  O   UNL     1       6.088   5.665  19.568  0.00  0.00    +0.000 OA
ATOM     29  H   UNL     1       5.862   6.396  20.173  0.00  0.00    +0.000 HD
ENDBRANCH  27  28
ENDBRANCH  25  27
ENDBRANCH  24  25
ENDBRANCH  23  24
ENDBRANCH  22  23
ENDBRANCH  21  22
ENDBRANCH  20  21
ENDBRANCH   1  20
TORSDOF 11
ENDMDL
MODEL 2
REMARK VINA RESULT:      -7.3      1.749      2.654
REMARK  Name = 
REMARK  11 active torsions:
REMARK  status: ('A' for Active; 'I' for Inactive)
REMARK    1  A    between atoms: C_2  and  O_3
REMARK    2  A    between atoms: C_2  and  C_4
REMARK    3  A    between atoms: C_4  and  O_5
REMARK    4  A    between atoms: O_5  and  C_6
REMARK    5  A    between atoms: C_6  and  C_7
REMARK    6  A    between atoms: C_7  and  C_8
REMARK    7  A    between atoms: C_8  and  C_9
REMARK    8  A    between atoms: C_9  and  C_10
REMARK    9  A    between atoms: C_11  and  N_12
REMARK   10  A    between atoms: N_12  and  S_13
REMARK   11  A    between atoms: S_13  and  C_16
REMARK                            x       y       z     vdW  Elec       q    Type
REMARK                         _______ _______ _______ _____ _____    ______ ____
ROOT
ATOM      1  C   UNL     1       3.081   3.444  19.177  0.00  0.00    +0.000 C 
ATOM      2  C   UNL     1       2.450   3.869  20.525  0.00  0.00    +0.000 C 
ATOM      3  C   UNL     1       1.009   3.322  20.482  0.00  0.00    +0.000 C 
ATOM      4  C   UNL     1       0.827   2.645  19.135  0.00  0.00    +0.000 C 
ATOM      5  C   UNL     1       2.231   2.249  18.750  0.00  0.00    +0.000 C 
ATOM      6  F   UNL     1       2.317   2.049  17.416  0.00  0.00    +0.000 F 
ENDROOT
BRANCH   2   7
ATOM      7  N   UNL     1       2.451   5.336  20.660  0.00  0.00    +0.000 NA
ATOM      8  H   UNL     1       2.920   5.745  21.472  0.00  0.00    +0.000 HD
BRANCH   7   9
ATOM      9  S   UNL     1       2.663   6.308  19.291  0.00  0.00    +0.000 S 
ATOM     10  O   UNL     1       4.091   6.549  19.217  0.00  0.00    +0.000 OA
ATOM     11  O   UNL     1       1.947   5.741  18.180  0.00  0.00    +0.000 OA
BRANCH   9  12
ATOM     12  C   UNL     1       1.887   7.832  19.714  0.00  0.00    +0.000 A 
ATOM     13  C   UNL     1       1.680   8.781  18.719  0.00  0.00    +0.000 A 
ATOM     14  C   UNL     1       0.895   9.896  18.995  0.00  0.00    +0.000 A 
ATOM     15  C   UNL     1       0.374  10.109  20.276  0.00  0.00    +0.000 A 
ATOM     16 CL   UNL     1      -0.526  11.555  20.557  0.00  0.00    +0.000 Cl
ATOM     17  C   UNL     1       0.589   9.152  21.274  0.00  0.00    +0.000 A 
ATOM     18 CL   UNL     1      -0.063   9.317  22.865  0.00  0.00    +0.000 Cl
ATOM     19  C   UNL     1       1.328   7.997  20.989  0.00  0.00    +0.000 A 
ENDBRANCH   9  12
ENDBRANCH   7   9
ENDBRANCH   2   7
BRANCH   1  20
ATOM     20  C   UNL     1       4.553   3.025  19.233  0.00  0.00    +0.000 C 
BRANCH  20  21
ATOM     21  C   UNL     1       5.498   3.908  18.416  0.00  0.00    +0.000 C 
BRANCH  21  22
ATOM     22  C   UNL     1       4.974   4.070  16.983  0.00  0.00    +0.000 C 
BRANCH  22  23
ATOM     23  C   UNL     1       5.700   5.163  16.209  0.00  0.00    +0.000 C 
BRANCH  23  24
ATOM     24  O   UNL     1       5.412   5.092  14.809  0.00  0.00    +0.000 OA
BRANCH  24  25
ATOM     25  C   UNL     1       6.262   4.139  14.184  0.00  0.00    +0.000 C 
BRANCH  25  27
ATOM     26  O   UNL     1       7.282   4.286  11.997  0.00  0.00    +0.000 OA
ATOM     27  C   UNL     1       7.232   4.689  13.149  0.00  0.00    +0.000 C 
BRANCH  27  28
ATOM     28  O   UNL     1       8.091   5.622  13.619  0.00  0.00    +0.000 OA
ATOM     29  H   UNL     1       8.402   6.260  12.949  0.00  0.00    +0.000 HD
ENDBRANCH  27  28
ENDBRANCH  25  27
ENDBRANCH  24  25
ENDBRANCH  23  24
ENDBRANCH  22  23
ENDBRANCH  21  22
ENDBRANCH  20  21
ENDBRANCH   1  20
TORSDOF 11
ENDMDL
MODEL 3
REMARK VINA RESULT:      -7.3      2.231      4.298
REMARK  Name = 
REMARK  11 active torsions:
REMARK  status: ('A' for Active; 'I' for Inactive)
REMARK    1  A    between atoms: C_2  and  O_3
REMARK    2  A    between atoms: C_2  and  C_4
REMARK    3  A    between atoms: C_4  and  O_5
REMARK    4  A    between atoms: O_5  and  C_6
REMARK    5  A    between atoms: C_6  and  C_7
REMARK    6  A    between atoms: C_7  and  C_8
REMARK    7  A    between atoms: C_8  and  C_9
REMARK    8  A    between atoms: C_9  and  C_10
REMARK    9  A    between atoms: C_11  and  N_12
REMARK   10  A    between atoms: N_12  and  S_13
REMARK   11  A    between atoms: S_13  and  C_16
REMARK                            x       y       z     vdW  Elec       q    Type
REMARK                         _______ _______ _______ _____ _____    ______ ____
ROOT
ATOM      1  C   UNL     1       5.161   5.195  17.352  0.00  0.00    +0.000 C 
ATOM      2  C   UNL     1       5.118   6.610  16.724  0.00  0.00    +0.000 C 
ATOM      3  C   UNL     1       6.408   7.301  17.208  0.00  0.00    +0.000 C 
ATOM      4  C   UNL     1       7.131   6.318  18.111  0.00  0.00    +0.000 C 
ATOM      5  C   UNL     1       6.647   4.975  17.625  0.00  0.00    +0.000 C 
ATOM      6  F   UNL     1       6.826   4.033  18.578  0.00  0.00    +0.000 F 
ENDROOT
BRANCH   2   7
ATOM      7  N   UNL     1       3.925   7.345  17.179  0.00  0.00    +0.000 NA
ATOM      8  H   UNL     1       3.351   7.814  16.474  0.00  0.00    +0.000 HD
BRANCH   7   9
ATOM      9  S   UNL     1       2.960   6.705  18.412  0.00  0.00    +0.000 S 
ATOM     10  O   UNL     1       2.007   5.845  17.737  0.00  0.00    +0.000 OA
ATOM     11  O   UNL     1       3.796   6.201  19.468  0.00  0.00    +0.000 OA
BRANCH   9  12
ATOM     12  C   UNL     1       2.075   8.093  19.038  0.00  0.00    +0.000 A 
ATOM     13  C   UNL     1       1.667   9.085  18.154  0.00  0.00    +0.000 A 
ATOM     14  C   UNL     1       0.801  10.080  18.598  0.00  0.00    +0.000 A 
ATOM     15  C   UNL     1       0.394  10.133  19.936  0.00  0.00    +0.000 A 
ATOM     16 CL   UNL     1      -0.620  11.440  20.426  0.00  0.00    +0.000 Cl
ATOM     17  C   UNL     1       0.812   9.134  20.822  0.00  0.00    +0.000 A 
ATOM     18 CL   UNL     1       0.313   9.101  22.475  0.00  0.00    +0.000 Cl
ATOM     19  C   UNL     1       1.636   8.096  20.369  0.00  0.00    +0.000 A 
ENDBRANCH   9  12
ENDBRANCH   7   9
ENDBRANCH   2   7
BRANCH   1  20
ATOM     20  C   UNL     1       4.632   4.059  16.472  0.00  0.00    +0.000 C 
BRANCH  20  21
ATOM     21  C   UNL     1       4.267   2.782  17.231  0.00  0.00    +0.000 C 
BRANCH  21  22
ATOM     22  C   UNL     1       2.788   2.806  17.638  0.00  0.00    +0.000 C 
BRANCH  22  23
ATOM     23  C   UNL     1       2.499   1.947  18.863  0.00  0.00    +0.000 C 
BRANCH  23  24
ATOM     24  O   UNL     1       1.166   2.149  19.341  0.00  0.00    +0.000 OA
BRANCH  24  25
ATOM     25  C   UNL     1       1.059   3.423  19.962  0.00  0.00    +0.000 C 
BRANCH  25  27
ATOM     26  O   UNL     1       1.787   2.734  22.163  0.00  0.00    +0.000 OA
ATOM     27  C   UNL     1       1.792   3.584  21.286  0.00  0.00    +0.000 C 
BRANCH  27  28
ATOM     28  O   UNL     1       2.405   4.779  21.449  0.00  0.00    +0.000 OA
ATOM     29  H   UNL     1       2.012   5.344  22.141  0.00  0.00    +0.000 HD
ENDBRANCH  27  28
ENDBRANCH  25  27
ENDBRANCH  24  25
ENDBRANCH  23  24
ENDBRANCH  22  23
ENDBRANCH  21  22
ENDBRANCH  20  21
ENDBRANCH   1  20
TORSDOF 11
ENDMDL
MODEL 4
REMARK VINA RESULT:      -7.3      3.606      5.026
REMARK  Name = 
REMARK  11 active torsions:
REMARK  status: ('A' for Active; 'I' for Inactive)
REMARK    1  A    between atoms: C_2  and  O_3
REMARK    2  A    between atoms: C_2  and  C_4
REMARK    3  A    between atoms: C_4  and  O_5
REMARK    4  A    between atoms: O_5  and  C_6
REMARK    5  A    between atoms: C_6  and  C_7
REMARK    6  A    between atoms: C_7  and  C_8
REMARK    7  A    between atoms: C_8  and  C_9
REMARK    8  A    between atoms: C_9  and  C_10
REMARK    9  A    between atoms: C_11  and  N_12
REMARK   10  A    between atoms: N_12  and  S_13
REMARK   11  A    between atoms: S_13  and  C_16
REMARK                            x       y       z     vdW  Elec       q    Type
REMARK                         _______ _______ _______ _____ _____    ______ ____
ROOT
ATOM      1  C   UNL     1       6.483   5.615  16.193  0.00  0.00    +0.000 C 
ATOM      2  C   UNL     1       5.533   4.597  16.869  0.00  0.00    +0.000 C 
ATOM      3  C   UNL     1       5.347   3.473  15.830  0.00  0.00    +0.000 C 
ATOM      4  C   UNL     1       6.136   3.869  14.596  0.00  0.00    +0.000 C 
ATOM      5  C   UNL     1       7.209   4.777  15.143  0.00  0.00    +0.000 C 
ATOM      6  F   UNL     1       7.710   5.562  14.164  0.00  0.00    +0.000 F 
ENDROOT
BRANCH   2   7
ATOM      7  N   UNL     1       4.242   5.228  17.198  0.00  0.00    +0.000 NA
ATOM      8  H   UNL     1       3.444   5.037  16.588  0.00  0.00    +0.000 HD
BRANCH   7   9
ATOM      9  S   UNL     1       3.751   5.350  18.812  0.00  0.00    +0.000 S 
ATOM     10  O   UNL     1       2.738   4.325  18.977  0.00  0.00    +0.000 OA
ATOM     11  O   UNL     1       4.906   5.397  19.667  0.00  0.00    +0.000 OA
BRANCH   9  12
ATOM     12  C   UNL     1       2.945   6.914  18.905  0.00  0.00    +0.000 A 
ATOM     13  C   UNL     1       2.981   7.756  17.799  0.00  0.00    +0.000 A 
ATOM     14  C   UNL     1       2.187   8.899  17.787  0.00  0.00    +0.000 A 
ATOM     15  C   UNL     1       1.410   9.245  18.898  0.00  0.00    +0.000 A 
ATOM     16 CL   UNL     1       0.511  10.717  18.834  0.00  0.00    +0.000 Cl
ATOM     17  C   UNL     1       1.381   8.395  20.009  0.00  0.00    +0.000 A 
ATOM     18 CL   UNL     1       0.409   8.726  21.398  0.00  0.00    +0.000 Cl
ATOM     19  C   UNL     1       2.132   7.213  20.006  0.00  0.00    +0.000 A 
ENDBRANCH   9  12
ENDBRANCH   7   9
ENDBRANCH   2   7
BRANCH   1  20
ATOM     20  C   UNL     1       7.511   6.280  17.113  0.00  0.00    +0.000 C 
BRANCH  20  21
ATOM     21  C   UNL     1       6.998   7.516  17.854  0.00  0.00    +0.000 C 
BRANCH  21  22
ATOM     22  C   UNL     1       7.898   8.724  17.566  0.00  0.00    +0.000 C 
BRANCH  22  23
ATOM     23  C   UNL     1       8.801   9.081  18.741  0.00  0.00    +0.000 C 
BRANCH  23  24
ATOM     24  O   UNL     1       8.809  10.490  18.986  0.00  0.00    +0.000 OA
BRANCH  24  25
ATOM     25  C   UNL     1      10.066  11.042  18.618  0.00  0.00    +0.000 C 
BRANCH  25  27
ATOM     26  O   UNL     1      12.158  11.660  19.659  0.00  0.00    +0.000 OA
ATOM     27  C   UNL     1      10.952  11.508  19.764  0.00  0.00    +0.000 C 
BRANCH  27  28
ATOM     28  O   UNL     1      10.307  11.683  20.940  0.00  0.00    +0.000 OA
ATOM     29  H   UNL     1      10.707  12.354  21.525  0.00  0.00    +0.000 HD
ENDBRANCH  27  28
ENDBRANCH  25  27
ENDBRANCH  24  25
ENDBRANCH  23  24
ENDBRANCH  22  23
ENDBRANCH  21  22
ENDBRANCH  20  21
ENDBRANCH   1  20
TORSDOF 11
ENDMDL
MODEL 5
REMARK VINA RESULT:      -7.3      2.316      3.240
REMARK  Name = 
REMARK  11 active torsions:
REMARK  status: ('A' for Active; 'I' for Inactive)
REMARK    1  A    between atoms: C_2  and  O_3
REMARK    2  A    between atoms: C_2  and  C_4
REMARK    3  A    between atoms: C_4  and  O_5
REMARK    4  A    between atoms: O_5  and  C_6
REMARK    5  A    between atoms: C_6  and  C_7
REMARK    6  A    between atoms: C_7  and  C_8
REMARK    7  A    between atoms: C_8  and  C_9
REMARK    8  A    between atoms: C_9  and  C_10
REMARK    9  A    between atoms: C_11  and  N_12
REMARK   10  A    between atoms: N_12  and  S_13
REMARK   11  A    between atoms: S_13  and  C_16
REMARK                            x       y       z     vdW  Elec       q    Type
REMARK                         _______ _______ _______ _____ _____    ______ ____
ROOT
ATOM      1  C   UNL     1       2.884   3.676  18.848  0.00  0.00    +0.000 C 
ATOM      2  C   UNL     1       3.265   4.347  20.191  0.00  0.00    +0.000 C 
ATOM      3  C   UNL     1       2.146   3.942  21.171  0.00  0.00    +0.000 C 
ATOM      4  C   UNL     1       1.148   3.105  20.391  0.00  0.00    +0.000 C 
ATOM      5  C   UNL     1       1.978   2.523  19.274  0.00  0.00    +0.000 C 
ATOM      6  F   UNL     1       1.186   2.131  18.251  0.00  0.00    +0.000 F 
ENDROOT
BRANCH   2   7
ATOM      7  N   UNL     1       3.330   5.811  20.041  0.00  0.00    +0.000 NA
ATOM      8  H   UNL     1       4.166   6.293  20.380  0.00  0.00    +0.000 HD
BRANCH   7   9
ATOM      9  S   UNL     1       2.745   6.540  18.631  0.00  0.00    +0.000 S 
ATOM     10  O   UNL     1       3.928   6.889  17.868  0.00  0.00    +0.000 OA
ATOM     11  O   UNL     1       1.707   5.725  18.060  0.00  0.00    +0.000 OA
BRANCH   9  12
ATOM     12  C   UNL     1       2.010   8.041  19.189  0.00  0.00    +0.000 A 
ATOM     13  C   UNL     1       1.727   9.037  18.262  0.00  0.00    +0.000 A 
ATOM     14  C   UNL     1       0.971  10.138  18.653  0.00  0.00    +0.000 A 
ATOM     15  C   UNL     1       0.554  10.287  19.981  0.00  0.00    +0.000 A 
ATOM     16 CL   UNL     1      -0.315  11.716  20.404  0.00  0.00    +0.000 Cl
ATOM     17  C   UNL     1       0.846   9.282  20.911  0.00  0.00    +0.000 A 
ATOM     18 CL   UNL     1       0.324   9.368  22.555  0.00  0.00    +0.000 Cl
ATOM     19  C   UNL     1       1.556   8.143  20.511  0.00  0.00    +0.000 A 
ENDBRANCH   9  12
ENDBRANCH   7   9
ENDBRANCH   2   7
BRANCH   1  20
ATOM     20  C   UNL     1       4.051   3.127  18.023  0.00  0.00    +0.000 C 
BRANCH  20  21
ATOM     21  C   UNL     1       4.080   3.600  16.568  0.00  0.00    +0.000 C 
BRANCH  21  22
ATOM     22  C   UNL     1       5.516   3.937  16.143  0.00  0.00    +0.000 C 
BRANCH  22  23
ATOM     23  C   UNL     1       5.611   4.387  14.690  0.00  0.00    +0.000 C 
BRANCH  23  24
ATOM     24  O   UNL     1       6.514   3.563  13.947  0.00  0.00    +0.000 OA
BRANCH  24  25
ATOM     25  C   UNL     1       6.347   3.791  12.554  0.00  0.00    +0.000 C 
BRANCH  25  27
ATOM     26  O   UNL     1       5.724   1.716  11.481  0.00  0.00    +0.000 OA
ATOM     27  C   UNL     1       5.404   2.841  11.830  0.00  0.00    +0.000 C 
BRANCH  27  28
ATOM     28  O   UNL     1       4.191   3.363  11.539  0.00  0.00    +0.000 OA
ATOM     29  H   UNL     1       3.615   3.505  12.315  0.00  0.00    +0.000 HD
ENDBRANCH  27  28
ENDBRANCH  25  27
ENDBRANCH  24  25
ENDBRANCH  23  24
ENDBRANCH  22  23
ENDBRANCH  21  22
ENDBRANCH  20  21
ENDBRANCH   1  20
TORSDOF 11
ENDMDL
MODEL 6
REMARK VINA RESULT:      -7.2      1.222      1.349
REMARK  Name = 
REMARK  11 active torsions:
REMARK  status: ('A' for Active; 'I' for Inactive)
REMARK    1  A    between atoms: C_2  and  O_3
REMARK    2  A    between atoms: C_2  and  C_4
REMARK    3  A    between atoms: C_4  and  O_5
REMARK    4  A    between atoms: O_5  and  C_6
REMARK    5  A    between atoms: C_6  and  C_7
REMARK    6  A    between atoms: C_7  and  C_8
REMARK    7  A    between atoms: C_8  and  C_9
REMARK    8  A    between atoms: C_9  and  C_10
REMARK    9  A    between atoms: C_11  and  N_12
REMARK   10  A    between atoms: N_12  and  S_13
REMARK   11  A    between atoms: S_13  and  C_16
REMARK                            x       y       z     vdW  Elec       q    Type
REMARK                         _______ _______ _______ _____ _____    ______ ____
ROOT
ATOM      1  C   UNL     1       2.676   3.542  17.924  0.00  0.00    +0.000 C 
ATOM      2  C   UNL     1       2.409   4.719  18.893  0.00  0.00    +0.000 C 
ATOM      3  C   UNL     1       1.301   4.216  19.838  0.00  0.00    +0.000 C 
ATOM      4  C   UNL     1       0.930   2.814  19.388  0.00  0.00    +0.000 C 
ATOM      5  C   UNL     1       2.182   2.324  18.703  0.00  0.00    +0.000 C 
ATOM      6  F   UNL     1       1.895   1.302  17.867  0.00  0.00    +0.000 F 
ENDROOT
BRANCH   2   7
ATOM      7  N   UNL     1       1.965   5.913  18.151  0.00  0.00    +0.000 NA
ATOM      8  H   UNL     1       0.970   6.145  18.165  0.00  0.00    +0.000 HD
BRANCH   7   9
ATOM      9  S   UNL     1       2.912   7.315  18.167  0.00  0.00    +0.000 S 
ATOM     10  O   UNL     1       4.000   7.025  19.082  0.00  0.00    +0.000 OA
ATOM     11  O   UNL     1       3.169   7.741  16.818  0.00  0.00    +0.000 OA
BRANCH   9  12
ATOM     12  C   UNL     1       1.884   8.525  18.931  0.00  0.00    +0.000 A 
ATOM     13  C   UNL     1       1.301   9.509  18.140  0.00  0.00    +0.000 A 
ATOM     14  C   UNL     1       0.335  10.344  18.693  0.00  0.00    +0.000 A 
ATOM     15  C   UNL     1      -0.004  10.252  20.047  0.00  0.00    +0.000 A 
ATOM     16 CL   UNL     1      -1.155  11.373  20.675  0.00  0.00    +0.000 Cl
ATOM     17  C   UNL     1       0.589   9.262  20.839  0.00  0.00    +0.000 A 
ATOM     18 CL   UNL     1       0.187   9.051  22.506  0.00  0.00    +0.000 Cl
ATOM     19  C   UNL     1       1.519   8.379  20.276  0.00  0.00    +0.000 A 
ENDBRANCH   9  12
ENDBRANCH   7   9
ENDBRANCH   2   7
BRANCH   1  20
ATOM     20  C   UNL     1       4.138   3.328  17.521  0.00  0.00    +0.000 C 
BRANCH  20  21
ATOM     21  C   UNL     1       4.516   3.914  16.159  0.00  0.00    +0.000 C 
BRANCH  21  22
ATOM     22  C   UNL     1       6.041   3.956  15.999  0.00  0.00    +0.000 C 
BRANCH  22  23
ATOM     23  C   UNL     1       6.582   5.374  15.859  0.00  0.00    +0.000 C 
BRANCH  23  24
ATOM     24  O   UNL     1       7.639   5.625  16.789  0.00  0.00    +0.000 OA
BRANCH  24  25
ATOM     25  C   UNL     1       7.323   5.053  18.051  0.00  0.00    +0.000 C 
BRANCH  25  27
ATOM     26  O   UNL     1       7.767   5.355  20.408  0.00  0.00    +0.000 OA
ATOM     27  C   UNL     1       7.860   5.787  19.271  0.00  0.00    +0.000 C 
BRANCH  27  28
ATOM     28  O   UNL     1       8.398   7.000  19.007  0.00  0.00    +0.000 OA
ATOM     29  H   UNL     1       8.029   7.730  19.539  0.00  0.00    +0.000 HD
ENDBRANCH  27  28
ENDBRANCH  25  27
ENDBRANCH  24  25
ENDBRANCH  23  24
ENDBRANCH  22  23
ENDBRANCH  21  22
ENDBRANCH  20  21
ENDBRANCH   1  20
TORSDOF 11
ENDMDL
MODEL 7
REMARK VINA RESULT:      -7.1      3.311      5.164
REMARK  Name = 
REMARK  11 active torsions:
REMARK  status: ('A' for Active; 'I' for Inactive)
REMARK    1  A    between atoms: C_2  and  O_3
REMARK    2  A    between atoms: C_2  and  C_4
REMARK    3  A    between atoms: C_4  and  O_5
REMARK    4  A    between atoms: O_5  and  C_6
REMARK    5  A    between atoms: C_6  and  C_7
REMARK    6  A    between atoms: C_7  and  C_8
REMARK    7  A    between atoms: C_8  and  C_9
REMARK    8  A    between atoms: C_9  and  C_10
REMARK    9  A    between atoms: C_11  and  N_12
REMARK   10  A    between atoms: N_12  and  S_13
REMARK   11  A    between atoms: S_13  and  C_16
REMARK                            x       y       z     vdW  Elec       q    Type
REMARK                         _______ _______ _______ _____ _____    ______ ____
ROOT
ATOM      1  C   UNL     1       2.297   7.241  20.047  0.00  0.00    +0.000 C 
ATOM      2  C   UNL     1       1.195   8.329  20.041  0.00  0.00    +0.000 C 
ATOM      3  C   UNL     1       1.378   9.076  18.705  0.00  0.00    +0.000 C 
ATOM      4  C   UNL     1       2.570   8.452  18.003  0.00  0.00    +0.000 C 
ATOM      5  C   UNL     1       2.615   7.053  18.565  0.00  0.00    +0.000 C 
ATOM      6  F   UNL     1       3.844   6.516  18.402  0.00  0.00    +0.000 F 
ENDROOT
BRANCH   2   7
ATOM      7  N   UNL     1       1.363   9.245  21.183  0.00  0.00    +0.000 NA
ATOM      8  H   UNL     1       1.816  10.146  21.015  0.00  0.00    +0.000 HD
BRANCH   7   9
ATOM      9  S   UNL     1       0.128   9.398  22.329  0.00  0.00    +0.000 S 
ATOM     10  O   UNL     1      -0.813   8.339  22.014  0.00  0.00    +0.000 OA
ATOM     11  O   UNL     1       0.699   9.515  23.644  0.00  0.00    +0.000 OA
BRANCH   9  12
ATOM     12  C   UNL     1      -0.645  10.931  21.936  0.00  0.00    +0.000 A 
ATOM     13  C   UNL     1      -1.249  11.661  22.953  0.00  0.00    +0.000 A 
ATOM     14  C   UNL     1      -1.684  12.957  22.696  0.00  0.00    +0.000 A 
ATOM     15  C   UNL     1      -1.586  13.506  21.412  0.00  0.00    +0.000 A 
ATOM     16 CL   UNL     1      -2.217  15.092  21.155  0.00  0.00    +0.000 Cl
ATOM     17  C   UNL     1      -0.981  12.765  20.391  0.00  0.00    +0.000 A 
ATOM     18 CL   UNL     1      -0.777  13.390  18.794  0.00  0.00    +0.000 Cl
ATOM     19  C   UNL     1      -0.487  11.481  20.657  0.00  0.00    +0.000 A 
ENDBRANCH   9  12
ENDBRANCH   7   9
ENDBRANCH   2   7
BRANCH   1  20
ATOM     20  C   UNL     1       1.899   5.894  20.657  0.00  0.00    +0.000 C 
BRANCH  20  21
ATOM     21  C   UNL     1       1.417   4.854  19.643  0.00  0.00    +0.000 C 
BRANCH  21  22
ATOM     22  C   UNL     1       0.986   3.568  20.360  0.00  0.00    +0.000 C 
BRANCH  22  23
ATOM     23  C   UNL     1       1.554   2.311  19.711  0.00  0.00    +0.000 C 
BRANCH  23  24
ATOM     24  O   UNL     1       2.981   2.272  19.808  0.00  0.00    +0.000 OA
BRANCH  24  25
ATOM     25  C   UNL     1       3.551   2.054  18.525  0.00  0.00    +0.000 C 
BRANCH  25  27
ATOM     26  O   UNL     1       4.166   3.733  16.897  0.00  0.00    +0.000 OA
ATOM     27  C   UNL     1       4.395   3.191  17.967  0.00  0.00    +0.000 C 
BRANCH  27  28
ATOM     28  O   UNL     1       5.469   3.519  18.721  0.00  0.00    +0.000 OA
ATOM     29  H   UNL     1       5.856   2.774  19.219  0.00  0.00    +0.000 HD
ENDBRANCH  27  28
ENDBRANCH  25  27
ENDBRANCH  24  25
ENDBRANCH  23  24
ENDBRANCH  22  23
ENDBRANCH  21  22
ENDBRANCH  20  21
ENDBRANCH   1  20
TORSDOF 11
ENDMDL
MODEL 8
REMARK VINA RESULT:      -7.1      3.063      4.826
REMARK  Name = 
REMARK  11 active torsions:
REMARK  status: ('A' for Active; 'I' for Inactive)
REMARK    1  A    between atoms: C_2  and  O_3
REMARK    2  A    between atoms: C_2  and  C_4
REMARK    3  A    between atoms: C_4  and  O_5
REMARK    4  A    between atoms: O_5  and  C_6
REMARK    5  A    between atoms: C_6  and  C_7
REMARK    6  A    between atoms: C_7  and  C_8
REMARK    7  A    between atoms: C_8  and  C_9
REMARK    8  A    between atoms: C_9  and  C_10
REMARK    9  A    between atoms: C_11  and  N_12
REMARK   10  A    between atoms: N_12  and  S_13
REMARK   11  A    between atoms: S_13  and  C_16
REMARK                            x       y       z     vdW  Elec       q    Type
REMARK                         _______ _______ _______ _____ _____    ______ ____
ROOT
ATOM      1  C   UNL     1       2.742   6.752  19.933  0.00  0.00    +0.000 C 
ATOM      2  C   UNL     1       1.577   7.761  20.084  0.00  0.00    +0.000 C 
ATOM      3  C   UNL     1       1.586   8.579  18.778  0.00  0.00    +0.000 C 
ATOM      4  C   UNL     1       2.745   8.072  17.938  0.00  0.00    +0.000 C 
ATOM      5  C   UNL     1       2.932   6.655  18.420  0.00  0.00    +0.000 C 
ATOM      6  F   UNL     1       4.172   6.211  18.119  0.00  0.00    +0.000 F 
ENDROOT
BRANCH   2   7
ATOM      7  N   UNL     1       1.792   8.632  21.252  0.00  0.00    +0.000 NA
ATOM      8  H   UNL     1       2.571   9.294  21.222  0.00  0.00    +0.000 HD
BRANCH   7   9
ATOM      9  S   UNL     1       0.465   9.301  22.060  0.00  0.00    +0.000 S 
ATOM     10  O   UNL     1      -0.643   8.412  21.766  0.00  0.00    +0.000 OA
ATOM     11  O   UNL     1       0.829   9.610  23.416  0.00  0.00    +0.000 OA
BRANCH   9  12
ATOM     12  C   UNL     1       0.164  10.821  21.220  0.00  0.00    +0.000 A 
ATOM     13  C   UNL     1      -1.101  11.391  21.293  0.00  0.00    +0.000 A 
ATOM     14  C   UNL     1      -1.297  12.680  20.806  0.00  0.00    +0.000 A 
ATOM     15  C   UNL     1      -0.256  13.378  20.182  0.00  0.00    +0.000 A 
ATOM     16 CL   UNL     1      -0.598  14.941  19.537  0.00  0.00    +0.000 Cl
ATOM     17  C   UNL     1       1.015  12.796  20.108  0.00  0.00    +0.000 A 
ATOM     18 CL   UNL     1       2.362  13.612  19.400  0.00  0.00    +0.000 Cl
ATOM     19  C   UNL     1       1.235  11.523  20.649  0.00  0.00    +0.000 A 
ENDBRANCH   9  12
ENDBRANCH   7   9
ENDBRANCH   2   7
BRANCH   1  20
ATOM     20  C   UNL     1       2.490   5.354  20.505  0.00  0.00    +0.000 C 
BRANCH  20  21
ATOM     21  C   UNL     1       1.039   4.879  20.410  0.00  0.00    +0.000 C 
BRANCH  21  22
ATOM     22  C   UNL     1       0.983   3.419  19.941  0.00  0.00    +0.000 C 
BRANCH  22  23
ATOM     23  C   UNL     1       1.175   3.275  18.436  0.00  0.00    +0.000 C 
BRANCH  23  24
ATOM     24  O   UNL     1       1.954   2.119  18.117  0.00  0.00    +0.000 OA
BRANCH  24  25
ATOM     25  C   UNL     1       3.155   2.116  18.877  0.00  0.00    +0.000 C 
BRANCH  25  27
ATOM     26  O   UNL     1       4.379   3.265  17.138  0.00  0.00    +0.000 OA
ATOM     27  C   UNL     1       4.307   2.933  18.310  0.00  0.00    +0.000 C 
BRANCH  27  28
ATOM     28  O   UNL     1       5.290   3.212  19.196  0.00  0.00    +0.000 OA
ATOM     29  H   UNL     1       4.981   3.371  20.107  0.00  0.00    +0.000 HD
ENDBRANCH  27  28
ENDBRANCH  25  27
ENDBRANCH  24  25
ENDBRANCH  23  24
ENDBRANCH  22  23
ENDBRANCH  21  22
ENDBRANCH  20  21
ENDBRANCH   1  20
TORSDOF 11
ENDMDL
MODEL 9
REMARK VINA RESULT:      -7.1      3.338      4.879
REMARK  Name = 
REMARK  11 active torsions:
REMARK  status: ('A' for Active; 'I' for Inactive)
REMARK    1  A    between atoms: C_2  and  O_3
REMARK    2  A    between atoms: C_2  and  C_4
REMARK    3  A    between atoms: C_4  and  O_5
REMARK    4  A    between atoms: O_5  and  C_6
REMARK    5  A    between atoms: C_6  and  C_7
REMARK    6  A    between atoms: C_7  and  C_8
REMARK    7  A    between atoms: C_8  and  C_9
REMARK    8  A    between atoms: C_9  and  C_10
REMARK    9  A    between atoms: C_11  and  N_12
REMARK   10  A    between atoms: N_12  and  S_13
REMARK   11  A    between atoms: S_13  and  C_16
REMARK                            x       y       z     vdW  Elec       q    Type
REMARK                         _______ _______ _______ _____ _____    ______ ____
ROOT
ATOM      1  C   UNL     1       2.405   6.310  19.921  0.00  0.00    +0.000 C 
ATOM      2  C   UNL     1       1.554   7.603  19.955  0.00  0.00    +0.000 C 
ATOM      3  C   UNL     1       2.001   8.409  18.719  0.00  0.00    +0.000 C 
ATOM      4  C   UNL     1       3.097   7.611  18.036  0.00  0.00    +0.000 C 
ATOM      5  C   UNL     1       2.806   6.190  18.452  0.00  0.00    +0.000 C 
ATOM      6  F   UNL     1       3.909   5.421  18.315  0.00  0.00    +0.000 F 
ENDROOT
BRANCH   2   7
ATOM      7  N   UNL     1       1.806   8.359  21.195  0.00  0.00    +0.000 NA
ATOM      8  H   UNL     1       2.688   8.870  21.276  0.00  0.00    +0.000 HD
BRANCH   7   9
ATOM      9  S   UNL     1       0.545   9.213  21.931  0.00  0.00    +0.000 S 
ATOM     10  O   UNL     1      -0.631   8.382  21.750  0.00  0.00    +0.000 OA
ATOM     11  O   UNL     1       0.953   9.645  23.241  0.00  0.00    +0.000 OA
BRANCH   9  12
ATOM     12  C   UNL     1       0.343  10.646  20.926  0.00  0.00    +0.000 A 
ATOM     13  C   UNL     1      -0.939  11.027  20.547  0.00  0.00    +0.000 A 
ATOM     14  C   UNL     1      -1.128  12.258  19.926  0.00  0.00    +0.000 A 
ATOM     15  C   UNL     1      -0.039  13.080  19.616  0.00  0.00    +0.000 A 
ATOM     16 CL   UNL     1      -0.348  14.557  18.777  0.00  0.00    +0.000 Cl
ATOM     17  C   UNL     1       1.250  12.689  19.996  0.00  0.00    +0.000 A 
ATOM     18 CL   UNL     1       2.638  13.671  19.695  0.00  0.00    +0.000 Cl
ATOM     19  C   UNL     1       1.442  11.479  20.675  0.00  0.00    +0.000 A 
ENDBRANCH   9  12
ENDBRANCH   7   9
ENDBRANCH   2   7
BRANCH   1  20
ATOM     20  C   UNL     1       1.689   5.030  20.359  0.00  0.00    +0.000 C 
BRANCH  20  21
ATOM     21  C   UNL     1       2.354   4.296  21.526  0.00  0.00    +0.000 C 
BRANCH  21  22
ATOM     22  C   UNL     1       2.614   2.830  21.158  0.00  0.00    +0.000 C 
BRANCH  22  23
ATOM     23  C   UNL     1       3.896   2.642  20.355  0.00  0.00    +0.000 C 
BRANCH  23  24
ATOM     24  O   UNL     1       3.756   1.602  19.382  0.00  0.00    +0.000 OA
BRANCH  24  25
ATOM     25  C   UNL     1       3.668   2.163  18.079  0.00  0.00    +0.000 C 
BRANCH  25  27
ATOM     26  O   UNL     1       2.032   3.374  16.775  0.00  0.00    +0.000 OA
ATOM     27  C   UNL     1       2.266   2.494  17.588  0.00  0.00    +0.000 C 
BRANCH  27  28
ATOM     28  O   UNL     1       1.279   1.778  18.174  0.00  0.00    +0.000 OA
ATOM     29  H   UNL     1       0.875   1.101  17.600  0.00  0.00    +0.000 HD
ENDBRANCH  27  28
ENDBRANCH  25  27
ENDBRANCH  24  25
ENDBRANCH  23  24
ENDBRANCH  22  23
ENDBRANCH  21  22
ENDBRANCH  20  21
ENDBRANCH   1  20
TORSDOF 11
ENDMDL
