MODEL 1
REMARK VINA RESULT:      -8.5      0.000      0.000
REMARK  Name = 
REMARK  1 active torsions:
REMARK  status: ('A' for Active; 'I' for Inactive)
REMARK    1  A    between atoms: C_4  and  C_5
REMARK                            x       y       z     vdW  Elec       q    Type
REMARK                         _______ _______ _______ _____ _____    ______ ____
ROOT
ATOM      1  N   UNL     1       4.054   1.388  17.655  0.00  0.00    +0.000 N 
ATOM      2  C   UNL     1       3.842   2.716  17.908  0.00  0.00    +0.000 C 
ATOM      3  N   UNL     1       4.486   3.538  17.147  0.00  0.00    +0.000 NA
ATOM      4  C   UNL     1       4.367   4.994  17.267  0.00  0.00    +0.000 C 
ATOM      5  C   UNL     1       3.260   5.511  18.204  0.00  0.00    +0.000 C 
ATOM      6  C   UNL     1       2.677   4.509  19.144  0.00  0.00    +0.000 A 
ATOM      7  C   UNL     1       1.804   4.931  20.153  0.00  0.00    +0.000 A 
ATOM      8  F   UNL     1       1.534   6.236  20.293  0.00  0.00    +0.000 F 
ATOM      9  C   UNL     1       1.193   4.026  21.011  0.00  0.00    +0.000 A 
ATOM     10  C   UNL     1       1.446   2.666  20.864  0.00  0.00    +0.000 A 
ATOM     11  C   UNL     1       2.308   2.226  19.857  0.00  0.00    +0.000 A 
ATOM     12  C   UNL     1       2.930   3.147  18.998  0.00  0.00    +0.000 A 
ATOM     13  H   UNL     1       4.854   1.249  17.046  0.00  0.00    +0.000 HD
ATOM     14  H   UNL     1       4.033   0.739  18.427  0.00  0.00    +0.000 HD
ENDROOT
BRANCH   4  15
ATOM     15  C   UNL     1       5.685   5.676  17.617  0.00  0.00    +0.000 A 
ATOM     16  C   UNL     1       6.034   6.875  16.963  0.00  0.00    +0.000 A 
ATOM     17  C   UNL     1       7.150   7.605  17.367  0.00  0.00    +0.000 A 
ATOM     18  C   UNL     1       7.929   7.135  18.416  0.00  0.00    +0.000 A 
ATOM     19  F   UNL     1       8.981   7.855  18.829  0.00  0.00    +0.000 F 
ATOM     20  C   UNL     1       7.625   5.938  19.053  0.00  0.00    +0.000 A 
ATOM     21  C   UNL     1       6.504   5.208  18.654  0.00  0.00    +0.000 A 
ENDBRANCH   4  15
TORSDOF 1
ENDMDL
MODEL 2
REMARK VINA RESULT:      -7.9      2.905      3.710
REMARK  Name = 
REMARK  1 active torsions:
REMARK  status: ('A' for Active; 'I' for Inactive)
REMARK    1  A    between atoms: C_4  and  C_5
REMARK                            x       y       z     vdW  Elec       q    Type
REMARK                         _______ _______ _______ _____ _____    ______ ____
ROOT
ATOM      1  N   UNL     1       2.236   7.281  18.627  0.00  0.00    +0.000 N 
ATOM      2  C   UNL     1       3.136   6.257  18.740  0.00  0.00    +0.000 C 
ATOM      3  N   UNL     1       4.285   6.461  18.184  0.00  0.00    +0.000 NA
ATOM      4  C   UNL     1       5.372   5.479  18.221  0.00  0.00    +0.000 C 
ATOM      5  C   UNL     1       5.164   4.268  19.149  0.00  0.00    +0.000 C 
ATOM      6  C   UNL     1       3.768   4.040  19.625  0.00  0.00    +0.000 A 
ATOM      7  C   UNL     1       3.454   2.863  20.315  0.00  0.00    +0.000 A 
ATOM      8  F   UNL     1       4.402   1.933  20.504  0.00  0.00    +0.000 F 
ATOM      9  C   UNL     1       2.184   2.637  20.827  0.00  0.00    +0.000 A 
ATOM     10  C   UNL     1       1.197   3.603  20.658  0.00  0.00    +0.000 A 
ATOM     11  C   UNL     1       1.494   4.786  19.979  0.00  0.00    +0.000 A 
ATOM     12  C   UNL     1       2.779   5.006  19.456  0.00  0.00    +0.000 A 
ATOM     13  H   UNL     1       2.533   7.962  17.935  0.00  0.00    +0.000 HD
ATOM     14  H   UNL     1       1.254   7.057  18.558  0.00  0.00    +0.000 HD
ENDROOT
BRANCH   4  15
ATOM     15  C   UNL     1       5.784   4.990  16.837  0.00  0.00    +0.000 A 
ATOM     16  C   UNL     1       4.836   4.328  16.031  0.00  0.00    +0.000 A 
ATOM     17  C   UNL     1       5.130   4.007  14.706  0.00  0.00    +0.000 A 
ATOM     18  C   UNL     1       6.375   4.336  14.185  0.00  0.00    +0.000 A 
ATOM     19  F   UNL     1       6.644   4.063  12.902  0.00  0.00    +0.000 F 
ATOM     20  C   UNL     1       7.338   4.958  14.971  0.00  0.00    +0.000 A 
ATOM     21  C   UNL     1       7.044   5.285  16.296  0.00  0.00    +0.000 A 
ENDBRANCH   4  15
TORSDOF 1
ENDMDL
MODEL 3
REMARK VINA RESULT:      -7.9      1.521      1.888
REMARK  Name = 
REMARK  1 active torsions:
REMARK  status: ('A' for Active; 'I' for Inactive)
REMARK    1  A    between atoms: C_4  and  C_5
REMARK                            x       y       z     vdW  Elec       q    Type
REMARK                         _______ _______ _______ _____ _____    ______ ____
ROOT
ATOM      1  N   UNL     1       5.151   1.797  20.838  0.00  0.00    +0.000 N 
ATOM      2  C   UNL     1       4.679   2.632  19.862  0.00  0.00    +0.000 C 
ATOM      3  N   UNL     1       5.554   3.027  18.996  0.00  0.00    +0.000 NA
ATOM      4  C   UNL     1       5.222   3.912  17.876  0.00  0.00    +0.000 C 
ATOM      5  C   UNL     1       3.724   4.180  17.642  0.00  0.00    +0.000 C 
ATOM      6  C   UNL     1       2.810   3.814  18.764  0.00  0.00    +0.000 A 
ATOM      7  C   UNL     1       1.463   4.192  18.712  0.00  0.00    +0.000 A 
ATOM      8  F   UNL     1       1.018   4.917  17.676  0.00  0.00    +0.000 F 
ATOM      9  C   UNL     1       0.566   3.823  19.705  0.00  0.00    +0.000 A 
ATOM     10  C   UNL     1       1.009   3.052  20.775  0.00  0.00    +0.000 A 
ATOM     11  C   UNL     1       2.347   2.659  20.839  0.00  0.00    +0.000 A 
ATOM     12  C   UNL     1       3.253   3.043  19.835  0.00  0.00    +0.000 A 
ATOM     13  H   UNL     1       6.166   1.785  20.859  0.00  0.00    +0.000 HD
ATOM     14  H   UNL     1       4.741   1.848  21.759  0.00  0.00    +0.000 HD
ENDROOT
BRANCH   4  15
ATOM     15  C   UNL     1       5.972   5.239  17.918  0.00  0.00    +0.000 A 
ATOM     16  C   UNL     1       7.131   5.348  18.713  0.00  0.00    +0.000 A 
ATOM     17  C   UNL     1       7.927   6.491  18.655  0.00  0.00    +0.000 A 
ATOM     18  C   UNL     1       7.562   7.533  17.812  0.00  0.00    +0.000 A 
ATOM     19  F   UNL     1       8.346   8.616  17.728  0.00  0.00    +0.000 F 
ATOM     20  C   UNL     1       6.405   7.463  17.045  0.00  0.00    +0.000 A 
ATOM     21  C   UNL     1       5.610   6.316  17.098  0.00  0.00    +0.000 A 
ENDBRANCH   4  15
TORSDOF 1
ENDMDL
MODEL 4
REMARK VINA RESULT:      -7.8      2.847      3.634
REMARK  Name = 
REMARK  1 active torsions:
REMARK  status: ('A' for Active; 'I' for Inactive)
REMARK    1  A    between atoms: C_4  and  C_5
REMARK                            x       y       z     vdW  Elec       q    Type
REMARK                         _______ _______ _______ _____ _____    ______ ____
ROOT
ATOM      1  N   UNL     1       2.827   6.832  19.809  0.00  0.00    +0.000 N 
ATOM      2  C   UNL     1       3.400   5.668  19.373  0.00  0.00    +0.000 C 
ATOM      3  N   UNL     1       4.614   5.772  18.944  0.00  0.00    +0.000 NA
ATOM      4  C   UNL     1       5.385   4.625  18.454  0.00  0.00    +0.000 C 
ATOM      5  C   UNL     1       4.758   3.237  18.680  0.00  0.00    +0.000 C 
ATOM      6  C   UNL     1       3.309   3.224  19.037  0.00  0.00    +0.000 A 
ATOM      7  C   UNL     1       2.616   2.008  19.077  0.00  0.00    +0.000 A 
ATOM      8  F   UNL     1       3.250   0.873  18.751  0.00  0.00    +0.000 F 
ATOM      9  C   UNL     1       1.284   1.943  19.461  0.00  0.00    +0.000 A 
ATOM     10  C   UNL     1       0.618   3.110  19.824  0.00  0.00    +0.000 A 
ATOM     11  C   UNL     1       1.296   4.331  19.798  0.00  0.00    +0.000 A 
ATOM     12  C   UNL     1       2.642   4.391  19.400  0.00  0.00    +0.000 A 
ATOM     13  H   UNL     1       3.371   7.642  19.527  0.00  0.00    +0.000 HD
ATOM     14  H   UNL     1       1.835   6.963  19.677  0.00  0.00    +0.000 HD
ENDROOT
BRANCH   4  15
ATOM     15  C   UNL     1       5.798   4.762  16.993  0.00  0.00    +0.000 A 
ATOM     16  C   UNL     1       7.119   5.145  16.685  0.00  0.00    +0.000 A 
ATOM     17  C   UNL     1       7.575   5.129  15.368  0.00  0.00    +0.000 A 
ATOM     18  C   UNL     1       6.711   4.742  14.352  0.00  0.00    +0.000 A 
ATOM     19  F   UNL     1       7.158   4.690  13.091  0.00  0.00    +0.000 F 
ATOM     20  C   UNL     1       5.393   4.393  14.627  0.00  0.00    +0.000 A 
ATOM     21  C   UNL     1       4.936   4.404  15.946  0.00  0.00    +0.000 A 
ENDBRANCH   4  15
TORSDOF 1
ENDMDL
MODEL 5
REMARK VINA RESULT:      -7.8      2.940      3.750
REMARK  Name = 
REMARK  1 active torsions:
REMARK  status: ('A' for Active; 'I' for Inactive)
REMARK    1  A    between atoms: C_4  and  C_5
REMARK                            x       y       z     vdW  Elec       q    Type
REMARK                         _______ _______ _______ _____ _____    ______ ____
ROOT
ATOM      1  N   UNL     1       2.224   7.359  18.843  0.00  0.00    +0.000 N 
ATOM      2  C   UNL     1       3.118   6.324  18.851  0.00  0.00    +0.000 C 
ATOM      3  N   UNL     1       4.230   6.544  18.231  0.00  0.00    +0.000 NA
ATOM      4  C   UNL     1       5.307   5.552  18.152  0.00  0.00    +0.000 C 
ATOM      5  C   UNL     1       5.146   4.302  19.035  0.00  0.00    +0.000 C 
ATOM      6  C   UNL     1       3.781   4.063  19.590  0.00  0.00    +0.000 A 
ATOM      7  C   UNL     1       3.499   2.858  20.245  0.00  0.00    +0.000 A 
ATOM      8  F   UNL     1       4.446   1.913  20.329  0.00  0.00    +0.000 F 
ATOM      9  C   UNL     1       2.262   2.619  20.827  0.00  0.00    +0.000 A 
ATOM     10  C   UNL     1       1.277   3.600  20.767  0.00  0.00    +0.000 A 
ATOM     11  C   UNL     1       1.543   4.811  20.125  0.00  0.00    +0.000 A 
ATOM     12  C   UNL     1       2.794   5.044  19.530  0.00  0.00    +0.000 A 
ATOM     13  H   UNL     1       2.483   8.070  18.165  0.00  0.00    +0.000 HD
ATOM     14  H   UNL     1       1.237   7.147  18.827  0.00  0.00    +0.000 HD
ENDROOT
BRANCH   4  15
ATOM     15  C   UNL     1       5.623   5.125  16.723  0.00  0.00    +0.000 A 
ATOM     16  C   UNL     1       6.877   5.454  16.169  0.00  0.00    +0.000 A 
ATOM     17  C   UNL     1       7.260   4.948  14.928  0.00  0.00    +0.000 A 
ATOM     18  C   UNL     1       6.389   4.122  14.230  0.00  0.00    +0.000 A 
ATOM     19  F   UNL     1       6.770   3.605  13.055  0.00  0.00    +0.000 F 
ATOM     20  C   UNL     1       5.133   3.811  14.741  0.00  0.00    +0.000 A 
ATOM     21  C   UNL     1       4.750   4.313  15.986  0.00  0.00    +0.000 A 
ENDBRANCH   4  15
TORSDOF 1
ENDMDL
MODEL 6
REMARK VINA RESULT:      -7.8      0.270      1.142
REMARK  Name = 
REMARK  1 active torsions:
REMARK  status: ('A' for Active; 'I' for Inactive)
REMARK    1  A    between atoms: C_4  and  C_5
REMARK                            x       y       z     vdW  Elec       q    Type
REMARK                         _______ _______ _______ _____ _____    ______ ____
ROOT
ATOM      1  N   UNL     1       4.154   1.461  17.680  0.00  0.00    +0.000 N 
ATOM      2  C   UNL     1       3.821   2.757  17.969  0.00  0.00    +0.000 C 
ATOM      3  N   UNL     1       4.406   3.656  17.248  0.00  0.00    +0.000 NA
ATOM      4  C   UNL     1       4.156   5.091  17.411  0.00  0.00    +0.000 C 
ATOM      5  C   UNL     1       2.991   5.479  18.338  0.00  0.00    +0.000 C 
ATOM      6  C   UNL     1       2.480   4.400  19.233  0.00  0.00    +0.000 A 
ATOM      7  C   UNL     1       1.553   4.711  20.236  0.00  0.00    +0.000 A 
ATOM      8  F   UNL     1       1.167   5.983  20.409  0.00  0.00    +0.000 F 
ATOM      9  C   UNL     1       1.007   3.729  21.051  0.00  0.00    +0.000 A 
ATOM     10  C   UNL     1       1.382   2.402  20.868  0.00  0.00    +0.000 A 
ATOM     11  C   UNL     1       2.299   2.072  19.868  0.00  0.00    +0.000 A 
ATOM     12  C   UNL     1       2.854   3.071  19.051  0.00  0.00    +0.000 A 
ATOM     13  H   UNL     1       4.975   1.412  17.085  0.00  0.00    +0.000 HD
ATOM     14  H   UNL     1       4.175   0.788  18.432  0.00  0.00    +0.000 HD
ENDROOT
BRANCH   4  15
ATOM     15  C   UNL     1       5.403   5.873  17.811  0.00  0.00    +0.000 A 
ATOM     16  C   UNL     1       6.209   5.391  18.861  0.00  0.00    +0.000 A 
ATOM     17  C   UNL     1       7.434   5.991  19.150  0.00  0.00    +0.000 A 
ATOM     18  C   UNL     1       7.852   7.082  18.399  0.00  0.00    +0.000 A 
ATOM     19  F   UNL     1       9.045   7.637  18.651  0.00  0.00    +0.000 F 
ATOM     20  C   UNL     1       7.058   7.597  17.381  0.00  0.00    +0.000 A 
ATOM     21  C   UNL     1       5.834   6.994  17.087  0.00  0.00    +0.000 A 
ENDBRANCH   4  15
TORSDOF 1
ENDMDL
MODEL 7
REMARK VINA RESULT:      -7.8      1.720      6.050
REMARK  Name = 
REMARK  1 active torsions:
REMARK  status: ('A' for Active; 'I' for Inactive)
REMARK    1  A    between atoms: C_4  and  C_5
REMARK                            x       y       z     vdW  Elec       q    Type
REMARK                         _______ _______ _______ _____ _____    ______ ____
ROOT
ATOM      1  N   UNL     1       5.201   6.884  15.004  0.00  0.00    +0.000 N 
ATOM      2  C   UNL     1       5.483   6.134  16.113  0.00  0.00    +0.000 C 
ATOM      3  N   UNL     1       4.808   5.039  16.232  0.00  0.00    +0.000 NA
ATOM      4  C   UNL     1       4.991   4.108  17.349  0.00  0.00    +0.000 C 
ATOM      5  C   UNL     1       6.191   4.383  18.274  0.00  0.00    +0.000 C 
ATOM      6  C   UNL     1       6.814   5.734  18.155  0.00  0.00    +0.000 A 
ATOM      7  C   UNL     1       7.784   6.135  19.081  0.00  0.00    +0.000 A 
ATOM      8  F   UNL     1       8.113   5.317  20.091  0.00  0.00    +0.000 F 
ATOM      9  C   UNL     1       8.431   7.358  18.973  0.00  0.00    +0.000 A 
ATOM     10  C   UNL     1       8.116   8.208  17.917  0.00  0.00    +0.000 A 
ATOM     11  C   UNL     1       7.156   7.821  16.979  0.00  0.00    +0.000 A 
ATOM     12  C   UNL     1       6.499   6.585  17.098  0.00  0.00    +0.000 A 
ATOM     13  H   UNL     1       4.348   6.571  14.551  0.00  0.00    +0.000 HD
ATOM     14  H   UNL     1       5.263   7.889  15.070  0.00  0.00    +0.000 HD
ENDROOT
BRANCH   4  15
ATOM     15  C   UNL     1       3.733   3.931  18.193  0.00  0.00    +0.000 A 
ATOM     16  C   UNL     1       3.741   4.358  19.536  0.00  0.00    +0.000 A 
ATOM     17  C   UNL     1       2.567   4.356  20.288  0.00  0.00    +0.000 A 
ATOM     18  C   UNL     1       1.385   3.915  19.707  0.00  0.00    +0.000 A 
ATOM     19  F   UNL     1       0.250   3.947  20.417  0.00  0.00    +0.000 F 
ATOM     20  C   UNL     1       1.361   3.456  18.395  0.00  0.00    +0.000 A 
ATOM     21  C   UNL     1       2.534   3.463  17.638  0.00  0.00    +0.000 A 
ENDBRANCH   4  15
TORSDOF 1
ENDMDL
MODEL 8
REMARK VINA RESULT:      -7.7      1.802      6.070
REMARK  Name = 
REMARK  1 active torsions:
REMARK  status: ('A' for Active; 'I' for Inactive)
REMARK    1  A    between atoms: C_4  and  C_5
REMARK                            x       y       z     vdW  Elec       q    Type
REMARK                         _______ _______ _______ _____ _____    ______ ____
ROOT
ATOM      1  N   UNL     1       5.051   6.973  15.113  0.00  0.00    +0.000 N 
ATOM      2  C   UNL     1       5.412   6.191  16.176  0.00  0.00    +0.000 C 
ATOM      3  N   UNL     1       4.780   5.069  16.283  0.00  0.00    +0.000 NA
ATOM      4  C   UNL     1       5.049   4.104  17.352  0.00  0.00    +0.000 C 
ATOM      5  C   UNL     1       6.283   4.384  18.228  0.00  0.00    +0.000 C 
ATOM      6  C   UNL     1       6.855   5.760  18.133  0.00  0.00    +0.000 A 
ATOM      7  C   UNL     1       7.856   6.158  19.027  0.00  0.00    +0.000 A 
ATOM      8  F   UNL     1       8.261   5.314  19.986  0.00  0.00    +0.000 F 
ATOM      9  C   UNL     1       8.456   7.406  18.937  0.00  0.00    +0.000 A 
ATOM     10  C   UNL     1       8.061   8.284  17.932  0.00  0.00    +0.000 A 
ATOM     11  C   UNL     1       7.069   7.901  17.026  0.00  0.00    +0.000 A 
ATOM     12  C   UNL     1       6.460   6.639  17.128  0.00  0.00    +0.000 A 
ATOM     13  H   UNL     1       4.187   6.648  14.689  0.00  0.00    +0.000 HD
ATOM     14  H   UNL     1       5.083   7.976  15.216  0.00  0.00    +0.000 HD
ENDROOT
BRANCH   4  15
ATOM     15  C   UNL     1       3.841   3.850  18.248  0.00  0.00    +0.000 A 
ATOM     16  C   UNL     1       2.548   4.100  17.745  0.00  0.00    +0.000 A 
ATOM     17  C   UNL     1       1.418   3.734  18.476  0.00  0.00    +0.000 A 
ATOM     18  C   UNL     1       1.576   3.129  19.716  0.00  0.00    +0.000 A 
ATOM     19  F   UNL     1       0.492   2.744  20.402  0.00  0.00    +0.000 F 
ATOM     20  C   UNL     1       2.840   2.905  20.248  0.00  0.00    +0.000 A 
ATOM     21  C   UNL     1       3.972   3.265  19.515  0.00  0.00    +0.000 A 
ENDBRANCH   4  15
TORSDOF 1
ENDMDL
MODEL 9
REMARK VINA RESULT:      -7.7      3.564      4.405
REMARK  Name = 
REMARK  1 active torsions:
REMARK  status: ('A' for Active; 'I' for Inactive)
REMARK    1  A    between atoms: C_4  and  C_5
REMARK                            x       y       z     vdW  Elec       q    Type
REMARK                         _______ _______ _______ _____ _____    ______ ____
ROOT
ATOM      1  N   UNL     1       3.303   7.241  17.777  0.00  0.00    +0.000 N 
ATOM      2  C   UNL     1       3.863   6.018  17.527  0.00  0.00    +0.000 C 
ATOM      3  N   UNL     1       5.050   6.043  17.017  0.00  0.00    +0.000 NA
ATOM      4  C   UNL     1       5.805   4.827  16.699  0.00  0.00    +0.000 C 
ATOM      5  C   UNL     1       5.209   3.503  17.208  0.00  0.00    +0.000 C 
ATOM      6  C   UNL     1       3.782   3.552  17.645  0.00  0.00    +0.000 A 
ATOM      7  C   UNL     1       3.107   2.364  17.944  0.00  0.00    +0.000 A 
ATOM      8  F   UNL     1       3.735   1.189  17.793  0.00  0.00    +0.000 F 
ATOM      9  C   UNL     1       1.799   2.368  18.411  0.00  0.00    +0.000 A 
ATOM     10  C   UNL     1       1.142   3.580  18.593  0.00  0.00    +0.000 A 
ATOM     11  C   UNL     1       1.803   4.777  18.308  0.00  0.00    +0.000 A 
ATOM     12  C   UNL     1       3.124   4.766  17.828  0.00  0.00    +0.000 A 
ATOM     13  H   UNL     1       3.820   7.987  17.323  0.00  0.00    +0.000 HD
ATOM     14  H   UNL     1       2.303   7.344  17.682  0.00  0.00    +0.000 HD
ENDROOT
BRANCH   4  15
ATOM     15  C   UNL     1       6.134   4.697  15.216  0.00  0.00    +0.000 A 
ATOM     16  C   UNL     1       7.310   5.293  14.717  0.00  0.00    +0.000 A 
ATOM     17  C   UNL     1       7.721   5.064  13.405  0.00  0.00    +0.000 A 
ATOM     18  C   UNL     1       6.954   4.249  12.583  0.00  0.00    +0.000 A 
ATOM     19  F   UNL     1       7.367   3.999  11.334  0.00  0.00    +0.000 F 
ATOM     20  C   UNL     1       5.772   3.679  13.041  0.00  0.00    +0.000 A 
ATOM     21  C   UNL     1       5.361   3.903  14.357  0.00  0.00    +0.000 A 
ENDBRANCH   4  15
TORSDOF 1
ENDMDL
