MODEL 1
REMARK VINA RESULT:      -7.5      0.000      0.000
REMARK  Name = 
REMARK  1 active torsions:
REMARK  status: ('A' for Active; 'I' for Inactive)
REMARK    1  A    between atoms: C_4  and  C_5
REMARK                            x       y       z     vdW  Elec       q    Type
REMARK                         _______ _______ _______ _____ _____    ______ ____
ROOT
ATOM      1  O   UNL     1       0.709   3.968  17.375  0.00  0.00    +0.000 OA
ATOM      2  C   UNL     1       1.577   3.275  17.847  0.00  0.00    +0.000 C 
ATOM      3  C   UNL     1       3.043   3.144  17.399  0.00  0.00    +0.000 C 
ATOM      4  C   UNL     1       3.834   4.189  17.013  0.00  0.00    +0.000 C 
ATOM      5  N   UNL     1       3.633   2.207  18.236  0.00  0.00    +0.000 NA
ATOM      6  C   UNL     1       2.948   2.406  19.283  0.00  0.00    +0.000 C 
ATOM      7  C   UNL     1       3.503   2.924  20.549  0.00  0.00    +0.000 C 
ATOM      8  C   UNL     1       2.647   3.094  21.555  0.00  0.00    +0.000 C 
ATOM      9  C   UNL     1       1.283   2.616  21.409  0.00  0.00    +0.000 C 
ATOM     10  C   UNL     1       0.766   2.560  20.169  0.00  0.00    +0.000 C 
ATOM     11  N   UNL     1       1.637   2.660  19.102  0.00  0.00    +0.000 N 
ENDROOT
BRANCH   4  12
ATOM     12  C   UNL     1       5.210   4.315  17.660  0.00  0.00    +0.000 A 
ATOM     13  C   UNL     1       5.348   4.773  19.001  0.00  0.00    +0.000 A 
ATOM     14  C   UNL     1       6.379   5.662  19.338  0.00  0.00    +0.000 A 
ATOM     15  C   UNL     1       7.390   5.926  18.422  0.00  0.00    +0.000 A 
ATOM     16 CL   UNL     1       8.474   7.239  18.692  0.00  0.00    +0.000 Cl
ATOM     17  C   UNL     1       7.420   5.244  17.208  0.00  0.00    +0.000 A 
ATOM     18  C   UNL     1       6.322   4.438  16.824  0.00  0.00    +0.000 A 
ENDBRANCH   4  12
TORSDOF 1
ENDMDL
MODEL 2
REMARK VINA RESULT:      -7.4      1.567      1.736
REMARK  Name = 
REMARK  1 active torsions:
REMARK  status: ('A' for Active; 'I' for Inactive)
REMARK    1  A    between atoms: C_4  and  C_5
REMARK                            x       y       z     vdW  Elec       q    Type
REMARK                         _______ _______ _______ _____ _____    ______ ____
ROOT
ATOM      1  O   UNL     1       2.366   2.037  16.903  0.00  0.00    +0.000 OA
ATOM      2  C   UNL     1       2.887   2.388  17.934  0.00  0.00    +0.000 C 
ATOM      3  C   UNL     1       4.292   2.981  18.140  0.00  0.00    +0.000 C 
ATOM      4  C   UNL     1       4.874   3.905  17.319  0.00  0.00    +0.000 C 
ATOM      5  N   UNL     1       4.436   3.197  19.504  0.00  0.00    +0.000 NA
ATOM      6  C   UNL     1       3.226   3.428  19.805  0.00  0.00    +0.000 C 
ATOM      7  C   UNL     1       2.733   4.723  20.313  0.00  0.00    +0.000 C 
ATOM      8  C   UNL     1       1.428   4.811  20.567  0.00  0.00    +0.000 C 
ATOM      9  C   UNL     1       0.613   3.610  20.493  0.00  0.00    +0.000 C 
ATOM     10  C   UNL     1       1.010   2.631  19.659  0.00  0.00    +0.000 C 
ATOM     11  N   UNL     1       2.299   2.686  19.168  0.00  0.00    +0.000 N 
ENDROOT
BRANCH   4  12
ATOM     12  C   UNL     1       5.470   5.152  17.964  0.00  0.00    +0.000 A 
ATOM     13  C   UNL     1       4.971   6.448  17.649  0.00  0.00    +0.000 A 
ATOM     14  C   UNL     1       5.858   7.519  17.468  0.00  0.00    +0.000 A 
ATOM     15  C   UNL     1       7.198   7.370  17.807  0.00  0.00    +0.000 A 
ATOM     16 CL   UNL     1       8.349   8.550  17.300  0.00  0.00    +0.000 Cl
ATOM     17  C   UNL     1       7.635   6.188  18.400  0.00  0.00    +0.000 A 
ATOM     18  C   UNL     1       6.768   5.073  18.475  0.00  0.00    +0.000 A 
ENDBRANCH   4  12
TORSDOF 1
ENDMDL
MODEL 3
REMARK VINA RESULT:      -7.4      2.484      3.216
REMARK  Name = 
REMARK  1 active torsions:
REMARK  status: ('A' for Active; 'I' for Inactive)
REMARK    1  A    between atoms: C_4  and  C_5
REMARK                            x       y       z     vdW  Elec       q    Type
REMARK                         _______ _______ _______ _____ _____    ______ ____
ROOT
ATOM      1  O   UNL     1       2.120   5.050  21.234  0.00  0.00    +0.000 OA
ATOM      2  C   UNL     1       2.124   5.069  20.027  0.00  0.00    +0.000 C 
ATOM      3  C   UNL     1       2.951   5.965  19.089  0.00  0.00    +0.000 C 
ATOM      4  C   UNL     1       4.265   6.287  19.280  0.00  0.00    +0.000 C 
ATOM      5  N   UNL     1       2.586   5.629  17.792  0.00  0.00    +0.000 NA
ATOM      6  C   UNL     1       2.298   4.407  17.971  0.00  0.00    +0.000 C 
ATOM      7  C   UNL     1       3.036   3.285  17.358  0.00  0.00    +0.000 C 
ATOM      8  C   UNL     1       2.618   2.056  17.658  0.00  0.00    +0.000 C 
ATOM      9  C   UNL     1       1.389   1.895  18.415  0.00  0.00    +0.000 C 
ATOM     10  C   UNL     1       1.033   2.884  19.255  0.00  0.00    +0.000 C 
ATOM     11  N   UNL     1       1.671   4.101  19.124  0.00  0.00    +0.000 N 
ENDROOT
BRANCH   4  12
ATOM     12  C   UNL     1       5.223   6.087  18.109  0.00  0.00    +0.000 A 
ATOM     13  C   UNL     1       5.010   6.752  16.869  0.00  0.00    +0.000 A 
ATOM     14  C   UNL     1       5.217   6.070  15.660  0.00  0.00    +0.000 A 
ATOM     15  C   UNL     1       5.834   4.825  15.668  0.00  0.00    +0.000 A 
ATOM     16 CL   UNL     1       5.808   3.844  14.250  0.00  0.00    +0.000 Cl
ATOM     17  C   UNL     1       6.317   4.298  16.864  0.00  0.00    +0.000 A 
ATOM     18  C   UNL     1       6.006   4.931  18.090  0.00  0.00    +0.000 A 
ENDBRANCH   4  12
TORSDOF 1
ENDMDL
MODEL 4
REMARK VINA RESULT:      -7.3      3.555      6.242
REMARK  Name = 
REMARK  1 active torsions:
REMARK  status: ('A' for Active; 'I' for Inactive)
REMARK    1  A    between atoms: C_4  and  C_5
REMARK                            x       y       z     vdW  Elec       q    Type
REMARK                         _______ _______ _______ _____ _____    ______ ____
ROOT
ATOM      1  O   UNL     1       7.117   7.522  16.713  0.00  0.00    +0.000 OA
ATOM      2  C   UNL     1       7.088   6.315  16.738  0.00  0.00    +0.000 C 
ATOM      3  C   UNL     1       6.473   5.398  17.810  0.00  0.00    +0.000 C 
ATOM      4  C   UNL     1       5.278   5.622  18.432  0.00  0.00    +0.000 C 
ATOM      5  N   UNL     1       6.716   4.093  17.403  0.00  0.00    +0.000 NA
ATOM      6  C   UNL     1       6.711   4.264  16.147  0.00  0.00    +0.000 C 
ATOM      7  C   UNL     1       5.713   3.672  15.235  0.00  0.00    +0.000 C 
ATOM      8  C   UNL     1       5.836   3.962  13.940  0.00  0.00    +0.000 C 
ATOM      9  C   UNL     1       7.011   4.688  13.489  0.00  0.00    +0.000 C 
ATOM     10  C   UNL     1       7.612   5.518  14.362  0.00  0.00    +0.000 C 
ATOM     11  N   UNL     1       7.277   5.401  15.696  0.00  0.00    +0.000 N 
ENDROOT
BRANCH   4  12
ATOM     12  C   UNL     1       4.271   4.476  18.470  0.00  0.00    +0.000 A 
ATOM     13  C   UNL     1       3.065   4.538  17.716  0.00  0.00    +0.000 A 
ATOM     14  C   UNL     1       1.861   4.088  18.277  0.00  0.00    +0.000 A 
ATOM     15  C   UNL     1       1.877   3.387  19.477  0.00  0.00    +0.000 A 
ATOM     16 CL   UNL     1       0.405   3.111  20.331  0.00  0.00    +0.000 Cl
ATOM     17  C   UNL     1       3.094   3.063  20.073  0.00  0.00    +0.000 A 
ATOM     18  C   UNL     1       4.295   3.614  19.569  0.00  0.00    +0.000 A 
ENDBRANCH   4  12
TORSDOF 1
ENDMDL
MODEL 5
REMARK VINA RESULT:      -7.3      2.508      3.398
REMARK  Name = 
REMARK  1 active torsions:
REMARK  status: ('A' for Active; 'I' for Inactive)
REMARK    1  A    between atoms: C_4  and  C_5
REMARK                            x       y       z     vdW  Elec       q    Type
REMARK                         _______ _______ _______ _____ _____    ______ ____
ROOT
ATOM      1  O   UNL     1       4.764   2.052  20.591  0.00  0.00    +0.000 OA
ATOM      2  C   UNL     1       4.327   3.081  20.135  0.00  0.00    +0.000 C 
ATOM      3  C   UNL     1       5.070   4.158  19.325  0.00  0.00    +0.000 C 
ATOM      4  C   UNL     1       5.986   3.900  18.345  0.00  0.00    +0.000 C 
ATOM      5  N   UNL     1       4.146   5.157  19.051  0.00  0.00    +0.000 NA
ATOM      6  C   UNL     1       3.092   4.455  19.004  0.00  0.00    +0.000 C 
ATOM      7  C   UNL     1       2.276   4.270  17.788  0.00  0.00    +0.000 C 
ATOM      8  C   UNL     1       1.203   3.486  17.897  0.00  0.00    +0.000 C 
ATOM      9  C   UNL     1       0.812   3.007  19.212  0.00  0.00    +0.000 C 
ATOM     10  C   UNL     1       1.776   2.859  20.140  0.00  0.00    +0.000 C 
ATOM     11  N   UNL     1       2.999   3.451  19.898  0.00  0.00    +0.000 N 
ENDROOT
BRANCH   4  12
ATOM     12  C   UNL     1       5.806   4.602  17.002  0.00  0.00    +0.000 A 
ATOM     13  C   UNL     1       5.194   3.934  15.905  0.00  0.00    +0.000 A 
ATOM     14  C   UNL     1       5.714   4.083  14.611  0.00  0.00    +0.000 A 
ATOM     15  C   UNL     1       6.686   5.046  14.365  0.00  0.00    +0.000 A 
ATOM     16 CL   UNL     1       7.555   5.030  12.876  0.00  0.00    +0.000 Cl
ATOM     17  C   UNL     1       7.077   5.912  15.384  0.00  0.00    +0.000 A 
ATOM     18  C   UNL     1       6.638   5.685  16.709  0.00  0.00    +0.000 A 
ENDBRANCH   4  12
TORSDOF 1
ENDMDL
MODEL 6
REMARK VINA RESULT:      -7.3      1.765      2.213
REMARK  Name = 
REMARK  1 active torsions:
REMARK  status: ('A' for Active; 'I' for Inactive)
REMARK    1  A    between atoms: C_4  and  C_5
REMARK                            x       y       z     vdW  Elec       q    Type
REMARK                         _______ _______ _______ _____ _____    ______ ____
ROOT
ATOM      1  O   UNL     1       1.397   2.542  17.881  0.00  0.00    +0.000 OA
ATOM      2  C   UNL     1       2.386   3.014  18.387  0.00  0.00    +0.000 C 
ATOM      3  C   UNL     1       3.821   3.041  17.834  0.00  0.00    +0.000 C 
ATOM      4  C   UNL     1       4.148   3.291  16.531  0.00  0.00    +0.000 C 
ATOM      5  N   UNL     1       4.605   3.669  18.792  0.00  0.00    +0.000 NA
ATOM      6  C   UNL     1       3.738   4.447  19.290  0.00  0.00    +0.000 C 
ATOM      7  C   UNL     1       3.804   5.920  19.211  0.00  0.00    +0.000 C 
ATOM      8  C   UNL     1       2.803   6.597  19.772  0.00  0.00    +0.000 C 
ATOM      9  C   UNL     1       1.815   5.875  20.555  0.00  0.00    +0.000 C 
ATOM     10  C   UNL     1       1.582   4.588  20.241  0.00  0.00    +0.000 C 
ATOM     11  N   UNL     1       2.492   3.950  19.422  0.00  0.00    +0.000 N 
ENDROOT
BRANCH   4  12
ATOM     12  C   UNL     1       5.213   4.348  16.255  0.00  0.00    +0.000 A 
ATOM     13  C   UNL     1       6.590   4.077  16.494  0.00  0.00    +0.000 A 
ATOM     14  C   UNL     1       7.410   5.056  17.073  0.00  0.00    +0.000 A 
ATOM     15  C   UNL     1       6.938   6.356  17.214  0.00  0.00    +0.000 A 
ATOM     16 CL   UNL     1       7.797   7.480  18.200  0.00  0.00    +0.000 Cl
ATOM     17  C   UNL     1       5.687   6.698  16.705  0.00  0.00    +0.000 A 
ATOM     18  C   UNL     1       4.820   5.688  16.228  0.00  0.00    +0.000 A 
ENDBRANCH   4  12
TORSDOF 1
ENDMDL
MODEL 7
REMARK VINA RESULT:      -7.1      2.304      2.739
REMARK  Name = 
REMARK  1 active torsions:
REMARK  status: ('A' for Active; 'I' for Inactive)
REMARK    1  A    between atoms: C_4  and  C_5
REMARK                            x       y       z     vdW  Elec       q    Type
REMARK                         _______ _______ _______ _____ _____    ______ ____
ROOT
ATOM      1  O   UNL     1       2.036   6.748  20.169  0.00  0.00    +0.000 OA
ATOM      2  C   UNL     1       2.142   5.727  19.534  0.00  0.00    +0.000 C 
ATOM      3  C   UNL     1       2.719   5.536  18.121  0.00  0.00    +0.000 C 
ATOM      4  C   UNL     1       3.839   6.160  17.648  0.00  0.00    +0.000 C 
ATOM      5  N   UNL     1       2.599   4.186  17.820  0.00  0.00    +0.000 NA
ATOM      6  C   UNL     1       2.701   3.705  18.988  0.00  0.00    +0.000 C 
ATOM      7  C   UNL     1       3.811   2.839  19.432  0.00  0.00    +0.000 C 
ATOM      8  C   UNL     1       3.783   2.428  20.699  0.00  0.00    +0.000 C 
ATOM      9  C   UNL     1       2.607   2.708  21.505  0.00  0.00    +0.000 C 
ATOM     10  C   UNL     1       1.880   3.798  21.199  0.00  0.00    +0.000 C 
ATOM     11  N   UNL     1       2.105   4.400  19.977  0.00  0.00    +0.000 N 
ENDROOT
BRANCH   4  12
ATOM     12  C   UNL     1       4.911   5.295  16.992  0.00  0.00    +0.000 A 
ATOM     13  C   UNL     1       6.294   5.570  17.190  0.00  0.00    +0.000 A 
ATOM     14  C   UNL     1       7.191   5.474  16.117  0.00  0.00    +0.000 A 
ATOM     15  C   UNL     1       6.776   4.905  14.918  0.00  0.00    +0.000 A 
ATOM     16 CL   UNL     1       7.751   5.067  13.506  0.00  0.00    +0.000 Cl
ATOM     17  C   UNL     1       5.498   4.359  14.818  0.00  0.00    +0.000 A 
ATOM     18  C   UNL     1       4.561   4.559  15.857  0.00  0.00    +0.000 A 
ENDBRANCH   4  12
TORSDOF 1
ENDMDL
MODEL 8
REMARK VINA RESULT:      -7.0      2.571      3.165
REMARK  Name = 
REMARK  1 active torsions:
REMARK  status: ('A' for Active; 'I' for Inactive)
REMARK    1  A    between atoms: C_4  and  C_5
REMARK                            x       y       z     vdW  Elec       q    Type
REMARK                         _______ _______ _______ _____ _____    ______ ____
ROOT
ATOM      1  O   UNL     1       2.196   2.090  19.366  0.00  0.00    +0.000 OA
ATOM      2  C   UNL     1       2.987   2.978  19.572  0.00  0.00    +0.000 C 
ATOM      3  C   UNL     1       4.360   3.205  18.915  0.00  0.00    +0.000 C 
ATOM      4  C   UNL     1       4.624   3.031  17.586  0.00  0.00    +0.000 C 
ATOM      5  N   UNL     1       4.899   4.342  19.502  0.00  0.00    +0.000 NA
ATOM      6  C   UNL     1       3.827   4.966  19.763  0.00  0.00    +0.000 C 
ATOM      7  C   UNL     1       3.451   6.255  19.149  0.00  0.00    +0.000 C 
ATOM      8  C   UNL     1       2.282   6.777  19.516  0.00  0.00    +0.000 C 
ATOM      9  C   UNL     1       1.538   6.151  20.596  0.00  0.00    +0.000 C 
ATOM     10  C   UNL     1       1.709   4.831  20.794  0.00  0.00    +0.000 C 
ATOM     11  N   UNL     1       2.786   4.221  20.181  0.00  0.00    +0.000 N 
ENDROOT
BRANCH   4  12
ATOM     12  C   UNL     1       5.330   4.164  16.848  0.00  0.00    +0.000 A 
ATOM     13  C   UNL     1       4.701   4.828  15.757  0.00  0.00    +0.000 A 
ATOM     14  C   UNL     1       5.444   5.166  14.616  0.00  0.00    +0.000 A 
ATOM     15  C   UNL     1       6.829   5.050  14.635  0.00  0.00    +0.000 A 
ATOM     16 CL   UNL     1       7.721   5.152  13.163  0.00  0.00    +0.000 Cl
ATOM     17  C   UNL     1       7.477   4.681  15.812  0.00  0.00    +0.000 A 
ATOM     18  C   UNL     1       6.723   4.231  16.921  0.00  0.00    +0.000 A 
ENDBRANCH   4  12
TORSDOF 1
ENDMDL
MODEL 9
REMARK VINA RESULT:      -7.0      3.163      5.355
REMARK  Name = 
REMARK  1 active torsions:
REMARK  status: ('A' for Active; 'I' for Inactive)
REMARK    1  A    between atoms: C_4  and  C_5
REMARK                            x       y       z     vdW  Elec       q    Type
REMARK                         _______ _______ _______ _____ _____    ______ ____
ROOT
ATOM      1  O   UNL     1       2.722   8.376  17.296  0.00  0.00    +0.000 OA
ATOM      2  C   UNL     1       3.397   7.486  17.755  0.00  0.00    +0.000 C 
ATOM      3  C   UNL     1       3.090   6.579  18.960  0.00  0.00    +0.000 C 
ATOM      4  C   UNL     1       1.866   6.038  19.233  0.00  0.00    +0.000 C 
ATOM      5  N   UNL     1       4.181   5.733  19.108  0.00  0.00    +0.000 NA
ATOM      6  C   UNL     1       4.547   5.655  17.897  0.00  0.00    +0.000 C 
ATOM      7  C   UNL     1       4.517   4.412  17.102  0.00  0.00    +0.000 C 
ATOM      8  C   UNL     1       4.921   4.499  15.836  0.00  0.00    +0.000 C 
ATOM      9  C   UNL     1       5.510   5.741  15.368  0.00  0.00    +0.000 C 
ATOM     10  C   UNL     1       5.130   6.884  15.969  0.00  0.00    +0.000 C 
ATOM     11  N   UNL     1       4.458   6.786  17.170  0.00  0.00    +0.000 N 
ENDROOT
BRANCH   4  12
ATOM     12  C   UNL     1       1.798   4.539  19.507  0.00  0.00    +0.000 A 
ATOM     13  C   UNL     1       2.553   3.953  20.562  0.00  0.00    +0.000 A 
ATOM     14  C   UNL     1       3.196   2.721  20.367  0.00  0.00    +0.000 A 
ATOM     15  C   UNL     1       2.921   1.971  19.230  0.00  0.00    +0.000 A 
ATOM     16 CL   UNL     1       3.924   0.629  18.822  0.00  0.00    +0.000 Cl
ATOM     17  C   UNL     1       1.949   2.406  18.332  0.00  0.00    +0.000 A 
ATOM     18  C   UNL     1       1.389   3.698  18.469  0.00  0.00    +0.000 A 
ENDBRANCH   4  12
TORSDOF 1
ENDMDL
