MODEL 1
REMARK VINA RESULT:      -7.0      0.000      0.000
REMARK  Name = 
REMARK  6 active torsions:
REMARK  status: ('A' for Active; 'I' for Inactive)
REMARK    1  A    between atoms: C_1  and  C_2
REMARK    2  A    between atoms: C_7  and  S_8
REMARK    3  A    between atoms: S_8  and  C_9
REMARK    4  A    between atoms: C_9  and  C_10
REMARK    5  A    between atoms: N_12  and  C_13
REMARK    6  A    between atoms: C_13  and  C_14
REMARK                            x       y       z     vdW  Elec       q    Type
REMARK                         _______ _______ _______ _____ _____    ______ ____
ROOT
ATOM      1  C   UNL     1      -0.210   9.396  21.891  0.00  0.00    +0.000 C 
ATOM      2  C   UNL     1       0.683   8.576  21.010  0.00  0.00    +0.000 A 
ATOM      3  C   UNL     1       1.005   7.225  21.417  0.00  0.00    +0.000 A 
ATOM      4  C   UNL     1       1.801   6.456  20.666  0.00  0.00    +0.000 A 
ATOM      5  C   UNL     1       2.361   6.994  19.401  0.00  0.00    +0.000 A 
ATOM      6  N   UNL     1       3.128   6.253  18.682  0.00  0.00    +0.000 NA
ATOM      7  C   UNL     1       3.620   6.795  17.542  0.00  0.00    +0.000 A 
ATOM      8  N   UNL     1       3.359   7.980  17.121  0.00  0.00    +0.000 NA
ATOM      9  C   UNL     1       2.519   8.769  17.858  0.00  0.00    +0.000 A 
ATOM     10  O   UNL     1       2.216   9.886  17.439  0.00  0.00    +0.000 OA
ATOM     11  N   UNL     1       2.025   8.276  19.056  0.00  0.00    +0.000 N 
ATOM     12  C   UNL     1       1.196   9.049  19.861  0.00  0.00    +0.000 A 
ENDROOT
BRANCH   7  13
ATOM     13  S   UNL     1       4.652   5.747  16.592  0.00  0.00    +0.000 S 
BRANCH  13  14
ATOM     14  C   UNL     1       6.094   5.602  17.672  0.00  0.00    +0.000 C 
BRANCH  14  15
ATOM     15  C   UNL     1       5.800   4.708  18.862  0.00  0.00    +0.000 C 
ATOM     16  O   UNL     1       6.342   4.868  19.954  0.00  0.00    +0.000 OA
ATOM     17  N   UNL     1       4.882   3.706  18.633  0.00  0.00    +0.000 N 
ATOM     18  H   UNL     1       4.659   3.454  17.672  0.00  0.00    +0.000 HD
BRANCH  17  19
ATOM     19  C   UNL     1       4.633   2.734  19.670  0.00  0.00    +0.000 C 
BRANCH  19  20
ATOM     20  C   UNL     1       3.234   2.828  20.147  0.00  0.00    +0.000 A 
ATOM     21  C   UNL     1       2.658   2.744  21.398  0.00  0.00    +0.000 A 
ATOM     22  C   UNL     1       1.260   2.842  21.203  0.00  0.00    +0.000 A 
ATOM     23  C   UNL     1       1.072   2.994  19.850  0.00  0.00    +0.000 A 
ATOM     24  O   UNL     1       2.264   2.981  19.198  0.00  0.00    +0.000 OA
ENDBRANCH  19  20
ENDBRANCH  17  19
ENDBRANCH  14  15
ENDBRANCH  13  14
ENDBRANCH   7  13
TORSDOF 5
ENDMDL
MODEL 2
REMARK VINA RESULT:      -6.8      2.247      4.267
REMARK  Name = 
REMARK  6 active torsions:
REMARK  status: ('A' for Active; 'I' for Inactive)
REMARK    1  A    between atoms: C_1  and  C_2
REMARK    2  A    between atoms: C_7  and  S_8
REMARK    3  A    between atoms: S_8  and  C_9
REMARK    4  A    between atoms: C_9  and  C_10
REMARK    5  A    between atoms: N_12  and  C_13
REMARK    6  A    between atoms: C_13  and  C_14
REMARK                            x       y       z     vdW  Elec       q    Type
REMARK                         _______ _______ _______ _____ _____    ______ ____
ROOT
ATOM      1  C   UNL     1      -0.251  12.717  20.521  0.00  0.00    +0.000 C 
ATOM      2  C   UNL     1       0.249  11.305  20.581  0.00  0.00    +0.000 A 
ATOM      3  C   UNL     1       0.095  10.569  21.817  0.00  0.00    +0.000 A 
ATOM      4  C   UNL     1       0.529   9.308  21.921  0.00  0.00    +0.000 A 
ATOM      5  C   UNL     1       1.177   8.656  20.755  0.00  0.00    +0.000 A 
ATOM      6  N   UNL     1       1.596   7.444  20.859  0.00  0.00    +0.000 NA
ATOM      7  C   UNL     1       2.187   6.899  19.768  0.00  0.00    +0.000 A 
ATOM      8  N   UNL     1       2.340   7.496  18.641  0.00  0.00    +0.000 NA
ATOM      9  C   UNL     1       1.870   8.774  18.505  0.00  0.00    +0.000 A 
ATOM     10  O   UNL     1       1.960   9.337  17.415  0.00  0.00    +0.000 OA
ATOM     11  N   UNL     1       1.297   9.392  19.606  0.00  0.00    +0.000 N 
ATOM     12  C   UNL     1       0.836  10.702  19.533  0.00  0.00    +0.000 A 
ENDROOT
BRANCH   7  13
ATOM     13  S   UNL     1       2.734   5.247  19.953  0.00  0.00    +0.000 S 
BRANCH  13  14
ATOM     14  C   UNL     1       2.263   4.541  18.356  0.00  0.00    +0.000 C 
BRANCH  14  15
ATOM     15  C   UNL     1       3.465   4.406  17.441  0.00  0.00    +0.000 C 
ATOM     16  O   UNL     1       3.793   3.332  16.941  0.00  0.00    +0.000 OA
ATOM     17  N   UNL     1       4.161   5.573  17.208  0.00  0.00    +0.000 N 
ATOM     18  H   UNL     1       4.014   6.366  17.829  0.00  0.00    +0.000 HD
BRANCH  17  19
ATOM     19  C   UNL     1       5.387   5.517  16.449  0.00  0.00    +0.000 C 
BRANCH  19  20
ATOM     20  C   UNL     1       6.487   6.182  17.185  0.00  0.00    +0.000 A 
ATOM     21  C   UNL     1       7.310   5.778  18.215  0.00  0.00    +0.000 A 
ATOM     22  C   UNL     1       8.124   6.890  18.539  0.00  0.00    +0.000 A 
ATOM     23  C   UNL     1       7.755   7.896  17.677  0.00  0.00    +0.000 A 
ATOM     24  O   UNL     1       6.758   7.479  16.854  0.00  0.00    +0.000 OA
ENDBRANCH  19  20
ENDBRANCH  17  19
ENDBRANCH  14  15
ENDBRANCH  13  14
ENDBRANCH   7  13
TORSDOF 5
ENDMDL
MODEL 3
REMARK VINA RESULT:      -6.8      2.237      4.099
REMARK  Name = 
REMARK  6 active torsions:
REMARK  status: ('A' for Active; 'I' for Inactive)
REMARK    1  A    between atoms: C_1  and  C_2
REMARK    2  A    between atoms: C_7  and  S_8
REMARK    3  A    between atoms: S_8  and  C_9
REMARK    4  A    between atoms: C_9  and  C_10
REMARK    5  A    between atoms: N_12  and  C_13
REMARK    6  A    between atoms: C_13  and  C_14
REMARK                            x       y       z     vdW  Elec       q    Type
REMARK                         _______ _______ _______ _____ _____    ______ ____
ROOT
ATOM      1  C   UNL     1       0.038  12.193  21.235  0.00  0.00    +0.000 C 
ATOM      2  C   UNL     1       0.496  10.792  20.964  0.00  0.00    +0.000 A 
ATOM      3  C   UNL     1       0.381   9.811  22.020  0.00  0.00    +0.000 A 
ATOM      4  C   UNL     1       0.780   8.548  21.828  0.00  0.00    +0.000 A 
ATOM      5  C   UNL     1       1.349   8.150  20.516  0.00  0.00    +0.000 A 
ATOM      6  N   UNL     1       1.734   6.936  20.334  0.00  0.00    +0.000 NA
ATOM      7  C   UNL     1       2.253   6.627  19.121  0.00  0.00    +0.000 A 
ATOM      8  N   UNL     1       2.368   7.450  18.141  0.00  0.00    +0.000 NA
ATOM      9  C   UNL     1       1.932   8.736  18.308  0.00  0.00    +0.000 A 
ATOM     10  O   UNL     1       1.985   9.519  17.360  0.00  0.00    +0.000 OA
ATOM     11  N   UNL     1       1.434   9.113  19.545  0.00  0.00    +0.000 N 
ATOM     12  C   UNL     1       1.011  10.417  19.780  0.00  0.00    +0.000 A 
ENDROOT
BRANCH   7  13
ATOM     13  S   UNL     1       2.756   4.963  18.918  0.00  0.00    +0.000 S 
BRANCH  13  14
ATOM     14  C   UNL     1       4.246   4.919  19.942  0.00  0.00    +0.000 C 
BRANCH  14  15
ATOM     15  C   UNL     1       5.481   5.250  19.127  0.00  0.00    +0.000 C 
ATOM     16  O   UNL     1       6.615   5.192  19.599  0.00  0.00    +0.000 OA
ATOM     17  N   UNL     1       5.243   5.618  17.820  0.00  0.00    +0.000 N 
ATOM     18  H   UNL     1       4.302   5.897  17.551  0.00  0.00    +0.000 HD
BRANCH  17  19
ATOM     19  C   UNL     1       6.347   6.069  17.007  0.00  0.00    +0.000 C 
BRANCH  19  20
ATOM     20  C   UNL     1       6.379   5.338  15.719  0.00  0.00    +0.000 A 
ATOM     21  C   UNL     1       5.554   4.388  15.155  0.00  0.00    +0.000 A 
ATOM     22  C   UNL     1       6.150   4.017  13.926  0.00  0.00    +0.000 A 
ATOM     23  C   UNL     1       7.292   4.775  13.812  0.00  0.00    +0.000 A 
ATOM     24  O   UNL     1       7.444   5.576  14.898  0.00  0.00    +0.000 OA
ENDBRANCH  19  20
ENDBRANCH  17  19
ENDBRANCH  14  15
ENDBRANCH  13  14
ENDBRANCH   7  13
TORSDOF 5
ENDMDL
MODEL 4
REMARK VINA RESULT:      -6.7      1.411      2.250
REMARK  Name = 
REMARK  6 active torsions:
REMARK  status: ('A' for Active; 'I' for Inactive)
REMARK    1  A    between atoms: C_1  and  C_2
REMARK    2  A    between atoms: C_7  and  S_8
REMARK    3  A    between atoms: S_8  and  C_9
REMARK    4  A    between atoms: C_9  and  C_10
REMARK    5  A    between atoms: N_12  and  C_13
REMARK    6  A    between atoms: C_13  and  C_14
REMARK                            x       y       z     vdW  Elec       q    Type
REMARK                         _______ _______ _______ _____ _____    ______ ____
ROOT
ATOM      1  C   UNL     1      -0.568  10.918  20.827  0.00  0.00    +0.000 C 
ATOM      2  C   UNL     1       0.415  10.212  19.943  0.00  0.00    +0.000 A 
ATOM      3  C   UNL     1       0.895  10.894  18.761  0.00  0.00    +0.000 A 
ATOM      4  C   UNL     1       1.770  10.304  17.938  0.00  0.00    +0.000 A 
ATOM      5  C   UNL     1       2.251   8.933  18.240  0.00  0.00    +0.000 A 
ATOM      6  N   UNL     1       3.090   8.366  17.446  0.00  0.00    +0.000 NA
ATOM      7  C   UNL     1       3.491   7.111  17.764  0.00  0.00    +0.000 A 
ATOM      8  N   UNL     1       3.111   6.461  18.804  0.00  0.00    +0.000 NA
ATOM      9  C   UNL     1       2.245   7.062  19.675  0.00  0.00    +0.000 A 
ATOM     10  O   UNL     1       1.916   6.472  20.704  0.00  0.00    +0.000 OA
ATOM     11  N   UNL     1       1.771   8.329  19.373  0.00  0.00    +0.000 N 
ATOM     12  C   UNL     1       0.860   8.972  20.205  0.00  0.00    +0.000 A 
ENDROOT
BRANCH   7  13
ATOM     13  S   UNL     1       4.638   6.384  16.659  0.00  0.00    +0.000 S 
BRANCH  13  14
ATOM     14  C   UNL     1       5.840   5.682  17.814  0.00  0.00    +0.000 C 
BRANCH  14  15
ATOM     15  C   UNL     1       5.315   4.405  18.441  0.00  0.00    +0.000 C 
ATOM     16  O   UNL     1       5.815   3.916  19.453  0.00  0.00    +0.000 OA
ATOM     17  N   UNL     1       4.238   3.833  17.800  0.00  0.00    +0.000 N 
ATOM     18  H   UNL     1       4.025   4.119  16.846  0.00  0.00    +0.000 HD
BRANCH  17  19
ATOM     19  C   UNL     1       3.751   2.553  18.254  0.00  0.00    +0.000 C 
BRANCH  19  20
ATOM     20  C   UNL     1       2.666   2.729  19.246  0.00  0.00    +0.000 A 
ATOM     21  C   UNL     1       1.341   3.097  19.137  0.00  0.00    +0.000 A 
ATOM     22  C   UNL     1       0.831   3.157  20.456  0.00  0.00    +0.000 A 
ATOM     23  C   UNL     1       1.872   2.809  21.284  0.00  0.00    +0.000 A 
ATOM     24  O   UNL     1       2.993   2.553  20.560  0.00  0.00    +0.000 OA
ENDBRANCH  19  20
ENDBRANCH  17  19
ENDBRANCH  14  15
ENDBRANCH  13  14
ENDBRANCH   7  13
TORSDOF 5
ENDMDL
MODEL 5
REMARK VINA RESULT:      -6.6      2.400      4.271
REMARK  Name = 
REMARK  6 active torsions:
REMARK  status: ('A' for Active; 'I' for Inactive)
REMARK    1  A    between atoms: C_1  and  C_2
REMARK    2  A    between atoms: C_7  and  S_8
REMARK    3  A    between atoms: S_8  and  C_9
REMARK    4  A    between atoms: C_9  and  C_10
REMARK    5  A    between atoms: N_12  and  C_13
REMARK    6  A    between atoms: C_13  and  C_14
REMARK                            x       y       z     vdW  Elec       q    Type
REMARK                         _______ _______ _______ _____ _____    ______ ____
ROOT
ATOM      1  C   UNL     1      -1.023  11.443  22.804  0.00  0.00    +0.000 C 
ATOM      2  C   UNL     1      -0.257  10.429  22.010  0.00  0.00    +0.000 A 
ATOM      3  C   UNL     1       0.027   9.146  22.617  0.00  0.00    +0.000 A 
ATOM      4  C   UNL     1       0.711   8.210  21.950  0.00  0.00    +0.000 A 
ATOM      5  C   UNL     1       1.186   8.490  20.572  0.00  0.00    +0.000 A 
ATOM      6  N   UNL     1       1.846   7.588  19.934  0.00  0.00    +0.000 NA
ATOM      7  C   UNL     1       2.264   7.898  18.683  0.00  0.00    +0.000 A 
ATOM      8  N   UNL     1       2.032   9.012  18.087  0.00  0.00    +0.000 NA
ATOM      9  C   UNL     1       1.303   9.968  18.740  0.00  0.00    +0.000 A 
ATOM     10  O   UNL     1       1.026  11.017  18.160  0.00  0.00    +0.000 OA
ATOM     11  N   UNL     1       0.890   9.717  20.039  0.00  0.00    +0.000 N 
ATOM     12  C   UNL     1       0.178  10.668  20.762  0.00  0.00    +0.000 A 
ENDROOT
BRANCH   7  13
ATOM     13  S   UNL     1       3.151   6.639  17.851  0.00  0.00    +0.000 S 
BRANCH  13  14
ATOM     14  C   UNL     1       4.052   5.879  19.222  0.00  0.00    +0.000 C 
BRANCH  14  15
ATOM     15  C   UNL     1       5.334   5.226  18.741  0.00  0.00    +0.000 C 
ATOM     16  O   UNL     1       6.042   4.546  19.480  0.00  0.00    +0.000 OA
ATOM     17  N   UNL     1       5.645   5.447  17.417  0.00  0.00    +0.000 N 
ATOM     18  H   UNL     1       5.183   6.207  16.922  0.00  0.00    +0.000 HD
BRANCH  17  19
ATOM     19  C   UNL     1       6.906   4.967  16.905  0.00  0.00    +0.000 C 
BRANCH  19  20
ATOM     20  C   UNL     1       6.810   4.693  15.452  0.00  0.00    +0.000 A 
ATOM     21  C   UNL     1       6.009   3.857  14.703  0.00  0.00    +0.000 A 
ATOM     22  C   UNL     1       6.440   3.985  13.361  0.00  0.00    +0.000 A 
ATOM     23  C   UNL     1       7.466   4.901  13.375  0.00  0.00    +0.000 A 
ATOM     24  O   UNL     1       7.703   5.333  14.641  0.00  0.00    +0.000 OA
ENDBRANCH  19  20
ENDBRANCH  17  19
ENDBRANCH  14  15
ENDBRANCH  13  14
ENDBRANCH   7  13
TORSDOF 5
ENDMDL
MODEL 6
REMARK VINA RESULT:      -6.6      3.660      6.723
REMARK  Name = 
REMARK  6 active torsions:
REMARK  status: ('A' for Active; 'I' for Inactive)
REMARK    1  A    between atoms: C_1  and  C_2
REMARK    2  A    between atoms: C_7  and  S_8
REMARK    3  A    between atoms: S_8  and  C_9
REMARK    4  A    between atoms: C_9  and  C_10
REMARK    5  A    between atoms: N_12  and  C_13
REMARK    6  A    between atoms: C_13  and  C_14
REMARK                            x       y       z     vdW  Elec       q    Type
REMARK                         _______ _______ _______ _____ _____    ______ ____
ROOT
ATOM      1  C   UNL     1       1.173   2.542  21.972  0.00  0.00    +0.000 C 
ATOM      2  C   UNL     1       1.954   3.276  20.924  0.00  0.00    +0.000 A 
ATOM      3  C   UNL     1       2.064   4.715  21.025  0.00  0.00    +0.000 A 
ATOM      4  C   UNL     1       2.747   5.415  20.112  0.00  0.00    +0.000 A 
ATOM      5  C   UNL     1       3.398   4.707  18.981  0.00  0.00    +0.000 A 
ATOM      6  N   UNL     1       4.052   5.382  18.103  0.00  0.00    +0.000 NA
ATOM      7  C   UNL     1       4.620   4.689  17.087  0.00  0.00    +0.000 A 
ATOM      8  N   UNL     1       4.569   3.413  16.951  0.00  0.00    +0.000 NA
ATOM      9  C   UNL     1       3.905   2.677  17.895  0.00  0.00    +0.000 A 
ATOM     10  O   UNL     1       3.896   1.450  17.807  0.00  0.00    +0.000 OA
ATOM     11  N   UNL     1       3.269   3.344  18.930  0.00  0.00    +0.000 N 
ATOM     12  C   UNL     1       2.550   2.648  19.896  0.00  0.00    +0.000 A 
ENDROOT
BRANCH   7  13
ATOM     13  S   UNL     1       5.506   5.648  15.921  0.00  0.00    +0.000 S 
BRANCH  13  14
ATOM     14  C   UNL     1       5.682   7.211  16.814  0.00  0.00    +0.000 C 
BRANCH  14  15
ATOM     15  C   UNL     1       7.019   7.288  17.525  0.00  0.00    +0.000 C 
ATOM     16  O   UNL     1       7.555   6.301  18.026  0.00  0.00    +0.000 OA
ATOM     17  N   UNL     1       7.592   8.540  17.567  0.00  0.00    +0.000 N 
ATOM     18  H   UNL     1       7.011   9.354  17.375  0.00  0.00    +0.000 HD
BRANCH  17  19
ATOM     19  C   UNL     1       8.803   8.731  18.329  0.00  0.00    +0.000 C 
BRANCH  19  20
ATOM     20  C   UNL     1       8.963  10.154  18.708  0.00  0.00    +0.000 A 
ATOM     21  C   UNL     1       8.922  11.331  17.989  0.00  0.00    +0.000 A 
ATOM     22  C   UNL     1       9.219  12.370  18.903  0.00  0.00    +0.000 A 
ATOM     23  C   UNL     1       9.407  11.763  20.122  0.00  0.00    +0.000 A 
ATOM     24  O   UNL     1       9.260  10.417  20.014  0.00  0.00    +0.000 OA
ENDBRANCH  19  20
ENDBRANCH  17  19
ENDBRANCH  14  15
ENDBRANCH  13  14
ENDBRANCH   7  13
TORSDOF 5
ENDMDL
MODEL 7
REMARK VINA RESULT:      -6.5      3.569      7.680
REMARK  Name = 
REMARK  6 active torsions:
REMARK  status: ('A' for Active; 'I' for Inactive)
REMARK    1  A    between atoms: C_1  and  C_2
REMARK    2  A    between atoms: C_7  and  S_8
REMARK    3  A    between atoms: S_8  and  C_9
REMARK    4  A    between atoms: C_9  and  C_10
REMARK    5  A    between atoms: N_12  and  C_13
REMARK    6  A    between atoms: C_13  and  C_14
REMARK                            x       y       z     vdW  Elec       q    Type
REMARK                         _______ _______ _______ _____ _____    ______ ____
ROOT
ATOM      1  C   UNL     1       6.050   3.634  14.758  0.00  0.00    +0.000 C 
ATOM      2  C   UNL     1       5.328   4.577  15.672  0.00  0.00    +0.000 A 
ATOM      3  C   UNL     1       5.615   5.991  15.573  0.00  0.00    +0.000 A 
ATOM      4  C   UNL     1       4.999   6.872  16.370  0.00  0.00    +0.000 A 
ATOM      5  C   UNL     1       4.012   6.393  17.369  0.00  0.00    +0.000 A 
ATOM      6  N   UNL     1       3.423   7.242  18.136  0.00  0.00    +0.000 NA
ATOM      7  C   UNL     1       2.537   6.751  19.035  0.00  0.00    +0.000 A 
ATOM      8  N   UNL     1       2.230   5.510  19.161  0.00  0.00    +0.000 NA
ATOM      9  C   UNL     1       2.823   4.599  18.331  0.00  0.00    +0.000 A 
ATOM     10  O   UNL     1       2.497   3.414  18.403  0.00  0.00    +0.000 OA
ATOM     11  N   UNL     1       3.770   5.045  17.423  0.00  0.00    +0.000 N 
ATOM     12  C   UNL     1       4.430   4.158  16.580  0.00  0.00    +0.000 A 
ENDROOT
BRANCH   7  13
ATOM     13  S   UNL     1       1.755   7.943  20.051  0.00  0.00    +0.000 S 
BRANCH  13  14
ATOM     14  C   UNL     1       1.475   9.283  18.869  0.00  0.00    +0.000 C 
BRANCH  14  15
ATOM     15  C   UNL     1       0.187  10.023  19.173  0.00  0.00    +0.000 C 
ATOM     16  O   UNL     1      -0.514   9.749  20.146  0.00  0.00    +0.000 OA
ATOM     17  N   UNL     1      -0.140  11.024  18.285  0.00  0.00    +0.000 N 
ATOM     18  H   UNL     1       0.318  11.044  17.376  0.00  0.00    +0.000 HD
BRANCH  17  19
ATOM     19  C   UNL     1      -1.409  11.698  18.426  0.00  0.00    +0.000 C 
BRANCH  19  20
ATOM     20  C   UNL     1      -2.378  11.201  17.423  0.00  0.00    +0.000 A 
ATOM     21  C   UNL     1      -2.269  10.335  16.355  0.00  0.00    +0.000 A 
ATOM     22  C   UNL     1      -3.536  10.311  15.726  0.00  0.00    +0.000 A 
ATOM     23  C   UNL     1      -4.342  11.152  16.457  0.00  0.00    +0.000 A 
ATOM     24  O   UNL     1      -3.647  11.702  17.487  0.00  0.00    +0.000 OA
ENDBRANCH  19  20
ENDBRANCH  17  19
ENDBRANCH  14  15
ENDBRANCH  13  14
ENDBRANCH   7  13
TORSDOF 5
ENDMDL
MODEL 8
REMARK VINA RESULT:      -6.4      2.279      6.565
REMARK  Name = 
REMARK  6 active torsions:
REMARK  status: ('A' for Active; 'I' for Inactive)
REMARK    1  A    between atoms: C_1  and  C_2
REMARK    2  A    between atoms: C_7  and  S_8
REMARK    3  A    between atoms: S_8  and  C_9
REMARK    4  A    between atoms: C_9  and  C_10
REMARK    5  A    between atoms: N_12  and  C_13
REMARK    6  A    between atoms: C_13  and  C_14
REMARK                            x       y       z     vdW  Elec       q    Type
REMARK                         _______ _______ _______ _____ _____    ______ ____
ROOT
ATOM      1  C   UNL     1       7.855   5.441  13.676  0.00  0.00    +0.000 C 
ATOM      2  C   UNL     1       6.923   4.917  14.727  0.00  0.00    +0.000 A 
ATOM      3  C   UNL     1       5.689   4.291  14.306  0.00  0.00    +0.000 A 
ATOM      4  C   UNL     1       4.823   3.811  15.207  0.00  0.00    +0.000 A 
ATOM      5  C   UNL     1       5.132   3.924  16.654  0.00  0.00    +0.000 A 
ATOM      6  N   UNL     1       4.297   3.465  17.518  0.00  0.00    +0.000 NA
ATOM      7  C   UNL     1       4.623   3.601  18.826  0.00  0.00    +0.000 A 
ATOM      8  N   UNL     1       5.708   4.133  19.260  0.00  0.00    +0.000 NA
ATOM      9  C   UNL     1       6.621   4.597  18.353  0.00  0.00    +0.000 A 
ATOM     10  O   UNL     1       7.689   5.059  18.754  0.00  0.00    +0.000 OA
ATOM     11  N   UNL     1       6.315   4.521  17.004  0.00  0.00    +0.000 N 
ATOM     12  C   UNL     1       7.191   5.010  16.041  0.00  0.00    +0.000 A 
ENDROOT
BRANCH   7  13
ATOM     13  S   UNL     1       3.461   2.954  19.965  0.00  0.00    +0.000 S 
BRANCH  13  14
ATOM     14  C   UNL     1       2.731   4.472  20.622  0.00  0.00    +0.000 C 
BRANCH  14  15
ATOM     15  C   UNL     1       2.330   5.416  19.504  0.00  0.00    +0.000 C 
ATOM     16  O   UNL     1       1.621   5.059  18.565  0.00  0.00    +0.000 OA
ATOM     17  N   UNL     1       2.815   6.701  19.617  0.00  0.00    +0.000 N 
ATOM     18  H   UNL     1       3.590   6.880  20.253  0.00  0.00    +0.000 HD
BRANCH  17  19
ATOM     19  C   UNL     1       2.587   7.633  18.539  0.00  0.00    +0.000 C 
BRANCH  19  20
ATOM     20  C   UNL     1       1.598   8.660  18.938  0.00  0.00    +0.000 A 
ATOM     21  C   UNL     1       1.075   9.042  20.156  0.00  0.00    +0.000 A 
ATOM     22  C   UNL     1       0.111  10.041  19.884  0.00  0.00    +0.000 A 
ATOM     23  C   UNL     1       0.115  10.214  18.520  0.00  0.00    +0.000 A 
ATOM     24  O   UNL     1       1.010   9.376  17.935  0.00  0.00    +0.000 OA
ENDBRANCH  19  20
ENDBRANCH  17  19
ENDBRANCH  14  15
ENDBRANCH  13  14
ENDBRANCH   7  13
TORSDOF 5
ENDMDL
MODEL 9
REMARK VINA RESULT:      -6.3      2.229      5.513
REMARK  Name = 
REMARK  6 active torsions:
REMARK  status: ('A' for Active; 'I' for Inactive)
REMARK    1  A    between atoms: C_1  and  C_2
REMARK    2  A    between atoms: C_7  and  S_8
REMARK    3  A    between atoms: S_8  and  C_9
REMARK    4  A    between atoms: C_9  and  C_10
REMARK    5  A    between atoms: N_12  and  C_13
REMARK    6  A    between atoms: C_13  and  C_14
REMARK                            x       y       z     vdW  Elec       q    Type
REMARK                         _______ _______ _______ _____ _____    ______ ____
ROOT
ATOM      1  C   UNL     1       8.389   8.189  17.472  0.00  0.00    +0.000 C 
ATOM      2  C   UNL     1       7.540   7.003  17.816  0.00  0.00    +0.000 A 
ATOM      3  C   UNL     1       7.636   6.447  19.148  0.00  0.00    +0.000 A 
ATOM      4  C   UNL     1       6.901   5.386  19.501  0.00  0.00    +0.000 A 
ATOM      5  C   UNL     1       5.977   4.772  18.516  0.00  0.00    +0.000 A 
ATOM      6  N   UNL     1       5.273   3.751  18.857  0.00  0.00    +0.000 NA
ATOM      7  C   UNL     1       4.452   3.224  17.917  0.00  0.00    +0.000 A 
ATOM      8  N   UNL     1       4.312   3.681  16.725  0.00  0.00    +0.000 NA
ATOM      9  C   UNL     1       5.029   4.787  16.357  0.00  0.00    +0.000 A 
ATOM     10  O   UNL     1       4.864   5.268  15.237  0.00  0.00    +0.000 OA
ATOM     11  N   UNL     1       5.917   5.337  17.269  0.00  0.00    +0.000 N 
ATOM     12  C   UNL     1       6.697   6.438  16.935  0.00  0.00    +0.000 A 
ENDROOT
BRANCH   7  13
ATOM     13  S   UNL     1       3.508   1.842  18.430  0.00  0.00    +0.000 S 
BRANCH  13  14
ATOM     14  C   UNL     1       2.006   2.646  19.033  0.00  0.00    +0.000 C 
BRANCH  14  15
ATOM     15  C   UNL     1       1.842   4.027  18.428  0.00  0.00    +0.000 C 
ATOM     16  O   UNL     1       1.181   4.224  17.410  0.00  0.00    +0.000 OA
ATOM     17  N   UNL     1       2.484   5.044  19.100  0.00  0.00    +0.000 N 
ATOM     18  H   UNL     1       3.213   4.808  19.770  0.00  0.00    +0.000 HD
BRANCH  17  19
ATOM     19  C   UNL     1       2.485   6.370  18.529  0.00  0.00    +0.000 C 
BRANCH  19  20
ATOM     20  C   UNL     1       1.962   7.357  19.500  0.00  0.00    +0.000 A 
ATOM     21  C   UNL     1       1.622   7.277  20.835  0.00  0.00    +0.000 A 
ATOM     22  C   UNL     1       1.112   8.547  21.196  0.00  0.00    +0.000 A 
ATOM     23  C   UNL     1       1.187   9.324  20.065  0.00  0.00    +0.000 A 
ATOM     24  O   UNL     1       1.696   8.611  19.027  0.00  0.00    +0.000 OA
ENDBRANCH  19  20
ENDBRANCH  17  19
ENDBRANCH  14  15
ENDBRANCH  13  14
ENDBRANCH   7  13
TORSDOF 5
ENDMDL
