MODEL 1
REMARK VINA RESULT:      -7.6      0.000      0.000
REMARK  Name = 
REMARK  9 active torsions:
REMARK  status: ('A' for Active; 'I' for Inactive)
REMARK    1  A    between atoms: C_1  and  C_2
REMARK    2  A    between atoms: C_6  and  O_7
REMARK    3  A    between atoms: O_7  and  C_8
REMARK    4  A    between atoms: C_8  and  C_9
REMARK    5  A    between atoms: N_11  and  C_12
REMARK    6  A    between atoms: C_12  and  C_13
REMARK    7  A    between atoms: C_14  and  C_15
REMARK    8  A    between atoms: N_17  and  C_18
REMARK    9  A    between atoms: C_19  and  C_20
REMARK                            x       y       z     vdW  Elec       q    Type
REMARK                         _______ _______ _______ _____ _____    ______ ____
ROOT
ATOM      1  C   UNL     1       5.425   5.874  16.872  0.00  0.00    +0.000 C 
ATOM      2  O   UNL     1       4.979   6.896  16.366  0.00  0.00    +0.000 OA
ATOM      3  N   UNL     1       4.631   4.946  17.527  0.00  0.00    +0.000 N 
ATOM      4  H   UNL     1       4.974   3.994  17.581  0.00  0.00    +0.000 HD
ENDROOT
BRANCH   1   5
ATOM      5  C   UNL     1       6.927   5.555  16.890  0.00  0.00    +0.000 C 
BRANCH   5   6
ATOM      6  O   UNL     1       7.495   5.718  15.602  0.00  0.00    +0.000 OA
BRANCH   6  12
ATOM      7  C   UNL     1       5.964   2.274  11.266  0.00  0.00    +0.000 C 
ATOM      8  C   UNL     1       6.373   3.235  12.346  0.00  0.00    +0.000 A 
ATOM      9  C   UNL     1       7.288   4.189  12.119  0.00  0.00    +0.000 A 
ATOM     10  C   UNL     1       7.692   5.088  13.234  0.00  0.00    +0.000 A 
ATOM     11  O   UNL     1       8.517   5.974  13.026  0.00  0.00    +0.000 OA
ATOM     12  C   UNL     1       7.068   4.881  14.593  0.00  0.00    +0.000 A 
ATOM     13  C   UNL     1       6.149   3.895  14.658  0.00  0.00    +0.000 A 
ATOM     14  N   UNL     1       5.793   3.106  13.592  0.00  0.00    +0.000 N 
ATOM     15  H   UNL     1       5.113   2.361  13.734  0.00  0.00    +0.000 HD
ENDBRANCH   6  12
ENDBRANCH   5   6
ENDBRANCH   1   5
BRANCH   3  16
ATOM     16  C   UNL     1       3.194   5.139  17.594  0.00  0.00    +0.000 C 
BRANCH  16  17
ATOM     17  C   UNL     1       2.685   4.799  18.956  0.00  0.00    +0.000 A 
ATOM     18  C   UNL     1       2.231   5.663  20.002  0.00  0.00    +0.000 A 
ATOM     19  C   UNL     1       2.122   7.143  20.071  0.00  0.00    +0.000 C 
ATOM     20  N   UNL     1       1.823   4.971  21.072  0.00  0.00    +0.000 NA
ATOM     21  N   UNL     1       1.965   3.689  20.721  0.00  0.00    +0.000 N 
ATOM     22  C   UNL     1       1.588   2.665  21.668  0.00  0.00    +0.000 C 
ATOM     23  C   UNL     1       2.447   3.522  19.451  0.00  0.00    +0.000 A 
ATOM     24  C   UNL     1       2.606   2.199  18.797  0.00  0.00    +0.000 C 
ENDBRANCH  16  17
ENDBRANCH   3  16
TORSDOF 5
ENDMDL
MODEL 2
REMARK VINA RESULT:      -7.4      3.699      5.774
REMARK  Name = 
REMARK  9 active torsions:
REMARK  status: ('A' for Active; 'I' for Inactive)
REMARK    1  A    between atoms: C_1  and  C_2
REMARK    2  A    between atoms: C_6  and  O_7
REMARK    3  A    between atoms: O_7  and  C_8
REMARK    4  A    between atoms: C_8  and  C_9
REMARK    5  A    between atoms: N_11  and  C_12
REMARK    6  A    between atoms: C_12  and  C_13
REMARK    7  A    between atoms: C_14  and  C_15
REMARK    8  A    between atoms: N_17  and  C_18
REMARK    9  A    between atoms: C_19  and  C_20
REMARK                            x       y       z     vdW  Elec       q    Type
REMARK                         _______ _______ _______ _____ _____    ______ ____
ROOT
ATOM      1  C   UNL     1       1.607   3.765  20.840  0.00  0.00    +0.000 C 
ATOM      2  O   UNL     1       2.031   3.512  21.961  0.00  0.00    +0.000 OA
ATOM      3  N   UNL     1       1.478   5.057  20.355  0.00  0.00    +0.000 N 
ATOM      4  H   UNL     1       1.490   5.181  19.349  0.00  0.00    +0.000 HD
ENDROOT
BRANCH   1   5
ATOM      5  C   UNL     1       1.110   2.672  19.885  0.00  0.00    +0.000 C 
BRANCH   5   6
ATOM      6  O   UNL     1       2.194   1.926  19.358  0.00  0.00    +0.000 OA
BRANCH   6  12
ATOM      7  C   UNL     1       6.582   4.963  17.228  0.00  0.00    +0.000 C 
ATOM      8  C   UNL     1       5.417   4.145  17.709  0.00  0.00    +0.000 A 
ATOM      9  C   UNL     1       4.298   4.030  16.979  0.00  0.00    +0.000 A 
ATOM     10  C   UNL     1       3.155   3.245  17.520  0.00  0.00    +0.000 A 
ATOM     11  O   UNL     1       2.134   3.124  16.847  0.00  0.00    +0.000 OA
ATOM     12  C   UNL     1       3.290   2.619  18.886  0.00  0.00    +0.000 A 
ATOM     13  C   UNL     1       4.484   2.805  19.489  0.00  0.00    +0.000 A 
ATOM     14  N   UNL     1       5.518   3.520  18.936  0.00  0.00    +0.000 N 
ATOM     15  H   UNL     1       6.376   3.641  19.472  0.00  0.00    +0.000 HD
ENDBRANCH   6  12
ENDBRANCH   5   6
ENDBRANCH   1   5
BRANCH   3  16
ATOM     16  C   UNL     1       1.900   6.183  21.169  0.00  0.00    +0.000 C 
BRANCH  16  17
ATOM     17  C   UNL     1       1.621   7.469  20.462  0.00  0.00    +0.000 A 
ATOM     18  C   UNL     1       0.918   8.628  20.919  0.00  0.00    +0.000 A 
ATOM     19  C   UNL     1       0.250   8.919  22.215  0.00  0.00    +0.000 C 
ATOM     20  N   UNL     1       0.906   9.595  19.996  0.00  0.00    +0.000 NA
ATOM     21  N   UNL     1       1.618   9.102  18.978  0.00  0.00    +0.000 N 
ATOM     22  C   UNL     1       1.813   9.923  17.805  0.00  0.00    +0.000 C 
ATOM     23  C   UNL     1       2.102   7.842  19.212  0.00  0.00    +0.000 A 
ATOM     24  C   UNL     1       2.997   7.117  18.276  0.00  0.00    +0.000 C 
ENDBRANCH  16  17
ENDBRANCH   3  16
TORSDOF 5
ENDMDL
MODEL 3
REMARK VINA RESULT:      -7.4      1.538      1.764
REMARK  Name = 
REMARK  9 active torsions:
REMARK  status: ('A' for Active; 'I' for Inactive)
REMARK    1  A    between atoms: C_1  and  C_2
REMARK    2  A    between atoms: C_6  and  O_7
REMARK    3  A    between atoms: O_7  and  C_8
REMARK    4  A    between atoms: C_8  and  C_9
REMARK    5  A    between atoms: N_11  and  C_12
REMARK    6  A    between atoms: C_12  and  C_13
REMARK    7  A    between atoms: C_14  and  C_15
REMARK    8  A    between atoms: N_17  and  C_18
REMARK    9  A    between atoms: C_19  and  C_20
REMARK                            x       y       z     vdW  Elec       q    Type
REMARK                         _______ _______ _______ _____ _____    ______ ____
ROOT
ATOM      1  C   UNL     1       7.146   5.087  18.422  0.00  0.00    +0.000 C 
ATOM      2  O   UNL     1       7.649   5.119  19.539  0.00  0.00    +0.000 OA
ATOM      3  N   UNL     1       5.786   5.240  18.202  0.00  0.00    +0.000 N 
ATOM      4  H   UNL     1       5.496   5.572  17.290  0.00  0.00    +0.000 HD
ENDROOT
BRANCH   1   5
ATOM      5  C   UNL     1       7.970   4.803  17.159  0.00  0.00    +0.000 C 
BRANCH   5   6
ATOM      6  O   UNL     1       7.464   5.527  16.050  0.00  0.00    +0.000 OA
BRANCH   6  12
ATOM      7  C   UNL     1       5.618   2.577  11.478  0.00  0.00    +0.000 C 
ATOM      8  C   UNL     1       6.115   3.411  12.624  0.00  0.00    +0.000 A 
ATOM      9  C   UNL     1       7.118   4.287  12.464  0.00  0.00    +0.000 A 
ATOM     10  C   UNL     1       7.605   5.058  13.642  0.00  0.00    +0.000 A 
ATOM     11  O   UNL     1       8.512   5.873  13.495  0.00  0.00    +0.000 OA
ATOM     12  C   UNL     1       6.960   4.811  14.984  0.00  0.00    +0.000 A 
ATOM     13  C   UNL     1       5.950   3.916  14.981  0.00  0.00    +0.000 A 
ATOM     14  N   UNL     1       5.522   3.247  13.860  0.00  0.00    +0.000 N 
ATOM     15  H   UNL     1       4.773   2.562  13.950  0.00  0.00    +0.000 HD
ENDBRANCH   6  12
ENDBRANCH   5   6
ENDBRANCH   1   5
BRANCH   3  16
ATOM     16  C   UNL     1       4.895   5.499  19.319  0.00  0.00    +0.000 C 
BRANCH  16  17
ATOM     17  C   UNL     1       3.538   4.940  19.042  0.00  0.00    +0.000 A 
ATOM     18  C   UNL     1       2.394   5.570  18.457  0.00  0.00    +0.000 A 
ATOM     19  C   UNL     1       2.189   6.952  17.951  0.00  0.00    +0.000 C 
ATOM     20  N   UNL     1       1.365   4.722  18.348  0.00  0.00    +0.000 NA
ATOM     21  N   UNL     1       1.835   3.557  18.808  0.00  0.00    +0.000 N 
ATOM     22  C   UNL     1       0.959   2.409  18.810  0.00  0.00    +0.000 C 
ATOM     23  C   UNL     1       3.143   3.618  19.207  0.00  0.00    +0.000 A 
ATOM     24  C   UNL     1       3.918   2.439  19.668  0.00  0.00    +0.000 C 
ENDBRANCH  16  17
ENDBRANCH   3  16
TORSDOF 5
ENDMDL
MODEL 4
REMARK VINA RESULT:      -7.4      1.405      2.178
REMARK  Name = 
REMARK  9 active torsions:
REMARK  status: ('A' for Active; 'I' for Inactive)
REMARK    1  A    between atoms: C_1  and  C_2
REMARK    2  A    between atoms: C_6  and  O_7
REMARK    3  A    between atoms: O_7  and  C_8
REMARK    4  A    between atoms: C_8  and  C_9
REMARK    5  A    between atoms: N_11  and  C_12
REMARK    6  A    between atoms: C_12  and  C_13
REMARK    7  A    between atoms: C_14  and  C_15
REMARK    8  A    between atoms: N_17  and  C_18
REMARK    9  A    between atoms: C_19  and  C_20
REMARK                            x       y       z     vdW  Elec       q    Type
REMARK                         _______ _______ _______ _____ _____    ______ ____
ROOT
ATOM      1  C   UNL     1       6.451   5.590  17.737  0.00  0.00    +0.000 C 
ATOM      2  O   UNL     1       5.908   6.681  17.610  0.00  0.00    +0.000 OA
ATOM      3  N   UNL     1       6.089   4.674  18.712  0.00  0.00    +0.000 N 
ATOM      4  H   UNL     1       6.294   3.698  18.533  0.00  0.00    +0.000 HD
ENDROOT
BRANCH   1   5
ATOM      5  C   UNL     1       7.638   5.159  16.865  0.00  0.00    +0.000 C 
BRANCH   5   6
ATOM      6  O   UNL     1       7.519   5.678  15.552  0.00  0.00    +0.000 OA
BRANCH   6  12
ATOM      7  C   UNL     1       5.712   2.255  11.306  0.00  0.00    +0.000 C 
ATOM      8  C   UNL     1       6.192   3.210  12.362  0.00  0.00    +0.000 A 
ATOM      9  C   UNL     1       7.117   4.142  12.089  0.00  0.00    +0.000 A 
ATOM     10  C   UNL     1       7.592   5.035  13.181  0.00  0.00    +0.000 A 
ATOM     11  O   UNL     1       8.427   5.902  12.930  0.00  0.00    +0.000 OA
ATOM     12  C   UNL     1       7.027   4.847  14.567  0.00  0.00    +0.000 A 
ATOM     13  C   UNL     1       6.090   3.882  14.680  0.00  0.00    +0.000 A 
ATOM     14  N   UNL     1       5.667   3.098  13.634  0.00  0.00    +0.000 N 
ATOM     15  H   UNL     1       4.978   2.369  13.811  0.00  0.00    +0.000 HD
ENDBRANCH   6  12
ENDBRANCH   5   6
ENDBRANCH   1   5
BRANCH   3  16
ATOM     16  C   UNL     1       4.988   4.969  19.611  0.00  0.00    +0.000 C 
BRANCH  16  17
ATOM     17  C   UNL     1       3.912   3.942  19.471  0.00  0.00    +0.000 A 
ATOM     18  C   UNL     1       3.885   2.583  19.918  0.00  0.00    +0.000 A 
ATOM     19  C   UNL     1       4.895   1.772  20.647  0.00  0.00    +0.000 C 
ATOM     20  N   UNL     1       2.722   1.991  19.627  0.00  0.00    +0.000 NA
ATOM     21  N   UNL     1       1.990   2.946  19.044  0.00  0.00    +0.000 N 
ATOM     22  C   UNL     1       0.648   2.628  18.617  0.00  0.00    +0.000 C 
ATOM     23  C   UNL     1       2.639   4.149  18.953  0.00  0.00    +0.000 A 
ATOM     24  C   UNL     1       2.009   5.387  18.431  0.00  0.00    +0.000 C 
ENDBRANCH  16  17
ENDBRANCH   3  16
TORSDOF 5
ENDMDL
MODEL 5
REMARK VINA RESULT:      -7.1      3.396      8.531
REMARK  Name = 
REMARK  9 active torsions:
REMARK  status: ('A' for Active; 'I' for Inactive)
REMARK    1  A    between atoms: C_1  and  C_2
REMARK    2  A    between atoms: C_6  and  O_7
REMARK    3  A    between atoms: O_7  and  C_8
REMARK    4  A    between atoms: C_8  and  C_9
REMARK    5  A    between atoms: N_11  and  C_12
REMARK    6  A    between atoms: C_12  and  C_13
REMARK    7  A    between atoms: C_14  and  C_15
REMARK    8  A    between atoms: N_17  and  C_18
REMARK    9  A    between atoms: C_19  and  C_20
REMARK                            x       y       z     vdW  Elec       q    Type
REMARK                         _______ _______ _______ _____ _____    ______ ____
ROOT
ATOM      1  C   UNL     1       2.995   5.352  19.776  0.00  0.00    +0.000 C 
ATOM      2  O   UNL     1       2.931   4.142  19.957  0.00  0.00    +0.000 OA
ATOM      3  N   UNL     1       4.185   6.017  19.523  0.00  0.00    +0.000 N 
ATOM      4  H   UNL     1       4.130   6.899  19.028  0.00  0.00    +0.000 HD
ENDROOT
BRANCH   1   5
ATOM      5  C   UNL     1       1.765   6.264  19.882  0.00  0.00    +0.000 C 
BRANCH   5   6
ATOM      6  O   UNL     1       2.143   7.629  19.879  0.00  0.00    +0.000 OA
BRANCH   6  12
ATOM      7  C   UNL     1      -1.138  11.349  22.779  0.00  0.00    +0.000 C 
ATOM      8  C   UNL     1      -0.263  10.436  21.968  0.00  0.00    +0.000 A 
ATOM      9  C   UNL     1      -0.200  10.538  20.632  0.00  0.00    +0.000 A 
ATOM     10  C   UNL     1       0.647   9.580  19.870  0.00  0.00    +0.000 A 
ATOM     11  O   UNL     1       0.720   9.680  18.647  0.00  0.00    +0.000 OA
ATOM     12  C   UNL     1       1.395   8.512  20.630  0.00  0.00    +0.000 A 
ATOM     13  C   UNL     1       1.248   8.552  21.971  0.00  0.00    +0.000 A 
ATOM     14  N   UNL     1       0.471   9.472  22.630  0.00  0.00    +0.000 N 
ATOM     15  H   UNL     1       0.388   9.413  23.644  0.00  0.00    +0.000 HD
ENDBRANCH   6  12
ENDBRANCH   5   6
ENDBRANCH   1   5
BRANCH   3  16
ATOM     16  C   UNL     1       5.424   5.269  19.412  0.00  0.00    +0.000 C 
BRANCH  16  17
ATOM     17  C   UNL     1       6.002   5.418  18.042  0.00  0.00    +0.000 A 
ATOM     18  C   UNL     1       7.123   6.191  17.605  0.00  0.00    +0.000 A 
ATOM     19  C   UNL     1       8.054   7.076  18.353  0.00  0.00    +0.000 C 
ATOM     20  N   UNL     1       7.346   6.039  16.294  0.00  0.00    +0.000 NA
ATOM     21  N   UNL     1       6.424   5.159  15.893  0.00  0.00    +0.000 N 
ATOM     22  C   UNL     1       6.404   4.760  14.504  0.00  0.00    +0.000 C 
ATOM     23  C   UNL     1       5.609   4.724  16.904  0.00  0.00    +0.000 A 
ATOM     24  C   UNL     1       4.569   3.679  16.732  0.00  0.00    +0.000 C 
ENDBRANCH  16  17
ENDBRANCH   3  16
TORSDOF 5
ENDMDL
MODEL 6
REMARK VINA RESULT:      -7.1      2.847      7.707
REMARK  Name = 
REMARK  9 active torsions:
REMARK  status: ('A' for Active; 'I' for Inactive)
REMARK    1  A    between atoms: C_1  and  C_2
REMARK    2  A    between atoms: C_6  and  O_7
REMARK    3  A    between atoms: O_7  and  C_8
REMARK    4  A    between atoms: C_8  and  C_9
REMARK    5  A    between atoms: N_11  and  C_12
REMARK    6  A    between atoms: C_12  and  C_13
REMARK    7  A    between atoms: C_14  and  C_15
REMARK    8  A    between atoms: N_17  and  C_18
REMARK    9  A    between atoms: C_19  and  C_20
REMARK                            x       y       z     vdW  Elec       q    Type
REMARK                         _______ _______ _______ _____ _____    ______ ____
ROOT
ATOM      1  C   UNL     1       2.642   4.403  17.917  0.00  0.00    +0.000 C 
ATOM      2  O   UNL     1       1.769   3.779  17.325  0.00  0.00    +0.000 OA
ATOM      3  N   UNL     1       3.973   4.389  17.533  0.00  0.00    +0.000 N 
ATOM      4  H   UNL     1       4.545   5.179  17.806  0.00  0.00    +0.000 HD
ENDROOT
BRANCH   1   5
ATOM      5  C   UNL     1       2.353   5.209  19.191  0.00  0.00    +0.000 C 
BRANCH   5   6
ATOM      6  O   UNL     1       2.984   6.477  19.143  0.00  0.00    +0.000 OA
BRANCH   6  12
ATOM      7  C   UNL     1      -0.285  11.156  19.796  0.00  0.00    +0.000 C 
ATOM      8  C   UNL     1       0.619   9.976  19.577  0.00  0.00    +0.000 A 
ATOM      9  C   UNL     1       1.234   9.779  18.402  0.00  0.00    +0.000 A 
ATOM     10  C   UNL     1       2.084   8.570  18.221  0.00  0.00    +0.000 A 
ATOM     11  O   UNL     1       2.662   8.394  17.152  0.00  0.00    +0.000 OA
ATOM     12  C   UNL     1       2.210   7.596  19.367  0.00  0.00    +0.000 A 
ATOM     13  C   UNL     1       1.549   7.944  20.492  0.00  0.00    +0.000 A 
ATOM     14  N   UNL     1       0.795   9.084  20.616  0.00  0.00    +0.000 N 
ATOM     15  H   UNL     1       0.300   9.257  21.491  0.00  0.00    +0.000 HD
ENDBRANCH   6  12
ENDBRANCH   5   6
ENDBRANCH   1   5
BRANCH   3  16
ATOM     16  C   UNL     1       4.380   3.650  16.351  0.00  0.00    +0.000 C 
BRANCH  16  17
ATOM     17  C   UNL     1       5.578   4.287  15.726  0.00  0.00    +0.000 A 
ATOM     18  C   UNL     1       6.705   4.914  16.346  0.00  0.00    +0.000 A 
ATOM     19  C   UNL     1       7.039   5.132  17.777  0.00  0.00    +0.000 C 
ATOM     20  N   UNL     1       7.592   5.339  15.440  0.00  0.00    +0.000 NA
ATOM     21  N   UNL     1       7.083   4.964  14.262  0.00  0.00    +0.000 N 
ATOM     22  C   UNL     1       7.823   5.266  13.059  0.00  0.00    +0.000 C 
ATOM     23  C   UNL     1       5.891   4.298  14.372  0.00  0.00    +0.000 A 
ATOM     24  C   UNL     1       5.173   3.700  13.219  0.00  0.00    +0.000 C 
ENDBRANCH  16  17
ENDBRANCH   3  16
TORSDOF 5
ENDMDL
MODEL 7
REMARK VINA RESULT:      -7.1      3.070      5.324
REMARK  Name = 
REMARK  9 active torsions:
REMARK  status: ('A' for Active; 'I' for Inactive)
REMARK    1  A    between atoms: C_1  and  C_2
REMARK    2  A    between atoms: C_6  and  O_7
REMARK    3  A    between atoms: O_7  and  C_8
REMARK    4  A    between atoms: C_8  and  C_9
REMARK    5  A    between atoms: N_11  and  C_12
REMARK    6  A    between atoms: C_12  and  C_13
REMARK    7  A    between atoms: C_14  and  C_15
REMARK    8  A    between atoms: N_17  and  C_18
REMARK    9  A    between atoms: C_19  and  C_20
REMARK                            x       y       z     vdW  Elec       q    Type
REMARK                         _______ _______ _______ _____ _____    ______ ____
ROOT
ATOM      1  C   UNL     1       1.905   4.570  20.243  0.00  0.00    +0.000 C 
ATOM      2  O   UNL     1       0.767   4.323  20.621  0.00  0.00    +0.000 OA
ATOM      3  N   UNL     1       2.477   5.829  20.334  0.00  0.00    +0.000 N 
ATOM      4  H   UNL     1       3.488   5.882  20.363  0.00  0.00    +0.000 HD
ENDROOT
BRANCH   1   5
ATOM      5  C   UNL     1       2.790   3.516  19.563  0.00  0.00    +0.000 C 
BRANCH   5   6
ATOM      6  O   UNL     1       4.158   3.879  19.632  0.00  0.00    +0.000 OA
BRANCH   6  12
ATOM      7  C   UNL     1       7.204   4.814  14.851  0.00  0.00    +0.000 C 
ATOM      8  C   UNL     1       6.439   4.638  16.132  0.00  0.00    +0.000 A 
ATOM      9  C   UNL     1       6.957   5.013  17.310  0.00  0.00    +0.000 A 
ATOM     10  C   UNL     1       6.177   4.777  18.556  0.00  0.00    +0.000 A 
ATOM     11  O   UNL     1       6.642   5.134  19.636  0.00  0.00    +0.000 OA
ATOM     12  C   UNL     1       4.830   4.104  18.449  0.00  0.00    +0.000 A 
ATOM     13  C   UNL     1       4.435   3.805  17.194  0.00  0.00    +0.000 A 
ATOM     14  N   UNL     1       5.184   4.065  16.072  0.00  0.00    +0.000 N 
ATOM     15  H   UNL     1       4.826   3.777  15.162  0.00  0.00    +0.000 HD
ENDBRANCH   6  12
ENDBRANCH   5   6
ENDBRANCH   1   5
BRANCH   3  16
ATOM     16  C   UNL     1       1.736   6.919  20.945  0.00  0.00    +0.000 C 
BRANCH  16  17
ATOM     17  C   UNL     1       1.636   8.073  20.002  0.00  0.00    +0.000 A 
ATOM     18  C   UNL     1       2.179   8.226  18.687  0.00  0.00    +0.000 A 
ATOM     19  C   UNL     1       2.999   7.309  17.854  0.00  0.00    +0.000 C 
ATOM     20  N   UNL     1       1.843   9.403  18.148  0.00  0.00    +0.000 NA
ATOM     21  N   UNL     1       1.066   9.988  19.066  0.00  0.00    +0.000 N 
ATOM     22  C   UNL     1       0.514  11.292  18.779  0.00  0.00    +0.000 C 
ATOM     23  C   UNL     1       0.879   9.224  20.187  0.00  0.00    +0.000 A 
ATOM     24  C   UNL     1      -0.015   9.610  21.307  0.00  0.00    +0.000 C 
ENDBRANCH  16  17
ENDBRANCH   3  16
TORSDOF 5
ENDMDL
MODEL 8
REMARK VINA RESULT:      -7.1      2.914      4.924
REMARK  Name = 
REMARK  9 active torsions:
REMARK  status: ('A' for Active; 'I' for Inactive)
REMARK    1  A    between atoms: C_1  and  C_2
REMARK    2  A    between atoms: C_6  and  O_7
REMARK    3  A    between atoms: O_7  and  C_8
REMARK    4  A    between atoms: C_8  and  C_9
REMARK    5  A    between atoms: N_11  and  C_12
REMARK    6  A    between atoms: C_12  and  C_13
REMARK    7  A    between atoms: C_14  and  C_15
REMARK    8  A    between atoms: N_17  and  C_18
REMARK    9  A    between atoms: C_19  and  C_20
REMARK                            x       y       z     vdW  Elec       q    Type
REMARK                         _______ _______ _______ _____ _____    ______ ____
ROOT
ATOM      1  C   UNL     1       2.872   5.576  19.506  0.00  0.00    +0.000 C 
ATOM      2  O   UNL     1       2.047   5.189  18.687  0.00  0.00    +0.000 OA
ATOM      3  N   UNL     1       2.578   6.500  20.496  0.00  0.00    +0.000 N 
ATOM      4  H   UNL     1       3.154   6.489  21.330  0.00  0.00    +0.000 HD
ENDROOT
BRANCH   1   5
ATOM      5  C   UNL     1       4.339   5.125  19.469  0.00  0.00    +0.000 C 
BRANCH   5   6
ATOM      6  O   UNL     1       5.144   6.070  18.785  0.00  0.00    +0.000 OA
BRANCH   6  12
ATOM      7  C   UNL     1       6.941   4.581  13.535  0.00  0.00    +0.000 C 
ATOM      8  C   UNL     1       6.549   4.969  14.933  0.00  0.00    +0.000 A 
ATOM      9  C   UNL     1       7.203   4.485  15.999  0.00  0.00    +0.000 A 
ATOM     10  C   UNL     1       6.746   4.864  17.364  0.00  0.00    +0.000 A 
ATOM     11  O   UNL     1       7.354   4.437  18.343  0.00  0.00    +0.000 OA
ATOM     12  C   UNL     1       5.547   5.770  17.501  0.00  0.00    +0.000 A 
ATOM     13  C   UNL     1       5.009   6.191  16.337  0.00  0.00    +0.000 A 
ATOM     14  N   UNL     1       5.482   5.830  15.099  0.00  0.00    +0.000 N 
ATOM     15  H   UNL     1       4.998   6.167  14.268  0.00  0.00    +0.000 HD
ENDBRANCH   6  12
ENDBRANCH   5   6
ENDBRANCH   1   5
BRANCH   3  16
ATOM     16  C   UNL     1       1.227   7.016  20.628  0.00  0.00    +0.000 C 
BRANCH  16  17
ATOM     17  C   UNL     1       1.200   8.482  20.340  0.00  0.00    +0.000 A 
ATOM     18  C   UNL     1       1.459   9.175  19.116  0.00  0.00    +0.000 A 
ATOM     19  C   UNL     1       1.832   8.675  17.767  0.00  0.00    +0.000 C 
ATOM     20  N   UNL     1       1.303  10.497  19.255  0.00  0.00    +0.000 NA
ATOM     21  N   UNL     1       0.911  10.661  20.522  0.00  0.00    +0.000 N 
ATOM     22  C   UNL     1       0.637  11.998  20.995  0.00  0.00    +0.000 C 
ATOM     23  C   UNL     1       0.799   9.485  21.214  0.00  0.00    +0.000 A 
ATOM     24  C   UNL     1       0.293   9.394  22.607  0.00  0.00    +0.000 C 
ENDBRANCH  16  17
ENDBRANCH   3  16
TORSDOF 5
ENDMDL
MODEL 9
REMARK VINA RESULT:      -7.0      2.663      4.514
REMARK  Name = 
REMARK  9 active torsions:
REMARK  status: ('A' for Active; 'I' for Inactive)
REMARK    1  A    between atoms: C_1  and  C_2
REMARK    2  A    between atoms: C_6  and  O_7
REMARK    3  A    between atoms: O_7  and  C_8
REMARK    4  A    between atoms: C_8  and  C_9
REMARK    5  A    between atoms: N_11  and  C_12
REMARK    6  A    between atoms: C_12  and  C_13
REMARK    7  A    between atoms: C_14  and  C_15
REMARK    8  A    between atoms: N_17  and  C_18
REMARK    9  A    between atoms: C_19  and  C_20
REMARK                            x       y       z     vdW  Elec       q    Type
REMARK                         _______ _______ _______ _____ _____    ______ ____
ROOT
ATOM      1  C   UNL     1       2.972   4.090  19.901  0.00  0.00    +0.000 C 
ATOM      2  O   UNL     1       1.929   3.493  19.667  0.00  0.00    +0.000 OA
ATOM      3  N   UNL     1       3.008   5.385  20.392  0.00  0.00    +0.000 N 
ATOM      4  H   UNL     1       3.837   5.668  20.901  0.00  0.00    +0.000 HD
ENDROOT
BRANCH   1   5
ATOM      5  C   UNL     1       4.350   3.480  19.606  0.00  0.00    +0.000 C 
BRANCH   5   6
ATOM      6  O   UNL     1       5.226   4.449  19.058  0.00  0.00    +0.000 OA
BRANCH   6  12
ATOM      7  C   UNL     1       6.625   4.161  13.492  0.00  0.00    +0.000 C 
ATOM      8  C   UNL     1       6.310   4.299  14.955  0.00  0.00    +0.000 A 
ATOM      9  C   UNL     1       7.249   4.673  15.837  0.00  0.00    +0.000 A 
ATOM     10  C   UNL     1       6.898   4.752  17.281  0.00  0.00    +0.000 A 
ATOM     11  O   UNL     1       7.751   5.109  18.090  0.00  0.00    +0.000 OA
ATOM     12  C   UNL     1       5.496   4.390  17.706  0.00  0.00    +0.000 A 
ATOM     13  C   UNL     1       4.660   4.054  16.701  0.00  0.00    +0.000 A 
ATOM     14  N   UNL     1       5.026   4.019  15.378  0.00  0.00    +0.000 N 
ATOM     15  H   UNL     1       4.342   3.723  14.684  0.00  0.00    +0.000 HD
ENDBRANCH   6  12
ENDBRANCH   5   6
ENDBRANCH   1   5
BRANCH   3  16
ATOM     16  C   UNL     1       1.770   6.079  20.699  0.00  0.00    +0.000 C 
BRANCH  16  17
ATOM     17  C   UNL     1       1.754   7.426  20.052  0.00  0.00    +0.000 A 
ATOM     18  C   UNL     1       2.282   7.836  18.787  0.00  0.00    +0.000 A 
ATOM     19  C   UNL     1       3.003   7.075  17.734  0.00  0.00    +0.000 C 
ATOM     20  N   UNL     1       2.040   9.129  18.548  0.00  0.00    +0.000 NA
ATOM     21  N   UNL     1       1.336   9.545  19.605  0.00  0.00    +0.000 N 
ATOM     22  C   UNL     1       0.895  10.920  19.648  0.00  0.00    +0.000 C 
ATOM     23  C   UNL     1       1.104   8.559  20.526  0.00  0.00    +0.000 A 
ATOM     24  C   UNL     1       0.269   8.745  21.739  0.00  0.00    +0.000 C 
ENDBRANCH  16  17
ENDBRANCH   3  16
TORSDOF 5
ENDMDL
