MODEL 1
REMARK VINA RESULT:      -8.1      0.000      0.000
REMARK  Name = 
REMARK  7 active torsions:
REMARK  status: ('A' for Active; 'I' for Inactive)
REMARK    1  A    between atoms: C_1  and  C_2
REMARK    2  A    between atoms: C_2  and  C_3
REMARK    3  A    between atoms: C_6  and  N_7
REMARK    4  A    between atoms: C_8  and  C_10
REMARK    5  A    between atoms: C_10  and  N_11
REMARK    6  A    between atoms: N_14  and  C_15
REMARK    7  A    between atoms: C_15  and  C_16
REMARK                            x       y       z     vdW  Elec       q    Type
REMARK                         _______ _______ _______ _____ _____    ______ ____
ROOT
ATOM      1  N   UNL     1       6.727   5.555  17.739  0.00  0.00    +0.000 N 
ATOM      2  C   UNL     1       5.704   5.291  18.656  0.00  0.00    +0.000 A 
ATOM      3  O   UNL     1       5.911   5.401  19.867  0.00  0.00    +0.000 OA
ATOM      4  N   UNL     1       4.466   4.894  18.139  0.00  0.00    +0.000 N 
ATOM      5  C   UNL     1       4.258   4.460  16.824  0.00  0.00    +0.000 A 
ATOM      6  O   UNL     1       3.174   4.037  16.427  0.00  0.00    +0.000 OA
ATOM      7  C   UNL     1       5.431   4.553  16.000  0.00  0.00    +0.000 A 
ATOM      8  S   UNL     1       5.497   3.973  14.404  0.00  0.00    +0.000 S 
ATOM      9  C   UNL     1       7.122   4.485  14.239  0.00  0.00    +0.000 A 
ATOM     10  C   UNL     1       7.580   5.119  15.378  0.00  0.00    +0.000 A 
ATOM     11  C   UNL     1       6.606   5.108  16.419  0.00  0.00    +0.000 A 
ENDROOT
BRANCH   1  12
ATOM     12  C   UNL     1       7.933   6.211  18.241  0.00  0.00    +0.000 C 
BRANCH  12  14
ATOM     13  N   UNL     1       8.784   8.412  18.864  0.00  0.00    +0.000 N 
ATOM     14  C   UNL     1       7.904   7.722  18.049  0.00  0.00    +0.000 C 
ATOM     15  O   UNL     1       7.172   8.213  17.192  0.00  0.00    +0.000 OA
ATOM     16  H   UNL     1       9.424   7.860  19.431  0.00  0.00    +0.000 HD
BRANCH  13  20
ATOM     17  C   UNL     1       9.323  12.608  19.085  0.00  0.00    +0.000 A 
ATOM     18  C   UNL     1       8.931  12.023  17.880  0.00  0.00    +0.000 A 
ATOM     19  C   UNL     1       8.744  10.642  17.792  0.00  0.00    +0.000 A 
ATOM     20  C   UNL     1       8.948   9.816  18.900  0.00  0.00    +0.000 A 
ATOM     21  C   UNL     1       9.329  10.402  20.111  0.00  0.00    +0.000 A 
ATOM     22  C   UNL     1       9.523  11.786  20.201  0.00  0.00    +0.000 A 
BRANCH  17  24
ATOM     23  C   UNL     1      10.840  14.558  18.762  0.00  0.00    +0.000 C 
ATOM     24  C   UNL     1       9.455  14.103  19.192  0.00  0.00    +0.000 C 
ENDBRANCH  17  24
ENDBRANCH  13  20
ENDBRANCH  12  14
ENDBRANCH   1  12
BRANCH   4  25
ATOM     25  C   UNL     1       3.345   4.792  19.066  0.00  0.00    +0.000 C 
BRANCH  25  26
ATOM     26  C   UNL     1       2.698   6.119  19.402  0.00  0.00    +0.000 A 
ATOM     27  C   UNL     1       2.670   7.188  18.490  0.00  0.00    +0.000 A 
ATOM     28  C   UNL     1       1.974   8.366  18.793  0.00  0.00    +0.000 A 
ATOM     29  C   UNL     1       1.294   8.491  20.004  0.00  0.00    +0.000 A 
ATOM     30  C   UNL     1       1.318   7.441  20.920  0.00  0.00    +0.000 A 
ATOM     31  C   UNL     1       2.013   6.273  20.613  0.00  0.00    +0.000 A 
ATOM     32  F   UNL     1       1.990   5.269  21.500  0.00  0.00    +0.000 F 
ENDBRANCH  25  26
ENDBRANCH   4  25
TORSDOF 6
ENDMDL
MODEL 2
REMARK VINA RESULT:      -7.7      6.671     10.163
REMARK  Name = 
REMARK  7 active torsions:
REMARK  status: ('A' for Active; 'I' for Inactive)
REMARK    1  A    between atoms: C_1  and  C_2
REMARK    2  A    between atoms: C_2  and  C_3
REMARK    3  A    between atoms: C_6  and  N_7
REMARK    4  A    between atoms: C_8  and  C_10
REMARK    5  A    between atoms: C_10  and  N_11
REMARK    6  A    between atoms: N_14  and  C_15
REMARK    7  A    between atoms: C_15  and  C_16
REMARK                            x       y       z     vdW  Elec       q    Type
REMARK                         _______ _______ _______ _____ _____    ______ ____
ROOT
ATOM      1  N   UNL     1      -0.028  10.581  21.197  0.00  0.00    +0.000 N 
ATOM      2  C   UNL     1      -0.651  11.140  22.319  0.00  0.00    +0.000 A 
ATOM      3  O   UNL     1      -0.355  10.751  23.452  0.00  0.00    +0.000 OA
ATOM      4  N   UNL     1      -1.610  12.132  22.092  0.00  0.00    +0.000 N 
ATOM      5  C   UNL     1      -2.202  12.395  20.851  0.00  0.00    +0.000 A 
ATOM      6  O   UNL     1      -3.105  13.217  20.705  0.00  0.00    +0.000 OA
ATOM      7  C   UNL     1      -1.656  11.608  19.781  0.00  0.00    +0.000 A 
ATOM      8  S   UNL     1      -2.275  11.628  18.199  0.00  0.00    +0.000 S 
ATOM      9  C   UNL     1      -1.096  10.504  17.675  0.00  0.00    +0.000 A 
ATOM     10  C   UNL     1      -0.228  10.157  18.693  0.00  0.00    +0.000 A 
ATOM     11  C   UNL     1      -0.592  10.765  19.930  0.00  0.00    +0.000 A 
ENDROOT
BRANCH   1  12
ATOM     12  C   UNL     1       1.145   9.740  21.423  0.00  0.00    +0.000 C 
BRANCH  12  14
ATOM     13  N   UNL     1       1.955   7.669  20.414  0.00  0.00    +0.000 N 
ATOM     14  C   UNL     1       0.898   8.279  21.067  0.00  0.00    +0.000 C 
ATOM     15  O   UNL     1      -0.154   7.739  21.405  0.00  0.00    +0.000 OA
ATOM     16  H   UNL     1       2.815   8.205  20.321  0.00  0.00    +0.000 HD
BRANCH  13  20
ATOM     17  C   UNL     1       2.080   3.700  18.943  0.00  0.00    +0.000 A 
ATOM     18  C   UNL     1       1.858   3.927  20.302  0.00  0.00    +0.000 A 
ATOM     19  C   UNL     1       1.809   5.231  20.803  0.00  0.00    +0.000 A 
ATOM     20  C   UNL     1       1.984   6.332  19.960  0.00  0.00    +0.000 A 
ATOM     21  C   UNL     1       2.194   6.104  18.596  0.00  0.00    +0.000 A 
ATOM     22  C   UNL     1       2.250   4.799  18.093  0.00  0.00    +0.000 A 
BRANCH  17  24
ATOM     23  C   UNL     1       3.472   1.742  18.283  0.00  0.00    +0.000 C 
ATOM     24  C   UNL     1       2.062   2.297  18.399  0.00  0.00    +0.000 C 
ENDBRANCH  17  24
ENDBRANCH  13  20
ENDBRANCH  12  14
ENDBRANCH   1  12
BRANCH   4  25
ATOM     25  C   UNL     1      -2.132  12.849  23.251  0.00  0.00    +0.000 C 
BRANCH  25  26
ATOM     26  C   UNL     1      -1.403  14.139  23.560  0.00  0.00    +0.000 A 
ATOM     27  C   UNL     1      -0.387  14.640  22.728  0.00  0.00    +0.000 A 
ATOM     28  C   UNL     1       0.195  15.888  22.986  0.00  0.00    +0.000 A 
ATOM     29  C   UNL     1      -0.230  16.654  24.071  0.00  0.00    +0.000 A 
ATOM     30  C   UNL     1      -1.233  16.167  24.907  0.00  0.00    +0.000 A 
ATOM     31  C   UNL     1      -1.807  14.925  24.645  0.00  0.00    +0.000 A 
ATOM     32  F   UNL     1      -2.792  14.498  25.449  0.00  0.00    +0.000 F 
ENDBRANCH  25  26
ENDBRANCH   4  25
TORSDOF 6
ENDMDL
MODEL 3
REMARK VINA RESULT:      -7.5      0.885      1.249
REMARK  Name = 
REMARK  7 active torsions:
REMARK  status: ('A' for Active; 'I' for Inactive)
REMARK    1  A    between atoms: C_1  and  C_2
REMARK    2  A    between atoms: C_2  and  C_3
REMARK    3  A    between atoms: C_6  and  N_7
REMARK    4  A    between atoms: C_8  and  C_10
REMARK    5  A    between atoms: C_10  and  N_11
REMARK    6  A    between atoms: N_14  and  C_15
REMARK    7  A    between atoms: C_15  and  C_16
REMARK                            x       y       z     vdW  Elec       q    Type
REMARK                         _______ _______ _______ _____ _____    ______ ____
ROOT
ATOM      1  N   UNL     1       6.669   5.513  17.821  0.00  0.00    +0.000 N 
ATOM      2  C   UNL     1       5.647   5.235  18.736  0.00  0.00    +0.000 A 
ATOM      3  O   UNL     1       5.852   5.344  19.948  0.00  0.00    +0.000 OA
ATOM      4  N   UNL     1       4.415   4.827  18.217  0.00  0.00    +0.000 N 
ATOM      5  C   UNL     1       4.212   4.393  16.901  0.00  0.00    +0.000 A 
ATOM      6  O   UNL     1       3.133   3.960  16.502  0.00  0.00    +0.000 OA
ATOM      7  C   UNL     1       5.384   4.502  16.079  0.00  0.00    +0.000 A 
ATOM      8  S   UNL     1       5.459   3.927  14.481  0.00  0.00    +0.000 S 
ATOM      9  C   UNL     1       7.078   4.457  14.319  0.00  0.00    +0.000 A 
ATOM     10  C   UNL     1       7.528   5.092  15.460  0.00  0.00    +0.000 A 
ATOM     11  C   UNL     1       6.553   5.068  16.500  0.00  0.00    +0.000 A 
ENDROOT
BRANCH   1  12
ATOM     12  C   UNL     1       7.867   6.180  18.326  0.00  0.00    +0.000 C 
BRANCH  12  14
ATOM     13  N   UNL     1       8.736   8.394  18.875  0.00  0.00    +0.000 N 
ATOM     14  C   UNL     1       7.846   7.685  18.088  0.00  0.00    +0.000 C 
ATOM     15  O   UNL     1       7.111   8.155  17.221  0.00  0.00    +0.000 OA
ATOM     16  H   UNL     1       9.377   7.855  19.454  0.00  0.00    +0.000 HD
BRANCH  13  20
ATOM     17  C   UNL     1       9.314  12.589  18.960  0.00  0.00    +0.000 A 
ATOM     18  C   UNL     1       8.807  11.984  17.809  0.00  0.00    +0.000 A 
ATOM     19  C   UNL     1       8.606  10.602  17.766  0.00  0.00    +0.000 A 
ATOM     20  C   UNL     1       8.910   9.797  18.867  0.00  0.00    +0.000 A 
ATOM     21  C   UNL     1       9.406  10.405  20.025  0.00  0.00    +0.000 A 
ATOM     22  C   UNL     1       9.614  11.789  20.069  0.00  0.00    +0.000 A 
BRANCH  17  24
ATOM     23  C   UNL     1      10.062  14.515  20.352  0.00  0.00    +0.000 C 
ATOM     24  C   UNL     1       9.462  14.086  19.024  0.00  0.00    +0.000 C 
ENDBRANCH  17  24
ENDBRANCH  13  20
ENDBRANCH  12  14
ENDBRANCH   1  12
BRANCH   4  25
ATOM     25  C   UNL     1       3.293   4.710  19.142  0.00  0.00    +0.000 C 
BRANCH  25  26
ATOM     26  C   UNL     1       2.592   6.020  19.432  0.00  0.00    +0.000 A 
ATOM     27  C   UNL     1       1.951   6.269  20.657  0.00  0.00    +0.000 A 
ATOM     28  C   UNL     1       1.401   7.528  20.932  0.00  0.00    +0.000 A 
ATOM     29  C   UNL     1       1.488   8.555  19.992  0.00  0.00    +0.000 A 
ATOM     30  C   UNL     1       2.116   8.321  18.772  0.00  0.00    +0.000 A 
ATOM     31  C   UNL     1       2.660   7.066  18.504  0.00  0.00    +0.000 A 
ATOM     32  F   UNL     1       3.286   6.881  17.333  0.00  0.00    +0.000 F 
ENDBRANCH  25  26
ENDBRANCH   4  25
TORSDOF 6
ENDMDL
MODEL 4
REMARK VINA RESULT:      -7.4      6.896     10.424
REMARK  Name = 
REMARK  7 active torsions:
REMARK  status: ('A' for Active; 'I' for Inactive)
REMARK    1  A    between atoms: C_1  and  C_2
REMARK    2  A    between atoms: C_2  and  C_3
REMARK    3  A    between atoms: C_6  and  N_7
REMARK    4  A    between atoms: C_8  and  C_10
REMARK    5  A    between atoms: C_10  and  N_11
REMARK    6  A    between atoms: N_14  and  C_15
REMARK    7  A    between atoms: C_15  and  C_16
REMARK                            x       y       z     vdW  Elec       q    Type
REMARK                         _______ _______ _______ _____ _____    ______ ____
ROOT
ATOM      1  N   UNL     1      -0.041  11.015  21.783  0.00  0.00    +0.000 N 
ATOM      2  C   UNL     1      -1.192  11.276  22.535  0.00  0.00    +0.000 A 
ATOM      3  O   UNL     1      -1.558  10.485  23.407  0.00  0.00    +0.000 OA
ATOM      4  N   UNL     1      -1.894  12.450  22.244  0.00  0.00    +0.000 N 
ATOM      5  C   UNL     1      -1.713  13.218  21.086  0.00  0.00    +0.000 A 
ATOM      6  O   UNL     1      -2.408  14.197  20.822  0.00  0.00    +0.000 OA
ATOM      7  C   UNL     1      -0.647  12.743  20.249  0.00  0.00    +0.000 A 
ATOM      8  S   UNL     1      -0.295  13.404  18.724  0.00  0.00    +0.000 S 
ATOM      9  C   UNL     1       1.008  12.317  18.504  0.00  0.00    +0.000 A 
ATOM     10  C   UNL     1       1.181  11.493  19.600  0.00  0.00    +0.000 A 
ATOM     11  C   UNL     1       0.180  11.712  20.591  0.00  0.00    +0.000 A 
ENDROOT
BRANCH   1  12
ATOM     12  C   UNL     1       0.837   9.940  22.242  0.00  0.00    +0.000 C 
BRANCH  12  14
ATOM     13  N   UNL     1       1.854   8.146  20.935  0.00  0.00    +0.000 N 
ATOM     14  C   UNL     1       0.670   8.659  21.433  0.00  0.00    +0.000 C 
ATOM     15  O   UNL     1      -0.446   8.155  21.315  0.00  0.00    +0.000 OA
ATOM     16  H   UNL     1       2.717   8.600  21.229  0.00  0.00    +0.000 HD
BRANCH  13  20
ATOM     17  C   UNL     1       2.186   4.593  18.654  0.00  0.00    +0.000 A 
ATOM     18  C   UNL     1       2.504   5.821  18.072  0.00  0.00    +0.000 A 
ATOM     19  C   UNL     1       2.405   7.002  18.812  0.00  0.00    +0.000 A 
ATOM     20  C   UNL     1       1.983   6.982  20.144  0.00  0.00    +0.000 A 
ATOM     21  C   UNL     1       1.676   5.751  20.731  0.00  0.00    +0.000 A 
ATOM     22  C   UNL     1       1.769   4.567  19.990  0.00  0.00    +0.000 A 
BRANCH  17  24
ATOM     23  C   UNL     1       1.580   2.181  18.508  0.00  0.00    +0.000 C 
ATOM     24  C   UNL     1       2.362   3.319  17.873  0.00  0.00    +0.000 C 
ENDBRANCH  17  24
ENDBRANCH  13  20
ENDBRANCH  12  14
ENDBRANCH   1  12
BRANCH   4  25
ATOM     25  C   UNL     1      -2.986  12.826  23.135  0.00  0.00    +0.000 C 
BRANCH  25  26
ATOM     26  C   UNL     1      -2.711  14.065  23.961  0.00  0.00    +0.000 A 
ATOM     27  C   UNL     1      -1.406  14.470  24.286  0.00  0.00    +0.000 A 
ATOM     28  C   UNL     1      -1.182  15.676  24.964  0.00  0.00    +0.000 A 
ATOM     29  C   UNL     1      -2.253  16.494  25.320  0.00  0.00    +0.000 A 
ATOM     30  C   UNL     1      -3.553  16.102  25.008  0.00  0.00    +0.000 A 
ATOM     31  C   UNL     1      -3.770  14.901  24.336  0.00  0.00    +0.000 A 
ATOM     32  F   UNL     1      -5.029  14.567  24.022  0.00  0.00    +0.000 F 
ENDBRANCH  25  26
ENDBRANCH   4  25
TORSDOF 6
ENDMDL
MODEL 5
REMARK VINA RESULT:      -7.4      7.816     11.130
REMARK  Name = 
REMARK  7 active torsions:
REMARK  status: ('A' for Active; 'I' for Inactive)
REMARK    1  A    between atoms: C_1  and  C_2
REMARK    2  A    between atoms: C_2  and  C_3
REMARK    3  A    between atoms: C_6  and  N_7
REMARK    4  A    between atoms: C_8  and  C_10
REMARK    5  A    between atoms: C_10  and  N_11
REMARK    6  A    between atoms: N_14  and  C_15
REMARK    7  A    between atoms: C_15  and  C_16
REMARK                            x       y       z     vdW  Elec       q    Type
REMARK                         _______ _______ _______ _____ _____    ______ ____
ROOT
ATOM      1  N   UNL     1      -2.844  12.286  19.678  0.00  0.00    +0.000 N 
ATOM      2  C   UNL     1      -2.582  12.240  21.052  0.00  0.00    +0.000 A 
ATOM      3  O   UNL     1      -1.443  11.998  21.461  0.00  0.00    +0.000 OA
ATOM      4  N   UNL     1      -3.658  12.467  21.917  0.00  0.00    +0.000 N 
ATOM      5  C   UNL     1      -5.004  12.439  21.534  0.00  0.00    +0.000 A 
ATOM      6  O   UNL     1      -5.927  12.558  22.337  0.00  0.00    +0.000 OA
ATOM      7  C   UNL     1      -5.191  12.255  20.122  0.00  0.00    +0.000 A 
ATOM      8  S   UNL     1      -6.717  12.053  19.402  0.00  0.00    +0.000 S 
ATOM      9  C   UNL     1      -6.016  11.930  17.846  0.00  0.00    +0.000 A 
ATOM     10  C   UNL     1      -4.643  12.079  17.887  0.00  0.00    +0.000 A 
ATOM     11  C   UNL     1      -4.164  12.216  19.223  0.00  0.00    +0.000 A 
ENDROOT
BRANCH   1  12
ATOM     12  C   UNL     1      -1.697  12.308  18.772  0.00  0.00    +0.000 C 
BRANCH  12  14
ATOM     13  N   UNL     1       0.143  10.759  19.190  0.00  0.00    +0.000 N 
ATOM     14  C   UNL     1      -1.082  10.929  18.569  0.00  0.00    +0.000 C 
ATOM     15  O   UNL     1      -1.699  10.073  17.936  0.00  0.00    +0.000 OA
ATOM     16  H   UNL     1       0.467  11.512  19.792  0.00  0.00    +0.000 HD
BRANCH  13  20
ATOM     17  C   UNL     1       2.473   7.222  19.186  0.00  0.00    +0.000 A 
ATOM     18  C   UNL     1       2.356   7.975  18.017  0.00  0.00    +0.000 A 
ATOM     19  C   UNL     1       1.595   9.146  18.002  0.00  0.00    +0.000 A 
ATOM     20  C   UNL     1       0.933   9.588  19.151  0.00  0.00    +0.000 A 
ATOM     21  C   UNL     1       1.061   8.841  20.326  0.00  0.00    +0.000 A 
ATOM     22  C   UNL     1       1.818   7.663  20.342  0.00  0.00    +0.000 A 
BRANCH  17  24
ATOM     23  C   UNL     1       2.773   4.937  20.134  0.00  0.00    +0.000 C 
ATOM     24  C   UNL     1       3.351   6.000  19.213  0.00  0.00    +0.000 C 
ENDBRANCH  17  24
ENDBRANCH  13  20
ENDBRANCH  12  14
ENDBRANCH   1  12
BRANCH   4  25
ATOM     25  C   UNL     1      -3.367  12.602  23.340  0.00  0.00    +0.000 C 
BRANCH  25  26
ATOM     26  C   UNL     1      -3.139  14.029  23.791  0.00  0.00    +0.000 A 
ATOM     27  C   UNL     1      -4.201  14.878  24.147  0.00  0.00    +0.000 A 
ATOM     28  C   UNL     1      -3.950  16.158  24.659  0.00  0.00    +0.000 A 
ATOM     29  C   UNL     1      -2.639  16.605  24.828  0.00  0.00    +0.000 A 
ATOM     30  C   UNL     1      -1.577  15.775  24.475  0.00  0.00    +0.000 A 
ATOM     31  C   UNL     1      -1.834  14.504  23.965  0.00  0.00    +0.000 A 
ATOM     32  F   UNL     1      -0.791  13.718  23.664  0.00  0.00    +0.000 F 
ENDBRANCH  25  26
ENDBRANCH   4  25
TORSDOF 6
ENDMDL
MODEL 6
REMARK VINA RESULT:      -7.4      7.950     11.249
REMARK  Name = 
REMARK  7 active torsions:
REMARK  status: ('A' for Active; 'I' for Inactive)
REMARK    1  A    between atoms: C_1  and  C_2
REMARK    2  A    between atoms: C_2  and  C_3
REMARK    3  A    between atoms: C_6  and  N_7
REMARK    4  A    between atoms: C_8  and  C_10
REMARK    5  A    between atoms: C_10  and  N_11
REMARK    6  A    between atoms: N_14  and  C_15
REMARK    7  A    between atoms: C_15  and  C_16
REMARK                            x       y       z     vdW  Elec       q    Type
REMARK                         _______ _______ _______ _____ _____    ______ ____
ROOT
ATOM      1  N   UNL     1      -3.069  12.292  19.598  0.00  0.00    +0.000 N 
ATOM      2  C   UNL     1      -2.814  12.352  20.973  0.00  0.00    +0.000 A 
ATOM      3  O   UNL     1      -1.672  12.171  21.402  0.00  0.00    +0.000 OA
ATOM      4  N   UNL     1      -3.901  12.612  21.815  0.00  0.00    +0.000 N 
ATOM      5  C   UNL     1      -5.244  12.521  21.429  0.00  0.00    +0.000 A 
ATOM      6  O   UNL     1      -6.175  12.673  22.217  0.00  0.00    +0.000 OA
ATOM      7  C   UNL     1      -5.417  12.230  20.033  0.00  0.00    +0.000 A 
ATOM      8  S   UNL     1      -6.932  11.936  19.323  0.00  0.00    +0.000 S 
ATOM      9  C   UNL     1      -6.219  11.720  17.783  0.00  0.00    +0.000 A 
ATOM     10  C   UNL     1      -4.851  11.908  17.819  0.00  0.00    +0.000 A 
ATOM     11  C   UNL     1      -4.384  12.154  19.143  0.00  0.00    +0.000 A 
ENDROOT
BRANCH   1  12
ATOM     12  C   UNL     1      -1.917  12.279  18.697  0.00  0.00    +0.000 C 
BRANCH  12  14
ATOM     13  N   UNL     1      -0.015  10.819  19.155  0.00  0.00    +0.000 N 
ATOM     14  C   UNL     1      -1.274  10.902  18.586  0.00  0.00    +0.000 C 
ATOM     15  O   UNL     1      -1.897   9.979  18.065  0.00  0.00    +0.000 OA
ATOM     16  H   UNL     1       0.317  11.632  19.670  0.00  0.00    +0.000 HD
BRANCH  13  20
ATOM     17  C   UNL     1       2.484   7.399  19.112  0.00  0.00    +0.000 A 
ATOM     18  C   UNL     1       1.834   7.767  20.291  0.00  0.00    +0.000 A 
ATOM     19  C   UNL     1       1.003   8.889  20.321  0.00  0.00    +0.000 A 
ATOM     20  C   UNL     1       0.806   9.669  19.179  0.00  0.00    +0.000 A 
ATOM     21  C   UNL     1       1.447   9.293  17.993  0.00  0.00    +0.000 A 
ATOM     22  C   UNL     1       2.285   8.173  17.962  0.00  0.00    +0.000 A 
BRANCH  17  24
ATOM     23  C   UNL     1       3.347   5.562  17.668  0.00  0.00    +0.000 C 
ATOM     24  C   UNL     1       3.322   6.150  19.069  0.00  0.00    +0.000 C 
ENDBRANCH  17  24
ENDBRANCH  13  20
ENDBRANCH  12  14
ENDBRANCH   1  12
BRANCH   4  25
ATOM     25  C   UNL     1      -3.623  12.857  23.225  0.00  0.00    +0.000 C 
BRANCH  25  26
ATOM     26  C   UNL     1      -3.316  14.303  23.552  0.00  0.00    +0.000 A 
ATOM     27  C   UNL     1      -4.319  15.286  23.601  0.00  0.00    +0.000 A 
ATOM     28  C   UNL     1      -4.019  16.593  24.007  0.00  0.00    +0.000 A 
ATOM     29  C   UNL     1      -2.717  16.935  24.376  0.00  0.00    +0.000 A 
ATOM     30  C   UNL     1      -1.712  15.971  24.328  0.00  0.00    +0.000 A 
ATOM     31  C   UNL     1      -2.018  14.674  23.921  0.00  0.00    +0.000 A 
ATOM     32  F   UNL     1      -1.036  13.762  23.916  0.00  0.00    +0.000 F 
ENDBRANCH  25  26
ENDBRANCH   4  25
TORSDOF 6
ENDMDL
MODEL 7
REMARK VINA RESULT:      -7.3      5.596      8.941
REMARK  Name = 
REMARK  7 active torsions:
REMARK  status: ('A' for Active; 'I' for Inactive)
REMARK    1  A    between atoms: C_1  and  C_2
REMARK    2  A    between atoms: C_2  and  C_3
REMARK    3  A    between atoms: C_6  and  N_7
REMARK    4  A    between atoms: C_8  and  C_10
REMARK    5  A    between atoms: C_10  and  N_11
REMARK    6  A    between atoms: N_14  and  C_15
REMARK    7  A    between atoms: C_15  and  C_16
REMARK                            x       y       z     vdW  Elec       q    Type
REMARK                         _______ _______ _______ _____ _____    ______ ____
ROOT
ATOM      1  N   UNL     1       0.502  10.362  19.589  0.00  0.00    +0.000 N 
ATOM      2  C   UNL     1       0.945  11.500  20.274  0.00  0.00    +0.000 A 
ATOM      3  O   UNL     1       1.648  11.384  21.281  0.00  0.00    +0.000 OA
ATOM      4  N   UNL     1       0.549  12.744  19.773  0.00  0.00    +0.000 N 
ATOM      5  C   UNL     1      -0.478  12.934  18.840  0.00  0.00    +0.000 A 
ATOM      6  O   UNL     1      -0.858  14.049  18.486  0.00  0.00    +0.000 OA
ATOM      7  C   UNL     1      -1.038  11.705  18.351  0.00  0.00    +0.000 A 
ATOM      8  S   UNL     1      -2.382  11.642  17.314  0.00  0.00    +0.000 S 
ATOM      9  C   UNL     1      -2.320   9.932  17.265  0.00  0.00    +0.000 A 
ATOM     10  C   UNL     1      -1.264   9.435  18.004  0.00  0.00    +0.000 A 
ATOM     11  C   UNL     1      -0.553  10.471  18.677  0.00  0.00    +0.000 A 
ENDROOT
BRANCH   1  12
ATOM     12  C   UNL     1       1.110   9.081  19.941  0.00  0.00    +0.000 C 
BRANCH  12  14
ATOM     13  N   UNL     1       2.367   7.208  19.008  0.00  0.00    +0.000 N 
ATOM     14  C   UNL     1       2.008   8.533  18.839  0.00  0.00    +0.000 C 
ATOM     15  O   UNL     1       2.309   9.251  17.885  0.00  0.00    +0.000 OA
ATOM     16  H   UNL     1       1.932   6.702  19.777  0.00  0.00    +0.000 HD
BRANCH  13  20
ATOM     17  C   UNL     1       4.792   4.872  16.438  0.00  0.00    +0.000 A 
ATOM     18  C   UNL     1       5.024   6.243  16.551  0.00  0.00    +0.000 A 
ATOM     19  C   UNL     1       4.237   7.027  17.398  0.00  0.00    +0.000 A 
ATOM     20  C   UNL     1       3.200   6.461  18.144  0.00  0.00    +0.000 A 
ATOM     21  C   UNL     1       2.975   5.084  18.041  0.00  0.00    +0.000 A 
ATOM     22  C   UNL     1       3.759   4.298  17.189  0.00  0.00    +0.000 A 
BRANCH  17  24
ATOM     23  C   UNL     1       6.822   4.848  14.994  0.00  0.00    +0.000 C 
ATOM     24  C   UNL     1       5.687   4.022  15.577  0.00  0.00    +0.000 C 
ENDBRANCH  17  24
ENDBRANCH  13  20
ENDBRANCH  12  14
ENDBRANCH   1  12
BRANCH   4  25
ATOM     25  C   UNL     1       1.149  13.935  20.364  0.00  0.00    +0.000 C 
BRANCH  25  26
ATOM     26  C   UNL     1       2.127  14.649  19.456  0.00  0.00    +0.000 A 
ATOM     27  C   UNL     1       3.235  13.996  18.891  0.00  0.00    +0.000 A 
ATOM     28  C   UNL     1       4.062  14.657  17.974  0.00  0.00    +0.000 A 
ATOM     29  C   UNL     1       3.793  15.975  17.605  0.00  0.00    +0.000 A 
ATOM     30  C   UNL     1       2.701  16.637  18.161  0.00  0.00    +0.000 A 
ATOM     31  C   UNL     1       1.883  15.974  19.074  0.00  0.00    +0.000 A 
ATOM     32  F   UNL     1       0.822  16.627  19.567  0.00  0.00    +0.000 F 
ENDBRANCH  25  26
ENDBRANCH   4  25
TORSDOF 6
ENDMDL
MODEL 8
REMARK VINA RESULT:      -7.3      8.005     11.295
REMARK  Name = 
REMARK  7 active torsions:
REMARK  status: ('A' for Active; 'I' for Inactive)
REMARK    1  A    between atoms: C_1  and  C_2
REMARK    2  A    between atoms: C_2  and  C_3
REMARK    3  A    between atoms: C_6  and  N_7
REMARK    4  A    between atoms: C_8  and  C_10
REMARK    5  A    between atoms: C_10  and  N_11
REMARK    6  A    between atoms: N_14  and  C_15
REMARK    7  A    between atoms: C_15  and  C_16
REMARK                            x       y       z     vdW  Elec       q    Type
REMARK                         _______ _______ _______ _____ _____    ______ ____
ROOT
ATOM      1  N   UNL     1      -2.974  12.350  19.888  0.00  0.00    +0.000 N 
ATOM      2  C   UNL     1      -2.680  12.333  21.256  0.00  0.00    +0.000 A 
ATOM      3  O   UNL     1      -1.530  12.106  21.642  0.00  0.00    +0.000 OA
ATOM      4  N   UNL     1      -3.736  12.570  22.142  0.00  0.00    +0.000 N 
ATOM      5  C   UNL     1      -5.091  12.527  21.791  0.00  0.00    +0.000 A 
ATOM      6  O   UNL     1      -5.996  12.656  22.613  0.00  0.00    +0.000 OA
ATOM      7  C   UNL     1      -5.310  12.314  20.388  0.00  0.00    +0.000 A 
ATOM      8  S   UNL     1      -6.851  12.090  19.708  0.00  0.00    +0.000 S 
ATOM      9  C   UNL     1      -6.186  11.941  18.138  0.00  0.00    +0.000 A 
ATOM     10  C   UNL     1      -4.814  12.098  18.144  0.00  0.00    +0.000 A 
ATOM     11  C   UNL     1      -4.304  12.264  19.465  0.00  0.00    +0.000 A 
ENDROOT
BRANCH   1  12
ATOM     12  C   UNL     1      -1.849  12.361  18.955  0.00  0.00    +0.000 C 
BRANCH  12  14
ATOM     13  N   UNL     1       0.063  10.863  19.200  0.00  0.00    +0.000 N 
ATOM     14  C   UNL     1      -1.241  10.979  18.751  0.00  0.00    +0.000 C 
ATOM     15  O   UNL     1      -1.924  10.078  18.267  0.00  0.00    +0.000 OA
ATOM     16  H   UNL     1       0.454  11.657  19.703  0.00  0.00    +0.000 HD
BRANCH  13  20
ATOM     17  C   UNL     1       2.423   7.348  19.074  0.00  0.00    +0.000 A 
ATOM     18  C   UNL     1       2.316   8.151  17.938  0.00  0.00    +0.000 A 
ATOM     19  C   UNL     1       1.546   9.316  17.964  0.00  0.00    +0.000 A 
ATOM     20  C   UNL     1       0.864   9.701  19.121  0.00  0.00    +0.000 A 
ATOM     21  C   UNL     1       0.981   8.904  20.264  0.00  0.00    +0.000 A 
ATOM     22  C   UNL     1       1.748   7.733  20.239  0.00  0.00    +0.000 A 
BRANCH  17  24
ATOM     23  C   UNL     1       2.664   4.999  18.281  0.00  0.00    +0.000 C 
ATOM     24  C   UNL     1       3.310   6.133  19.060  0.00  0.00    +0.000 C 
ENDBRANCH  17  24
ENDBRANCH  13  20
ENDBRANCH  12  14
ENDBRANCH   1  12
BRANCH   4  25
ATOM     25  C   UNL     1      -3.413  12.735  23.554  0.00  0.00    +0.000 C 
BRANCH  25  26
ATOM     26  C   UNL     1      -2.897  14.112  23.914  0.00  0.00    +0.000 A 
ATOM     27  C   UNL     1      -1.526  14.417  23.919  0.00  0.00    +0.000 A 
ATOM     28  C   UNL     1      -1.088  15.727  24.156  0.00  0.00    +0.000 A 
ATOM     29  C   UNL     1      -2.010  16.748  24.384  0.00  0.00    +0.000 A 
ATOM     30  C   UNL     1      -3.372  16.459  24.386  0.00  0.00    +0.000 A 
ATOM     31  C   UNL     1      -3.801  15.154  24.152  0.00  0.00    +0.000 A 
ATOM     32  F   UNL     1      -5.120  14.913  24.129  0.00  0.00    +0.000 F 
ENDBRANCH  25  26
ENDBRANCH   4  25
TORSDOF 6
ENDMDL
MODEL 9
REMARK VINA RESULT:      -7.2      6.688     10.235
REMARK  Name = 
REMARK  7 active torsions:
REMARK  status: ('A' for Active; 'I' for Inactive)
REMARK    1  A    between atoms: C_1  and  C_2
REMARK    2  A    between atoms: C_2  and  C_3
REMARK    3  A    between atoms: C_6  and  N_7
REMARK    4  A    between atoms: C_8  and  C_10
REMARK    5  A    between atoms: C_10  and  N_11
REMARK    6  A    between atoms: N_14  and  C_15
REMARK    7  A    between atoms: C_15  and  C_16
REMARK                            x       y       z     vdW  Elec       q    Type
REMARK                         _______ _______ _______ _____ _____    ______ ____
ROOT
ATOM      1  N   UNL     1      -0.188  11.148  21.907  0.00  0.00    +0.000 N 
ATOM      2  C   UNL     1      -1.353  11.658  22.493  0.00  0.00    +0.000 A 
ATOM      3  O   UNL     1      -1.966  10.997  23.335  0.00  0.00    +0.000 OA
ATOM      4  N   UNL     1      -1.780  12.922  22.074  0.00  0.00    +0.000 N 
ATOM      5  C   UNL     1      -1.317  13.577  20.926  0.00  0.00    +0.000 A 
ATOM      6  O   UNL     1      -1.776  14.650  20.541  0.00  0.00    +0.000 OA
ATOM      7  C   UNL     1      -0.265  12.868  20.251  0.00  0.00    +0.000 A 
ATOM      8  S   UNL     1       0.390  13.366  18.765  0.00  0.00    +0.000 S 
ATOM      9  C   UNL     1       1.481  12.048  18.753  0.00  0.00    +0.000 A 
ATOM     10  C   UNL     1       1.360  11.270  19.888  0.00  0.00    +0.000 A 
ATOM     11  C   UNL     1       0.305  11.724  20.732  0.00  0.00    +0.000 A 
ENDROOT
BRANCH   1  12
ATOM     12  C   UNL     1       0.407   9.958  22.512  0.00  0.00    +0.000 C 
BRANCH  12  14
ATOM     13  N   UNL     1       1.607   8.266  21.225  0.00  0.00    +0.000 N 
ATOM     14  C   UNL     1       0.362   8.745  21.591  0.00  0.00    +0.000 C 
ATOM     15  O   UNL     1      -0.724   8.257  21.280  0.00  0.00    +0.000 OA
ATOM     16  H   UNL     1       2.418   8.691  21.669  0.00  0.00    +0.000 HD
BRANCH  13  20
ATOM     17  C   UNL     1       2.388   5.048  18.584  0.00  0.00    +0.000 A 
ATOM     18  C   UNL     1       1.912   4.788  19.870  0.00  0.00    +0.000 A 
ATOM     19  C   UNL     1       1.645   5.838  20.752  0.00  0.00    +0.000 A 
ATOM     20  C   UNL     1       1.851   7.167  20.371  0.00  0.00    +0.000 A 
ATOM     21  C   UNL     1       2.315   7.428  19.078  0.00  0.00    +0.000 A 
ATOM     22  C   UNL     1       2.589   6.377  18.194  0.00  0.00    +0.000 A 
BRANCH  17  24
ATOM     23  C   UNL     1       1.902   2.655  18.087  0.00  0.00    +0.000 C 
ATOM     24  C   UNL     1       2.607   3.917  17.616  0.00  0.00    +0.000 C 
ENDBRANCH  17  24
ENDBRANCH  13  20
ENDBRANCH  12  14
ENDBRANCH   1  12
BRANCH   4  25
ATOM     25  C   UNL     1      -2.882  13.542  22.802  0.00  0.00    +0.000 C 
BRANCH  25  26
ATOM     26  C   UNL     1      -4.254  13.156  22.291  0.00  0.00    +0.000 A 
ATOM     27  C   UNL     1      -4.466  12.731  20.968  0.00  0.00    +0.000 A 
ATOM     28  C   UNL     1      -5.728  12.283  20.557  0.00  0.00    +0.000 A 
ATOM     29  C   UNL     1      -6.792  12.248  21.458  0.00  0.00    +0.000 A 
ATOM     30  C   UNL     1      -6.597  12.671  22.771  0.00  0.00    +0.000 A 
ATOM     31  C   UNL     1      -5.340  13.117  23.173  0.00  0.00    +0.000 A 
ATOM     32  F   UNL     1      -5.176  13.487  24.451  0.00  0.00    +0.000 F 
ENDBRANCH  25  26
ENDBRANCH   4  25
TORSDOF 6
ENDMDL
