MODEL 1
REMARK VINA RESULT:      -8.2      0.000      0.000
REMARK  Name = 
REMARK  11 active torsions:
REMARK  status: ('A' for Active; 'I' for Inactive)
REMARK    1  A    between atoms: C_1  and  C_2
REMARK    2  A    between atoms: C_10  and  C_11
REMARK    3  A    between atoms: C_11  and  C_12
REMARK    4  A    between atoms: C_12  and  N_13
REMARK    5  A    between atoms: N_13  and  C_14
REMARK    6  A    between atoms: C_14  and  C_15
REMARK    7  A    between atoms: C_18  and  C_19
REMARK    8  A    between atoms: C_20  and  C_21
REMARK    9  A    between atoms: N_23  and  N_24
REMARK   10  A    between atoms: N_24  and  C_25
REMARK   11  A    between atoms: N_24  and  C_26
REMARK                            x       y       z     vdW  Elec       q    Type
REMARK                         _______ _______ _______ _____ _____    ______ ____
ROOT
ATOM      1  C   UNL     1       6.405   4.295  17.941  0.00  0.00    +0.000 C 
ENDROOT
BRANCH   1   2
ATOM      2  C   UNL     1       6.952   5.699  17.966  0.00  0.00    +0.000 A 
ATOM      3  C   UNL     1       7.919   6.071  18.911  0.00  0.00    +0.000 A 
ATOM      4  C   UNL     1       8.394   7.379  18.958  0.00  0.00    +0.000 A 
ATOM      5  C   UNL     1       7.932   8.331  18.042  0.00  0.00    +0.000 A 
ATOM      6  C   UNL     1       6.972   7.957  17.094  0.00  0.00    +0.000 A 
ATOM      7  C   UNL     1       6.493   6.650  17.049  0.00  0.00    +0.000 A 
BRANCH   5   8
ATOM      8  C   UNL     1       8.442   9.697  18.140  0.00  0.00    +0.000 C 
ATOM      9  C   UNL     1       9.316  10.098  19.075  0.00  0.00    +0.000 C 
BRANCH   9  10
ATOM     10  C   UNL     1       9.718  11.522  19.101  0.00  0.00    +0.000 C 
ATOM     11  O   UNL     1       8.941  12.410  18.775  0.00  0.00    +0.000 OA
ATOM     12  N   UNL     1      11.024  11.689  19.536  0.00  0.00    +0.000 N 
ATOM     13  H   UNL     1      11.595  10.888  19.784  0.00  0.00    +0.000 HD
BRANCH  12  14
ATOM     14  N   UNL     1      11.617  12.964  19.697  0.00  0.00    +0.000 NA
ATOM     15  C   UNL     1      11.909  13.594  18.406  0.00  0.00    +0.000 C 
ATOM     16  C   UNL     1      10.801  13.840  20.543  0.00  0.00    +0.000 C 
ENDBRANCH  12  14
ENDBRANCH   9  10
ENDBRANCH   5   8
ENDBRANCH   1   2
BRANCH   1  17
ATOM     17  N   UNL     1       5.816   3.944  19.230  0.00  0.00    +0.000 NA
ATOM     18  H   UNL     1       6.440   3.305  19.723  0.00  0.00    +0.000 HD
BRANCH  17  19
ATOM     19  C   UNL     1       4.508   3.296  19.097  0.00  0.00    +0.000 C 
BRANCH  19  20
ATOM     20  C   UNL     1       3.405   4.121  18.407  0.00  0.00    +0.000 C 
BRANCH  20  30
ATOM     21  C   UNL     1       2.088   3.767  21.361  0.00  0.00    +0.000 C 
ATOM     22  C   UNL     1       2.255   4.999  20.544  0.00  0.00    +0.000 A 
ATOM     23  N   UNL     1       1.854   6.226  21.012  0.00  0.00    +0.000 N 
ATOM     24  C   UNL     1       1.974   7.183  20.035  0.00  0.00    +0.000 A 
ATOM     25  C   UNL     1       1.645   8.546  20.067  0.00  0.00    +0.000 A 
ATOM     26  C   UNL     1       1.803   9.282  18.890  0.00  0.00    +0.000 A 
ATOM     27  C   UNL     1       2.270   8.674  17.730  0.00  0.00    +0.000 A 
ATOM     28  C   UNL     1       2.629   7.317  17.727  0.00  0.00    +0.000 A 
ATOM     29  C   UNL     1       2.494   6.550  18.905  0.00  0.00    +0.000 A 
ATOM     30  C   UNL     1       2.768   5.183  19.265  0.00  0.00    +0.000 A 
ATOM     31  H   UNL     1       1.462   6.400  21.926  0.00  0.00    +0.000 HD
ENDBRANCH  20  30
ENDBRANCH  19  20
ENDBRANCH  17  19
ENDBRANCH   1  17
TORSDOF 8
ENDMDL
MODEL 2
REMARK VINA RESULT:      -8.2      1.261      1.603
REMARK  Name = 
REMARK  11 active torsions:
REMARK  status: ('A' for Active; 'I' for Inactive)
REMARK    1  A    between atoms: C_1  and  C_2
REMARK    2  A    between atoms: C_10  and  C_11
REMARK    3  A    between atoms: C_11  and  C_12
REMARK    4  A    between atoms: C_12  and  N_13
REMARK    5  A    between atoms: N_13  and  C_14
REMARK    6  A    between atoms: C_14  and  C_15
REMARK    7  A    between atoms: C_18  and  C_19
REMARK    8  A    between atoms: C_20  and  C_21
REMARK    9  A    between atoms: N_23  and  N_24
REMARK   10  A    between atoms: N_24  and  C_25
REMARK   11  A    between atoms: N_24  and  C_26
REMARK                            x       y       z     vdW  Elec       q    Type
REMARK                         _______ _______ _______ _____ _____    ______ ____
ROOT
ATOM      1  C   UNL     1       5.969   3.846  17.554  0.00  0.00    +0.000 C 
ENDROOT
BRANCH   1   2
ATOM      2  C   UNL     1       6.531   5.239  17.675  0.00  0.00    +0.000 A 
ATOM      3  C   UNL     1       5.972   6.299  16.945  0.00  0.00    +0.000 A 
ATOM      4  C   UNL     1       6.517   7.578  17.029  0.00  0.00    +0.000 A 
ATOM      5  C   UNL     1       7.611   7.826  17.866  0.00  0.00    +0.000 A 
ATOM      6  C   UNL     1       8.163   6.769  18.600  0.00  0.00    +0.000 A 
ATOM      7  C   UNL     1       7.622   5.489  18.514  0.00  0.00    +0.000 A 
BRANCH   5   8
ATOM      8  C   UNL     1       8.164   9.178  17.908  0.00  0.00    +0.000 C 
ATOM      9  C   UNL     1       9.031   9.596  18.842  0.00  0.00    +0.000 C 
BRANCH   9  10
ATOM     10  C   UNL     1       9.479  11.007  18.806  0.00  0.00    +0.000 C 
ATOM     11  O   UNL     1      10.116  11.451  17.860  0.00  0.00    +0.000 OA
ATOM     12  N   UNL     1       9.081  11.710  19.934  0.00  0.00    +0.000 N 
ATOM     13  H   UNL     1       8.554  11.254  20.671  0.00  0.00    +0.000 HD
BRANCH  12  14
ATOM     14  N   UNL     1       9.344  13.090  20.103  0.00  0.00    +0.000 NA
ATOM     15  C   UNL     1       8.173  13.911  19.783  0.00  0.00    +0.000 C 
ATOM     16  C   UNL     1       9.848  13.386  21.447  0.00  0.00    +0.000 C 
ENDBRANCH  12  14
ENDBRANCH   9  10
ENDBRANCH   5   8
ENDBRANCH   1   2
BRANCH   1  17
ATOM     17  N   UNL     1       4.876   3.642  18.500  0.00  0.00    +0.000 NA
ATOM     18  H   UNL     1       5.249   3.251  19.365  0.00  0.00    +0.000 HD
BRANCH  17  19
ATOM     19  C   UNL     1       3.848   2.730  17.990  0.00  0.00    +0.000 C 
BRANCH  19  20
ATOM     20  C   UNL     1       2.386   3.178  18.178  0.00  0.00    +0.000 C 
BRANCH  20  30
ATOM     21  C   UNL     1       1.576   2.870  21.314  0.00  0.00    +0.000 C 
ATOM     22  C   UNL     1       1.874   4.100  20.534  0.00  0.00    +0.000 A 
ATOM     23  N   UNL     1       1.858   5.340  21.123  0.00  0.00    +0.000 N 
ATOM     24  C   UNL     1       2.019   6.328  20.183  0.00  0.00    +0.000 A 
ATOM     25  C   UNL     1       2.026   7.722  20.336  0.00  0.00    +0.000 A 
ATOM     26  C   UNL     1       2.135   8.503  19.183  0.00  0.00    +0.000 A 
ATOM     27  C   UNL     1       2.232   7.909  17.929  0.00  0.00    +0.000 A 
ATOM     28  C   UNL     1       2.261   6.513  17.799  0.00  0.00    +0.000 A 
ATOM     29  C   UNL     1       2.166   5.695  18.947  0.00  0.00    +0.000 A 
ATOM     30  C   UNL     1       2.177   4.276  19.188  0.00  0.00    +0.000 A 
ATOM     31  H   UNL     1       1.688   5.516  22.102  0.00  0.00    +0.000 HD
ENDBRANCH  20  30
ENDBRANCH  19  20
ENDBRANCH  17  19
ENDBRANCH   1  17
TORSDOF 8
ENDMDL
MODEL 3
REMARK VINA RESULT:      -8.1      1.113      1.442
REMARK  Name = 
REMARK  11 active torsions:
REMARK  status: ('A' for Active; 'I' for Inactive)
REMARK    1  A    between atoms: C_1  and  C_2
REMARK    2  A    between atoms: C_10  and  C_11
REMARK    3  A    between atoms: C_11  and  C_12
REMARK    4  A    between atoms: C_12  and  N_13
REMARK    5  A    between atoms: N_13  and  C_14
REMARK    6  A    between atoms: C_14  and  C_15
REMARK    7  A    between atoms: C_18  and  C_19
REMARK    8  A    between atoms: C_20  and  C_21
REMARK    9  A    between atoms: N_23  and  N_24
REMARK   10  A    between atoms: N_24  and  C_25
REMARK   11  A    between atoms: N_24  and  C_26
REMARK                            x       y       z     vdW  Elec       q    Type
REMARK                         _______ _______ _______ _____ _____    ______ ____
ROOT
ATOM      1  C   UNL     1       6.006   4.795  16.253  0.00  0.00    +0.000 C 
ENDROOT
BRANCH   1   2
ATOM      2  C   UNL     1       6.723   5.902  16.983  0.00  0.00    +0.000 A 
ATOM      3  C   UNL     1       6.642   7.225  16.526  0.00  0.00    +0.000 A 
ATOM      4  C   UNL     1       7.337   8.241  17.178  0.00  0.00    +0.000 A 
ATOM      5  C   UNL     1       8.100   7.955  18.317  0.00  0.00    +0.000 A 
ATOM      6  C   UNL     1       8.174   6.635  18.776  0.00  0.00    +0.000 A 
ATOM      7  C   UNL     1       7.483   5.618  18.122  0.00  0.00    +0.000 A 
BRANCH   5   8
ATOM      8  C   UNL     1       8.830   9.047  18.959  0.00  0.00    +0.000 C 
ATOM      9  C   UNL     1       8.977  10.263  18.412  0.00  0.00    +0.000 C 
BRANCH   9  10
ATOM     10  C   UNL     1       9.782  11.270  19.139  0.00  0.00    +0.000 C 
ATOM     11  O   UNL     1      10.475  10.960  20.100  0.00  0.00    +0.000 OA
ATOM     12  N   UNL     1       9.653  12.538  18.592  0.00  0.00    +0.000 N 
ATOM     13  H   UNL     1       9.050  12.698  17.791  0.00  0.00    +0.000 HD
BRANCH  12  14
ATOM     14  N   UNL     1      10.369  13.656  19.080  0.00  0.00    +0.000 NA
ATOM     15  C   UNL     1      11.158  14.299  18.026  0.00  0.00    +0.000 C 
ATOM     16  C   UNL     1       9.486  14.619  19.744  0.00  0.00    +0.000 C 
ENDBRANCH  12  14
ENDBRANCH   9  10
ENDBRANCH   5   8
ENDBRANCH   1   2
BRANCH   1  17
ATOM     17  N   UNL     1       5.754   3.664  17.142  0.00  0.00    +0.000 NA
ATOM     18  H   UNL     1       5.863   2.795  16.620  0.00  0.00    +0.000 HD
BRANCH  17  19
ATOM     19  C   UNL     1       4.407   3.687  17.720  0.00  0.00    +0.000 C 
BRANCH  19  20
ATOM     20  C   UNL     1       4.324   3.832  19.252  0.00  0.00    +0.000 C 
BRANCH  20  30
ATOM     21  C   UNL     1       2.194   3.498  21.688  0.00  0.00    +0.000 C 
ATOM     22  C   UNL     1       2.458   4.677  20.821  0.00  0.00    +0.000 A 
ATOM     23  N   UNL     1       1.780   5.859  20.997  0.00  0.00    +0.000 N 
ATOM     24  C   UNL     1       2.085   6.749  19.997  0.00  0.00    +0.000 A 
ATOM     25  C   UNL     1       1.597   8.043  19.767  0.00  0.00    +0.000 A 
ATOM     26  C   UNL     1       2.027   8.706  18.615  0.00  0.00    +0.000 A 
ATOM     27  C   UNL     1       2.910   8.093  17.731  0.00  0.00    +0.000 A 
ATOM     28  C   UNL     1       3.415   6.812  17.997  0.00  0.00    +0.000 A 
ATOM     29  C   UNL     1       3.010   6.122  19.160  0.00  0.00    +0.000 A 
ATOM     30  C   UNL     1       3.323   4.844  19.745  0.00  0.00    +0.000 A 
ATOM     31  H   UNL     1       1.101   6.037  21.723  0.00  0.00    +0.000 HD
ENDBRANCH  20  30
ENDBRANCH  19  20
ENDBRANCH  17  19
ENDBRANCH   1  17
TORSDOF 8
ENDMDL
MODEL 4
REMARK VINA RESULT:      -8.1      1.115      1.542
REMARK  Name = 
REMARK  11 active torsions:
REMARK  status: ('A' for Active; 'I' for Inactive)
REMARK    1  A    between atoms: C_1  and  C_2
REMARK    2  A    between atoms: C_10  and  C_11
REMARK    3  A    between atoms: C_11  and  C_12
REMARK    4  A    between atoms: C_12  and  N_13
REMARK    5  A    between atoms: N_13  and  C_14
REMARK    6  A    between atoms: C_14  and  C_15
REMARK    7  A    between atoms: C_18  and  C_19
REMARK    8  A    between atoms: C_20  and  C_21
REMARK    9  A    between atoms: N_23  and  N_24
REMARK   10  A    between atoms: N_24  and  C_25
REMARK   11  A    between atoms: N_24  and  C_26
REMARK                            x       y       z     vdW  Elec       q    Type
REMARK                         _______ _______ _______ _____ _____    ______ ____
ROOT
ATOM      1  C   UNL     1       4.738   4.390  16.772  0.00  0.00    +0.000 C 
ENDROOT
BRANCH   1   2
ATOM      2  C   UNL     1       5.730   5.445  17.188  0.00  0.00    +0.000 A 
ATOM      3  C   UNL     1       5.636   6.750  16.684  0.00  0.00    +0.000 A 
ATOM      4  C   UNL     1       6.577   7.714  17.038  0.00  0.00    +0.000 A 
ATOM      5  C   UNL     1       7.612   7.397  17.926  0.00  0.00    +0.000 A 
ATOM      6  C   UNL     1       7.701   6.095  18.435  0.00  0.00    +0.000 A 
ATOM      7  C   UNL     1       6.763   5.130  18.077  0.00  0.00    +0.000 A 
BRANCH   5   8
ATOM      8  C   UNL     1       8.590   8.432  18.255  0.00  0.00    +0.000 C 
ATOM      9  C   UNL     1       8.309   9.743  18.259  0.00  0.00    +0.000 C 
BRANCH   9  10
ATOM     10  C   UNL     1       9.400  10.697  18.560  0.00  0.00    +0.000 C 
ATOM     11  O   UNL     1      10.174  11.076  17.690  0.00  0.00    +0.000 OA
ATOM     12  N   UNL     1       9.405  11.084  19.892  0.00  0.00    +0.000 N 
ATOM     13  H   UNL     1       8.720  10.712  20.542  0.00  0.00    +0.000 HD
BRANCH  12  14
ATOM     14  N   UNL     1      10.321  12.030  20.408  0.00  0.00    +0.000 NA
ATOM     15  C   UNL     1      11.703  11.705  20.043  0.00  0.00    +0.000 C 
ATOM     16  C   UNL     1       9.974  13.397  20.007  0.00  0.00    +0.000 C 
ENDBRANCH  12  14
ENDBRANCH   9  10
ENDBRANCH   5   8
ENDBRANCH   1   2
BRANCH   1  17
ATOM     17  N   UNL     1       4.971   3.144  17.496  0.00  0.00    +0.000 NA
ATOM     18  H   UNL     1       5.009   2.371  16.831  0.00  0.00    +0.000 HD
BRANCH  17  19
ATOM     19  C   UNL     1       3.920   2.853  18.476  0.00  0.00    +0.000 C 
BRANCH  19  20
ATOM     20  C   UNL     1       2.568   3.559  18.256  0.00  0.00    +0.000 C 
BRANCH  20  30
ATOM     21  C   UNL     1       1.727   3.251  21.384  0.00  0.00    +0.000 C 
ATOM     22  C   UNL     1       1.940   4.485  20.582  0.00  0.00    +0.000 A 
ATOM     23  N   UNL     1       1.814   5.732  21.144  0.00  0.00    +0.000 N 
ATOM     24  C   UNL     1       1.912   6.710  20.185  0.00  0.00    +0.000 A 
ATOM     25  C   UNL     1       1.804   8.102  20.308  0.00  0.00    +0.000 A 
ATOM     26  C   UNL     1       1.871   8.867  19.140  0.00  0.00    +0.000 A 
ATOM     27  C   UNL     1       2.039   8.257  17.901  0.00  0.00    +0.000 A 
ATOM     28  C   UNL     1       2.183   6.865  17.802  0.00  0.00    +0.000 A 
ATOM     29  C   UNL     1       2.133   6.066  18.966  0.00  0.00    +0.000 A 
ATOM     30  C   UNL     1       2.253   4.658  19.238  0.00  0.00    +0.000 A 
ATOM     31  H   UNL     1       1.612   5.914  22.116  0.00  0.00    +0.000 HD
ENDBRANCH  20  30
ENDBRANCH  19  20
ENDBRANCH  17  19
ENDBRANCH   1  17
TORSDOF 8
ENDMDL
MODEL 5
REMARK VINA RESULT:      -7.9      1.575      2.952
REMARK  Name = 
REMARK  11 active torsions:
REMARK  status: ('A' for Active; 'I' for Inactive)
REMARK    1  A    between atoms: C_1  and  C_2
REMARK    2  A    between atoms: C_10  and  C_11
REMARK    3  A    between atoms: C_11  and  C_12
REMARK    4  A    between atoms: C_12  and  N_13
REMARK    5  A    between atoms: N_13  and  C_14
REMARK    6  A    between atoms: C_14  and  C_15
REMARK    7  A    between atoms: C_18  and  C_19
REMARK    8  A    between atoms: C_20  and  C_21
REMARK    9  A    between atoms: N_23  and  N_24
REMARK   10  A    between atoms: N_24  and  C_25
REMARK   11  A    between atoms: N_24  and  C_26
REMARK                            x       y       z     vdW  Elec       q    Type
REMARK                         _______ _______ _______ _____ _____    ______ ____
ROOT
ATOM      1  C   UNL     1       6.593   4.412  18.129  0.00  0.00    +0.000 C 
ENDROOT
BRANCH   1   2
ATOM      2  C   UNL     1       7.147   5.814  18.108  0.00  0.00    +0.000 A 
ATOM      3  C   UNL     1       8.054   6.236  19.091  0.00  0.00    +0.000 A 
ATOM      4  C   UNL     1       8.534   7.543  19.094  0.00  0.00    +0.000 A 
ATOM      5  C   UNL     1       8.140   8.442  18.095  0.00  0.00    +0.000 A 
ATOM      6  C   UNL     1       7.241   8.017  17.110  0.00  0.00    +0.000 A 
ATOM      7  C   UNL     1       6.756   6.712  17.110  0.00  0.00    +0.000 A 
BRANCH   5   8
ATOM      8  C   UNL     1       8.653   9.810  18.147  0.00  0.00    +0.000 C 
ATOM      9  C   UNL     1       9.385  10.289  19.163  0.00  0.00    +0.000 C 
BRANCH   9  10
ATOM     10  C   UNL     1       9.802  11.709  19.123  0.00  0.00    +0.000 C 
ATOM     11  O   UNL     1      10.648  12.104  18.331  0.00  0.00    +0.000 OA
ATOM     12  N   UNL     1       9.121  12.481  20.053  0.00  0.00    +0.000 N 
ATOM     13  H   UNL     1       8.435  12.061  20.672  0.00  0.00    +0.000 HD
BRANCH  12  14
ATOM     14  N   UNL     1       9.308  13.878  20.167  0.00  0.00    +0.000 NA
ATOM     15  C   UNL     1       8.040  14.581  20.384  0.00  0.00    +0.000 C 
ATOM     16  C   UNL     1      10.285  14.213  21.208  0.00  0.00    +0.000 C 
ENDBRANCH  12  14
ENDBRANCH   9  10
ENDBRANCH   5   8
ENDBRANCH   1   2
BRANCH   1  17
ATOM     17  N   UNL     1       6.357   3.927  16.772  0.00  0.00    +0.000 NA
ATOM     18  H   UNL     1       6.544   4.679  16.108  0.00  0.00    +0.000 HD
BRANCH  17  19
ATOM     19  C   UNL     1       4.981   3.466  16.567  0.00  0.00    +0.000 C 
BRANCH  19  20
ATOM     20  C   UNL     1       3.910   4.564  16.412  0.00  0.00    +0.000 C 
BRANCH  20  30
ATOM     21  C   UNL     1       3.519   7.524  17.704  0.00  0.00    +0.000 C 
ATOM     22  C   UNL     1       2.996   6.213  18.174  0.00  0.00    +0.000 A 
ATOM     23  N   UNL     1       2.203   6.121  19.291  0.00  0.00    +0.000 N 
ATOM     24  C   UNL     1       1.964   4.807  19.610  0.00  0.00    +0.000 A 
ATOM     25  C   UNL     1       1.245   4.259  20.683  0.00  0.00    +0.000 A 
ATOM     26  C   UNL     1       1.224   2.868  20.811  0.00  0.00    +0.000 A 
ATOM     27  C   UNL     1       1.899   2.061  19.900  0.00  0.00    +0.000 A 
ATOM     28  C   UNL     1       2.583   2.626  18.813  0.00  0.00    +0.000 A 
ATOM     29  C   UNL     1       2.610   4.028  18.649  0.00  0.00    +0.000 A 
ATOM     30  C   UNL     1       3.178   4.927  17.678  0.00  0.00    +0.000 A 
ATOM     31  H   UNL     1       1.887   6.902  19.846  0.00  0.00    +0.000 HD
ENDBRANCH  20  30
ENDBRANCH  19  20
ENDBRANCH  17  19
ENDBRANCH   1  17
TORSDOF 8
ENDMDL
MODEL 6
REMARK VINA RESULT:      -7.8      4.352      7.148
REMARK  Name = 
REMARK  11 active torsions:
REMARK  status: ('A' for Active; 'I' for Inactive)
REMARK    1  A    between atoms: C_1  and  C_2
REMARK    2  A    between atoms: C_10  and  C_11
REMARK    3  A    between atoms: C_11  and  C_12
REMARK    4  A    between atoms: C_12  and  N_13
REMARK    5  A    between atoms: N_13  and  C_14
REMARK    6  A    between atoms: C_14  and  C_15
REMARK    7  A    between atoms: C_18  and  C_19
REMARK    8  A    between atoms: C_20  and  C_21
REMARK    9  A    between atoms: N_23  and  N_24
REMARK   10  A    between atoms: N_24  and  C_25
REMARK   11  A    between atoms: N_24  and  C_26
REMARK                            x       y       z     vdW  Elec       q    Type
REMARK                         _______ _______ _______ _____ _____    ______ ____
ROOT
ATOM      1  C   UNL     1       1.952   2.877  18.109  0.00  0.00    +0.000 C 
ENDROOT
BRANCH   1   2
ATOM      2  C   UNL     1       1.896   4.241  18.748  0.00  0.00    +0.000 A 
ATOM      3  C   UNL     1       1.431   4.392  20.063  0.00  0.00    +0.000 A 
ATOM      4  C   UNL     1       1.343   5.657  20.639  0.00  0.00    +0.000 A 
ATOM      5  C   UNL     1       1.747   6.789  19.921  0.00  0.00    +0.000 A 
ATOM      6  C   UNL     1       2.218   6.636  18.612  0.00  0.00    +0.000 A 
ATOM      7  C   UNL     1       2.302   5.372  18.034  0.00  0.00    +0.000 A 
BRANCH   5   8
ATOM      8  C   UNL     1       1.619   8.099  20.557  0.00  0.00    +0.000 C 
ATOM      9  C   UNL     1       0.880   8.323  21.653  0.00  0.00    +0.000 C 
BRANCH   9  10
ATOM     10  C   UNL     1       0.789   9.706  22.172  0.00  0.00    +0.000 C 
ATOM     11  O   UNL     1       0.646   9.932  23.366  0.00  0.00    +0.000 OA
ATOM     12  N   UNL     1       0.896  10.651  21.162  0.00  0.00    +0.000 N 
ATOM     13  H   UNL     1       1.012  10.366  20.195  0.00  0.00    +0.000 HD
BRANCH  12  14
ATOM     14  N   UNL     1       0.893  12.043  21.417  0.00  0.00    +0.000 NA
ATOM     15  C   UNL     1       1.793  12.764  20.512  0.00  0.00    +0.000 C 
ATOM     16  C   UNL     1      -0.462  12.600  21.372  0.00  0.00    +0.000 C 
ENDBRANCH  12  14
ENDBRANCH   9  10
ENDBRANCH   5   8
ENDBRANCH   1   2
BRANCH   1  17
ATOM     17  N   UNL     1       3.067   2.099  18.641  0.00  0.00    +0.000 NA
ATOM     18  H   UNL     1       3.288   2.427  19.582  0.00  0.00    +0.000 HD
BRANCH  17  19
ATOM     19  C   UNL     1       4.277   2.210  17.821  0.00  0.00    +0.000 C 
BRANCH  19  20
ATOM     20  C   UNL     1       4.140   3.001  16.506  0.00  0.00    +0.000 C 
BRANCH  20  30
ATOM     21  C   UNL     1       5.418   3.946  13.668  0.00  0.00    +0.000 C 
ATOM     22  C   UNL     1       5.688   4.454  15.039  0.00  0.00    +0.000 A 
ATOM     23  N   UNL     1       6.569   5.484  15.258  0.00  0.00    +0.000 N 
ATOM     24  C   UNL     1       6.764   5.681  16.603  0.00  0.00    +0.000 A 
ATOM     25  C   UNL     1       7.601   6.590  17.266  0.00  0.00    +0.000 A 
ATOM     26  C   UNL     1       7.661   6.522  18.660  0.00  0.00    +0.000 A 
ATOM     27  C   UNL     1       6.913   5.580  19.358  0.00  0.00    +0.000 A 
ATOM     28  C   UNL     1       6.053   4.703  18.680  0.00  0.00    +0.000 A 
ATOM     29  C   UNL     1       5.960   4.756  17.272  0.00  0.00    +0.000 A 
ATOM     30  C   UNL     1       5.200   4.047  16.276  0.00  0.00    +0.000 A 
ATOM     31  H   UNL     1       7.061   5.992  14.537  0.00  0.00    +0.000 HD
ENDBRANCH  20  30
ENDBRANCH  19  20
ENDBRANCH  17  19
ENDBRANCH   1  17
TORSDOF 8
ENDMDL
MODEL 7
REMARK VINA RESULT:      -7.8      1.166      1.642
REMARK  Name = 
REMARK  11 active torsions:
REMARK  status: ('A' for Active; 'I' for Inactive)
REMARK    1  A    between atoms: C_1  and  C_2
REMARK    2  A    between atoms: C_10  and  C_11
REMARK    3  A    between atoms: C_11  and  C_12
REMARK    4  A    between atoms: C_12  and  N_13
REMARK    5  A    between atoms: N_13  and  C_14
REMARK    6  A    between atoms: C_14  and  C_15
REMARK    7  A    between atoms: C_18  and  C_19
REMARK    8  A    between atoms: C_20  and  C_21
REMARK    9  A    between atoms: N_23  and  N_24
REMARK   10  A    between atoms: N_24  and  C_25
REMARK   11  A    between atoms: N_24  and  C_26
REMARK                            x       y       z     vdW  Elec       q    Type
REMARK                         _______ _______ _______ _____ _____    ______ ____
ROOT
ATOM      1  C   UNL     1       5.627   3.836  16.648  0.00  0.00    +0.000 C 
ENDROOT
BRANCH   1   2
ATOM      2  C   UNL     1       6.391   5.017  17.187  0.00  0.00    +0.000 A 
ATOM      3  C   UNL     1       6.230   6.289  16.618  0.00  0.00    +0.000 A 
ATOM      4  C   UNL     1       6.966   7.373  17.091  0.00  0.00    +0.000 A 
ATOM      5  C   UNL     1       7.853   7.209  18.162  0.00  0.00    +0.000 A 
ATOM      6  C   UNL     1       8.007   5.941  18.734  0.00  0.00    +0.000 A 
ATOM      7  C   UNL     1       7.275   4.856  18.258  0.00  0.00    +0.000 A 
BRANCH   5   8
ATOM      8  C   UNL     1       8.620   8.369  18.614  0.00  0.00    +0.000 C 
ATOM      9  C   UNL     1       8.401   9.618  18.180  0.00  0.00    +0.000 C 
BRANCH   9  10
ATOM     10  C   UNL     1       9.280  10.701  18.675  0.00  0.00    +0.000 C 
ATOM     11  O   UNL     1       9.775  11.521  17.913  0.00  0.00    +0.000 OA
ATOM     12  N   UNL     1       9.440  10.656  20.053  0.00  0.00    +0.000 N 
ATOM     13  H   UNL     1       8.990   9.933  20.604  0.00  0.00    +0.000 HD
BRANCH  12  14
ATOM     14  N   UNL     1      10.193  11.620  20.764  0.00  0.00    +0.000 NA
ATOM     15  C   UNL     1      11.497  11.862  20.139  0.00  0.00    +0.000 C 
ATOM     16  C   UNL     1       9.449  12.870  20.941  0.00  0.00    +0.000 C 
ENDBRANCH  12  14
ENDBRANCH   9  10
ENDBRANCH   5   8
ENDBRANCH   1   2
BRANCH   1  17
ATOM     17  N   UNL     1       4.671   3.341  17.635  0.00  0.00    +0.000 NA
ATOM     18  H   UNL     1       3.855   2.964  17.153  0.00  0.00    +0.000 HD
BRANCH  17  19
ATOM     19  C   UNL     1       4.216   4.387  18.557  0.00  0.00    +0.000 C 
BRANCH  19  20
ATOM     20  C   UNL     1       3.095   5.310  18.041  0.00  0.00    +0.000 C 
BRANCH  20  30
ATOM     21  C   UNL     1       2.053   4.439  20.998  0.00  0.00    +0.000 C 
ATOM     22  C   UNL     1       2.063   5.782  20.359  0.00  0.00    +0.000 A 
ATOM     23  N   UNL     1       1.613   6.893  21.028  0.00  0.00    +0.000 N 
ATOM     24  C   UNL     1       1.583   7.984  20.195  0.00  0.00    +0.000 A 
ATOM     25  C   UNL     1       1.160   9.297  20.448  0.00  0.00    +0.000 A 
ATOM     26  C   UNL     1       1.167  10.201  19.382  0.00  0.00    +0.000 A 
ATOM     27  C   UNL     1       1.581   9.801  18.116  0.00  0.00    +0.000 A 
ATOM     28  C   UNL     1       2.036   8.493  17.890  0.00  0.00    +0.000 A 
ATOM     29  C   UNL     1       2.054   7.561  18.951  0.00  0.00    +0.000 A 
ATOM     30  C   UNL     1       2.455   6.185  19.088  0.00  0.00    +0.000 A 
ATOM     31  H   UNL     1       1.285   6.904  21.983  0.00  0.00    +0.000 HD
ENDBRANCH  20  30
ENDBRANCH  19  20
ENDBRANCH  17  19
ENDBRANCH   1  17
TORSDOF 8
ENDMDL
MODEL 8
REMARK VINA RESULT:      -7.8      5.301      7.510
REMARK  Name = 
REMARK  11 active torsions:
REMARK  status: ('A' for Active; 'I' for Inactive)
REMARK    1  A    between atoms: C_1  and  C_2
REMARK    2  A    between atoms: C_10  and  C_11
REMARK    3  A    between atoms: C_11  and  C_12
REMARK    4  A    between atoms: C_12  and  N_13
REMARK    5  A    between atoms: N_13  and  C_14
REMARK    6  A    between atoms: C_14  and  C_15
REMARK    7  A    between atoms: C_18  and  C_19
REMARK    8  A    between atoms: C_20  and  C_21
REMARK    9  A    between atoms: N_23  and  N_24
REMARK   10  A    between atoms: N_24  and  C_25
REMARK   11  A    between atoms: N_24  and  C_26
REMARK                            x       y       z     vdW  Elec       q    Type
REMARK                         _______ _______ _______ _____ _____    ______ ____
ROOT
ATOM      1  C   UNL     1       1.564   6.211  20.680  0.00  0.00    +0.000 C 
ENDROOT
BRANCH   1   2
ATOM      2  C   UNL     1       2.421   5.834  19.499  0.00  0.00    +0.000 A 
ATOM      3  C   UNL     1       2.536   4.494  19.102  0.00  0.00    +0.000 A 
ATOM      4  C   UNL     1       3.359   4.143  18.035  0.00  0.00    +0.000 A 
ATOM      5  C   UNL     1       4.057   5.129  17.328  0.00  0.00    +0.000 A 
ATOM      6  C   UNL     1       3.936   6.467  17.721  0.00  0.00    +0.000 A 
ATOM      7  C   UNL     1       3.116   6.819  18.790  0.00  0.00    +0.000 A 
BRANCH   5   8
ATOM      8  C   UNL     1       4.926   4.714  16.227  0.00  0.00    +0.000 C 
ATOM      9  C   UNL     1       5.917   5.473  15.738  0.00  0.00    +0.000 C 
BRANCH   9  10
ATOM     10  C   UNL     1       6.694   4.962  14.587  0.00  0.00    +0.000 C 
ATOM     11  O   UNL     1       7.871   5.259  14.429  0.00  0.00    +0.000 OA
ATOM     12  N   UNL     1       5.937   4.135  13.771  0.00  0.00    +0.000 N 
ATOM     13  H   UNL     1       4.962   3.947  13.983  0.00  0.00    +0.000 HD
BRANCH  12  14
ATOM     14  N   UNL     1       6.475   3.482  12.637  0.00  0.00    +0.000 NA
ATOM     15  C   UNL     1       5.449   2.737  11.901  0.00  0.00    +0.000 C 
ATOM     16  C   UNL     1       7.186   4.415  11.758  0.00  0.00    +0.000 C 
ENDBRANCH  12  14
ENDBRANCH   9  10
ENDBRANCH   5   8
ENDBRANCH   1   2
BRANCH   1  17
ATOM     17  N   UNL     1       1.872   7.565  21.134  0.00  0.00    +0.000 NA
ATOM     18  H   UNL     1       2.188   7.530  22.104  0.00  0.00    +0.000 HD
BRANCH  17  19
ATOM     19  C   UNL     1       0.716   8.463  21.061  0.00  0.00    +0.000 C 
BRANCH  19  20
ATOM     20  C   UNL     1       0.911   9.762  20.255  0.00  0.00    +0.000 C 
BRANCH  20  30
ATOM     21  C   UNL     1      -0.640  11.699  22.359  0.00  0.00    +0.000 C 
ATOM     22  C   UNL     1      -0.951  11.415  20.932  0.00  0.00    +0.000 A 
ATOM     23  N   UNL     1      -2.009  12.019  20.299  0.00  0.00    +0.000 N 
ATOM     24  C   UNL     1      -2.185  11.498  19.041  0.00  0.00    +0.000 A 
ATOM     25  C   UNL     1      -3.159  11.791  18.075  0.00  0.00    +0.000 A 
ATOM     26  C   UNL     1      -3.149  11.046  16.893  0.00  0.00    +0.000 A 
ATOM     27  C   UNL     1      -2.202  10.047  16.692  0.00  0.00    +0.000 A 
ATOM     28  C   UNL     1      -1.213   9.792  17.654  0.00  0.00    +0.000 A 
ATOM     29  C   UNL     1      -1.188  10.539  18.853  0.00  0.00    +0.000 A 
ATOM     30  C   UNL     1      -0.342  10.563  20.018  0.00  0.00    +0.000 A 
ATOM     31  H   UNL     1      -2.620  12.707  20.714  0.00  0.00    +0.000 HD
ENDBRANCH  20  30
ENDBRANCH  19  20
ENDBRANCH  17  19
ENDBRANCH   1  17
TORSDOF 8
ENDMDL
MODEL 9
REMARK VINA RESULT:      -7.7      1.045      1.582
REMARK  Name = 
REMARK  11 active torsions:
REMARK  status: ('A' for Active; 'I' for Inactive)
REMARK    1  A    between atoms: C_1  and  C_2
REMARK    2  A    between atoms: C_10  and  C_11
REMARK    3  A    between atoms: C_11  and  C_12
REMARK    4  A    between atoms: C_12  and  N_13
REMARK    5  A    between atoms: N_13  and  C_14
REMARK    6  A    between atoms: C_14  and  C_15
REMARK    7  A    between atoms: C_18  and  C_19
REMARK    8  A    between atoms: C_20  and  C_21
REMARK    9  A    between atoms: N_23  and  N_24
REMARK   10  A    between atoms: N_24  and  C_25
REMARK   11  A    between atoms: N_24  and  C_26
REMARK                            x       y       z     vdW  Elec       q    Type
REMARK                         _______ _______ _______ _____ _____    ______ ____
ROOT
ATOM      1  C   UNL     1       6.397   4.005  17.218  0.00  0.00    +0.000 C 
ENDROOT
BRANCH   1   2
ATOM      2  C   UNL     1       6.958   5.348  17.605  0.00  0.00    +0.000 A 
ATOM      3  C   UNL     1       6.651   6.492  16.853  0.00  0.00    +0.000 A 
ATOM      4  C   UNL     1       7.202   7.726  17.188  0.00  0.00    +0.000 A 
ATOM      5  C   UNL     1       8.045   7.844  18.299  0.00  0.00    +0.000 A 
ATOM      6  C   UNL     1       8.346   6.703  19.053  0.00  0.00    +0.000 A 
ATOM      7  C   UNL     1       7.799   5.468  18.716  0.00  0.00    +0.000 A 
BRANCH   5   8
ATOM      8  C   UNL     1       8.618   9.154  18.604  0.00  0.00    +0.000 C 
ATOM      9  C   UNL     1       8.518  10.215  17.789  0.00  0.00    +0.000 C 
BRANCH   9  10
ATOM     10  C   UNL     1       9.186  11.474  18.187  0.00  0.00    +0.000 C 
ATOM     11  O   UNL     1       8.991  12.519  17.580  0.00  0.00    +0.000 OA
ATOM     12  N   UNL     1      10.006  11.304  19.293  0.00  0.00    +0.000 N 
ATOM     13  H   UNL     1      10.106  10.394  19.730  0.00  0.00    +0.000 HD
BRANCH  12  14
ATOM     14  N   UNL     1      10.709  12.376  19.892  0.00  0.00    +0.000 NA
ATOM     15  C   UNL     1      10.240  12.638  21.256  0.00  0.00    +0.000 C 
ATOM     16  C   UNL     1      12.158  12.161  19.861  0.00  0.00    +0.000 C 
ENDBRANCH  12  14
ENDBRANCH   9  10
ENDBRANCH   5   8
ENDBRANCH   1   2
BRANCH   1  17
ATOM     17  N   UNL     1       5.329   4.152  16.232  0.00  0.00    +0.000 NA
ATOM     18  H   UNL     1       5.606   4.846  15.537  0.00  0.00    +0.000 HD
BRANCH  17  19
ATOM     19  C   UNL     1       4.062   4.582  16.829  0.00  0.00    +0.000 C 
BRANCH  19  20
ATOM     20  C   UNL     1       3.661   3.893  18.148  0.00  0.00    +0.000 C 
BRANCH  20  30
ATOM     21  C   UNL     1       2.478   3.061  21.062  0.00  0.00    +0.000 C 
ATOM     22  C   UNL     1       2.516   4.395  20.406  0.00  0.00    +0.000 A 
ATOM     23  N   UNL     1       2.031   5.514  21.036  0.00  0.00    +0.000 N 
ATOM     24  C   UNL     1       2.040   6.593  20.187  0.00  0.00    +0.000 A 
ATOM     25  C   UNL     1       1.602   7.908  20.401  0.00  0.00    +0.000 A 
ATOM     26  C   UNL     1       1.659   8.797  19.324  0.00  0.00    +0.000 A 
ATOM     27  C   UNL     1       2.135   8.381  18.085  0.00  0.00    +0.000 A 
ATOM     28  C   UNL     1       2.603   7.071  17.900  0.00  0.00    +0.000 A 
ATOM     29  C   UNL     1       2.572   6.154  18.974  0.00  0.00    +0.000 A 
ATOM     30  C   UNL     1       2.969   4.781  19.149  0.00  0.00    +0.000 A 
ATOM     31  H   UNL     1       1.658   5.538  21.974  0.00  0.00    +0.000 HD
ENDBRANCH  20  30
ENDBRANCH  19  20
ENDBRANCH  17  19
ENDBRANCH   1  17
TORSDOF 8
ENDMDL
