MODEL 1
REMARK VINA RESULT:      -9.0      0.000      0.000
REMARK  Name = 
REMARK  5 active torsions:
REMARK  status: ('A' for Active; 'I' for Inactive)
REMARK    1  A    between atoms: C_2  and  C_3
REMARK    2  A    between atoms: C_6  and  N_7
REMARK    3  A    between atoms: C_16  and  O_17
REMARK    4  A    between atoms: C_16  and  C_18
REMARK    5  A    between atoms: C_18  and  C_19
REMARK                            x       y       z     vdW  Elec       q    Type
REMARK                         _______ _______ _______ _____ _____    ______ ____
ROOT
ATOM      1  N   UNL     1       8.908   8.700  19.024  0.00  0.00    +0.000 N 
ATOM      2  C   UNL     1       8.052   8.252  18.062  0.00  0.00    +0.000 C 
ATOM      3  O   UNL     1       7.590   9.029  17.219  0.00  0.00    +0.000 OA
ATOM      4  N   UNL     1       7.713   6.915  17.950  0.00  0.00    +0.000 N 
ATOM      5  C   UNL     1       6.829   6.666  16.834  0.00  0.00    +0.000 C 
ATOM      6  C   UNL     1       7.341   5.288  16.385  0.00  0.00    +0.000 C 
ATOM      7  C   UNL     1       7.769   4.561  17.661  0.00  0.00    +0.000 C 
ATOM      8  C   UNL     1       7.622   5.651  18.745  0.00  0.00    +0.000 C 
ATOM      9  C   UNL     1       6.169   5.387  19.319  0.00  0.00    +0.000 C 
ATOM     10  C   UNL     1       4.972   5.786  18.384  0.00  0.00    +0.000 C 
ATOM     11  C   UNL     1       5.445   6.926  17.476  0.00  0.00    +0.000 C 
ATOM     12  H   UNL     1       9.473   8.011  19.496  0.00  0.00    +0.000 HD
ENDROOT
BRANCH   1  16
ATOM     13  C   UNL     1      10.112  12.835  19.441  0.00  0.00    +0.000 A 
ATOM     14  C   UNL     1      10.107  12.237  18.188  0.00  0.00    +0.000 A 
ATOM     15  C   UNL     1       9.697  10.897  18.037  0.00  0.00    +0.000 A 
ATOM     16  C   UNL     1       9.303  10.094  19.130  0.00  0.00    +0.000 A 
ATOM     17  C   UNL     1       9.313  10.708  20.382  0.00  0.00    +0.000 A 
ATOM     18  C   UNL     1       9.717  12.057  20.540  0.00  0.00    +0.000 A 
BRANCH  13  20
ATOM     19  N   UNL     1      10.860  15.320  19.724  0.00  0.00    +0.000 NA
ATOM     20  C   UNL     1      10.521  14.208  19.601  0.00  0.00    +0.000 C 
ENDBRANCH  13  20
ENDBRANCH   1  16
BRANCH  10  21
ATOM     21  O   UNL     1       3.950   6.313  19.251  0.00  0.00    +0.000 OA
ATOM     22  H   UNL     1       3.667   7.179  18.907  0.00  0.00    +0.000 HD
ENDBRANCH  10  21
BRANCH  10  23
ATOM     23  C   UNL     1       4.264   4.811  17.397  0.00  0.00    +0.000 C 
BRANCH  23  24
ATOM     24  C   UNL     1       3.137   3.908  17.804  0.00  0.00    +0.000 A 
ATOM     25  C   UNL     1       1.812   4.292  17.561  0.00  0.00    +0.000 A 
ATOM     26  C   UNL     1       0.761   3.545  18.094  0.00  0.00    +0.000 A 
ATOM     27  C   UNL     1       1.032   2.422  18.870  0.00  0.00    +0.000 A 
ATOM     28  F   UNL     1       0.015   1.720  19.384  0.00  0.00    +0.000 F 
ATOM     29  C   UNL     1       2.334   2.030  19.133  0.00  0.00    +0.000 A 
ATOM     30  C   UNL     1       3.375   2.778  18.602  0.00  0.00    +0.000 A 
ATOM     31  F   UNL     1       4.634   2.429  18.903  0.00  0.00    +0.000 F 
ENDBRANCH  23  24
ENDBRANCH  10  23
TORSDOF 5
ENDMDL
MODEL 2
REMARK VINA RESULT:      -8.7      0.896      1.536
REMARK  Name = 
REMARK  5 active torsions:
REMARK  status: ('A' for Active; 'I' for Inactive)
REMARK    1  A    between atoms: C_2  and  C_3
REMARK    2  A    between atoms: C_6  and  N_7
REMARK    3  A    between atoms: C_16  and  O_17
REMARK    4  A    between atoms: C_16  and  C_18
REMARK    5  A    between atoms: C_18  and  C_19
REMARK                            x       y       z     vdW  Elec       q    Type
REMARK                         _______ _______ _______ _____ _____    ______ ____
ROOT
ATOM      1  N   UNL     1       8.985   8.761  19.021  0.00  0.00    +0.000 N 
ATOM      2  C   UNL     1       8.065   8.324  18.114  0.00  0.00    +0.000 C 
ATOM      3  O   UNL     1       7.527   9.116  17.333  0.00  0.00    +0.000 OA
ATOM      4  N   UNL     1       7.741   6.985  17.988  0.00  0.00    +0.000 N 
ATOM      5  C   UNL     1       6.779   6.751  16.936  0.00  0.00    +0.000 C 
ATOM      6  C   UNL     1       7.278   5.397  16.407  0.00  0.00    +0.000 C 
ATOM      7  C   UNL     1       7.816   4.641  17.625  0.00  0.00    +0.000 C 
ATOM      8  C   UNL     1       7.734   5.696  18.748  0.00  0.00    +0.000 C 
ATOM      9  C   UNL     1       6.334   5.388  19.424  0.00  0.00    +0.000 C 
ATOM     10  C   UNL     1       5.062   5.791  18.595  0.00  0.00    +0.000 C 
ATOM     11  C   UNL     1       5.444   6.965  17.689  0.00  0.00    +0.000 C 
ATOM     12  H   UNL     1       9.596   8.069  19.427  0.00  0.00    +0.000 HD
ENDROOT
BRANCH   1  16
ATOM     13  C   UNL     1      10.088  12.938  19.267  0.00  0.00    +0.000 A 
ATOM     14  C   UNL     1       9.651  12.268  20.402  0.00  0.00    +0.000 A 
ATOM     15  C   UNL     1       9.309  10.901  20.339  0.00  0.00    +0.000 A 
ATOM     16  C   UNL     1       9.362  10.158  19.139  0.00  0.00    +0.000 A 
ATOM     17  C   UNL     1       9.802  10.845  18.007  0.00  0.00    +0.000 A 
ATOM     18  C   UNL     1      10.154  12.216  18.066  0.00  0.00    +0.000 A 
BRANCH  13  20
ATOM     19  N   UNL     1      10.741  15.463  19.365  0.00  0.00    +0.000 NA
ATOM     20  C   UNL     1      10.448  14.332  19.327  0.00  0.00    +0.000 C 
ENDBRANCH  13  20
ENDBRANCH   1  16
BRANCH  10  21
ATOM     21  O   UNL     1       4.101   6.272  19.554  0.00  0.00    +0.000 OA
ATOM     22  H   UNL     1       3.271   6.475  19.086  0.00  0.00    +0.000 HD
ENDBRANCH  10  21
BRANCH  10  23
ATOM     23  C   UNL     1       4.297   4.831  17.637  0.00  0.00    +0.000 C 
BRANCH  23  24
ATOM     24  C   UNL     1       3.196   3.919  18.095  0.00  0.00    +0.000 A 
ATOM     25  C   UNL     1       3.484   2.591  18.432  0.00  0.00    +0.000 A 
ATOM     26  C   UNL     1       2.445   1.696  18.684  0.00  0.00    +0.000 A 
ATOM     27  C   UNL     1       1.124   2.123  18.595  0.00  0.00    +0.000 A 
ATOM     28  F   UNL     1       0.135   1.251  18.830  0.00  0.00    +0.000 F 
ATOM     29  C   UNL     1       0.815   3.429  18.252  0.00  0.00    +0.000 A 
ATOM     30  C   UNL     1       1.853   4.315  18.000  0.00  0.00    +0.000 A 
ATOM     31  F   UNL     1       1.551   5.563  17.614  0.00  0.00    +0.000 F 
ENDBRANCH  23  24
ENDBRANCH  10  23
TORSDOF 5
ENDMDL
MODEL 3
REMARK VINA RESULT:      -7.7      1.381      1.687
REMARK  Name = 
REMARK  5 active torsions:
REMARK  status: ('A' for Active; 'I' for Inactive)
REMARK    1  A    between atoms: C_2  and  C_3
REMARK    2  A    between atoms: C_6  and  N_7
REMARK    3  A    between atoms: C_16  and  O_17
REMARK    4  A    between atoms: C_16  and  C_18
REMARK    5  A    between atoms: C_18  and  C_19
REMARK                            x       y       z     vdW  Elec       q    Type
REMARK                         _______ _______ _______ _____ _____    ______ ____
ROOT
ATOM      1  N   UNL     1       8.396   8.481  17.468  0.00  0.00    +0.000 N 
ATOM      2  C   UNL     1       7.125   8.003  17.332  0.00  0.00    +0.000 C 
ATOM      3  O   UNL     1       6.166   8.623  17.806  0.00  0.00    +0.000 OA
ATOM      4  N   UNL     1       6.849   6.852  16.617  0.00  0.00    +0.000 N 
ATOM      5  C   UNL     1       5.434   6.561  16.570  0.00  0.00    +0.000 C 
ATOM      6  C   UNL     1       5.324   5.976  15.153  0.00  0.00    +0.000 C 
ATOM      7  C   UNL     1       6.633   5.222  14.906  0.00  0.00    +0.000 C 
ATOM      8  C   UNL     1       7.473   5.574  16.151  0.00  0.00    +0.000 C 
ATOM      9  C   UNL     1       7.189   4.358  17.127  0.00  0.00    +0.000 C 
ATOM     10  C   UNL     1       5.761   4.314  17.780  0.00  0.00    +0.000 C 
ATOM     11  C   UNL     1       5.244   5.753  17.876  0.00  0.00    +0.000 C 
ATOM     12  H   UNL     1       9.094   8.116  16.839  0.00  0.00    +0.000 HD
ENDROOT
BRANCH   1  16
ATOM     13  C   UNL     1       9.354  12.083  19.664  0.00  0.00    +0.000 A 
ATOM     14  C   UNL     1       8.941  12.166  18.342  0.00  0.00    +0.000 A 
ATOM     15  C   UNL     1       8.606  11.001  17.621  0.00  0.00    +0.000 A 
ATOM     16  C   UNL     1       8.696   9.708  18.183  0.00  0.00    +0.000 A 
ATOM     17  C   UNL     1       9.112   9.640  19.512  0.00  0.00    +0.000 A 
ATOM     18  C   UNL     1       9.443  10.808  20.243  0.00  0.00    +0.000 A 
BRANCH  13  20
ATOM     19  N   UNL     1       9.971  14.231  21.013  0.00  0.00    +0.000 NA
ATOM     20  C   UNL     1       9.689  13.271  20.409  0.00  0.00    +0.000 C 
ENDBRANCH  13  20
ENDBRANCH   1  16
BRANCH  10  21
ATOM     21  O   UNL     1       5.955   3.829  19.122  0.00  0.00    +0.000 OA
ATOM     22  H   UNL     1       5.909   4.585  19.735  0.00  0.00    +0.000 HD
ENDBRANCH  10  21
BRANCH  10  23
ATOM     23  C   UNL     1       4.549   3.534  17.192  0.00  0.00    +0.000 C 
BRANCH  23  24
ATOM     24  C   UNL     1       3.267   3.321  17.943  0.00  0.00    +0.000 A 
ATOM     25  C   UNL     1       2.458   4.416  18.268  0.00  0.00    +0.000 A 
ATOM     26  C   UNL     1       1.363   4.246  19.116  0.00  0.00    +0.000 A 
ATOM     27  C   UNL     1       1.081   2.989  19.641  0.00  0.00    +0.000 A 
ATOM     28  F   UNL     1       0.034   2.840  20.461  0.00  0.00    +0.000 F 
ATOM     29  C   UNL     1       1.875   1.892  19.342  0.00  0.00    +0.000 A 
ATOM     30  C   UNL     1       2.963   2.069  18.500  0.00  0.00    +0.000 A 
ATOM     31  F   UNL     1       3.762   1.019  18.257  0.00  0.00    +0.000 F 
ENDBRANCH  23  24
ENDBRANCH  10  23
TORSDOF 5
ENDMDL
MODEL 4
REMARK VINA RESULT:      -7.7      5.665      7.550
REMARK  Name = 
REMARK  5 active torsions:
REMARK  status: ('A' for Active; 'I' for Inactive)
REMARK    1  A    between atoms: C_2  and  C_3
REMARK    2  A    between atoms: C_6  and  N_7
REMARK    3  A    between atoms: C_16  and  O_17
REMARK    4  A    between atoms: C_16  and  C_18
REMARK    5  A    between atoms: C_18  and  C_19
REMARK                            x       y       z     vdW  Elec       q    Type
REMARK                         _______ _______ _______ _____ _____    ______ ____
ROOT
ATOM      1  N   UNL     1       0.266   7.413  21.374  0.00  0.00    +0.000 N 
ATOM      2  C   UNL     1       1.398   7.057  20.701  0.00  0.00    +0.000 C 
ATOM      3  O   UNL     1       2.132   7.919  20.205  0.00  0.00    +0.000 OA
ATOM      4  N   UNL     1       1.803   5.738  20.597  0.00  0.00    +0.000 N 
ATOM      5  C   UNL     1       3.050   5.603  19.880  0.00  0.00    +0.000 C 
ATOM      6  C   UNL     1       3.682   4.433  20.651  0.00  0.00    +0.000 C 
ATOM      7  C   UNL     1       2.521   3.526  21.064  0.00  0.00    +0.000 C 
ATOM      8  C   UNL     1       1.280   4.337  20.636  0.00  0.00    +0.000 C 
ATOM      9  C   UNL     1       0.958   3.760  19.195  0.00  0.00    +0.000 C 
ATOM     10  C   UNL     1       1.948   4.172  18.048  0.00  0.00    +0.000 C 
ATOM     11  C   UNL     1       2.556   5.529  18.416  0.00  0.00    +0.000 C 
ATOM     12  H   UNL     1      -0.136   6.727  21.994  0.00  0.00    +0.000 HD
ENDROOT
BRANCH   1  16
ATOM     13  C   UNL     1      -0.934  11.534  21.919  0.00  0.00    +0.000 A 
ATOM     14  C   UNL     1      -0.719  11.037  20.641  0.00  0.00    +0.000 A 
ATOM     15  C   UNL     1      -0.348   9.690  20.449  0.00  0.00    +0.000 A 
ATOM     16  C   UNL     1      -0.150   8.795  21.524  0.00  0.00    +0.000 A 
ATOM     17  C   UNL     1      -0.370   9.309  22.802  0.00  0.00    +0.000 A 
ATOM     18  C   UNL     1      -0.750  10.659  23.001  0.00  0.00    +0.000 A 
BRANCH  13  20
ATOM     19  N   UNL     1      -1.643  14.020  22.277  0.00  0.00    +0.000 NA
ATOM     20  C   UNL     1      -1.322  12.907  22.121  0.00  0.00    +0.000 C 
ENDBRANCH  13  20
ENDBRANCH   1  16
BRANCH  10  21
ATOM     21  O   UNL     1       1.135   4.360  16.873  0.00  0.00    +0.000 OA
ATOM     22  H   UNL     1       0.957   3.489  16.477  0.00  0.00    +0.000 HD
ENDBRANCH  10  21
BRANCH  10  23
ATOM     23  C   UNL     1       3.183   3.332  17.609  0.00  0.00    +0.000 C 
BRANCH  23  24
ATOM     24  C   UNL     1       4.354   3.916  16.875  0.00  0.00    +0.000 A 
ATOM     25  C   UNL     1       4.283   4.113  15.490  0.00  0.00    +0.000 A 
ATOM     26  C   UNL     1       5.425   4.486  14.780  0.00  0.00    +0.000 A 
ATOM     27  C   UNL     1       6.633   4.656  15.449  0.00  0.00    +0.000 A 
ATOM     28  F   UNL     1       7.724   5.004  14.755  0.00  0.00    +0.000 F 
ATOM     29  C   UNL     1       6.730   4.456  16.816  0.00  0.00    +0.000 A 
ATOM     30  C   UNL     1       5.591   4.083  17.517  0.00  0.00    +0.000 A 
ATOM     31  F   UNL     1       5.699   3.835  18.830  0.00  0.00    +0.000 F 
ENDBRANCH  23  24
ENDBRANCH  10  23
TORSDOF 5
ENDMDL
MODEL 5
REMARK VINA RESULT:      -7.1      7.475      9.744
REMARK  Name = 
REMARK  5 active torsions:
REMARK  status: ('A' for Active; 'I' for Inactive)
REMARK    1  A    between atoms: C_2  and  C_3
REMARK    2  A    between atoms: C_6  and  N_7
REMARK    3  A    between atoms: C_16  and  O_17
REMARK    4  A    between atoms: C_16  and  C_18
REMARK    5  A    between atoms: C_18  and  C_19
REMARK                            x       y       z     vdW  Elec       q    Type
REMARK                         _______ _______ _______ _____ _____    ______ ____
ROOT
ATOM      1  N   UNL     1       2.542   7.592  18.897  0.00  0.00    +0.000 N 
ATOM      2  C   UNL     1       1.781   8.627  18.437  0.00  0.00    +0.000 C 
ATOM      3  O   UNL     1       1.787   8.929  17.239  0.00  0.00    +0.000 OA
ATOM      4  N   UNL     1       0.933   9.337  19.269  0.00  0.00    +0.000 N 
ATOM      5  C   UNL     1       0.195  10.356  18.559  0.00  0.00    +0.000 C 
ATOM      6  C   UNL     1      -1.144  10.296  19.311  0.00  0.00    +0.000 C 
ATOM      7  C   UNL     1      -0.796   9.971  20.766  0.00  0.00    +0.000 C 
ATOM      8  C   UNL     1       0.723   9.703  20.705  0.00  0.00    +0.000 C 
ATOM      9  C   UNL     1       1.347  11.111  21.078  0.00  0.00    +0.000 C 
ATOM     10  C   UNL     1       1.236  12.230  19.982  0.00  0.00    +0.000 C 
ATOM     11  C   UNL     1       1.185  11.544  18.613  0.00  0.00    +0.000 C 
ATOM     12  H   UNL     1       2.296   7.202  19.793  0.00  0.00    +0.000 HD
ENDROOT
BRANCH   1  16
ATOM     13  C   UNL     1       5.041   5.205  16.294  0.00  0.00    +0.000 A 
ATOM     14  C   UNL     1       5.289   6.563  16.439  0.00  0.00    +0.000 A 
ATOM     15  C   UNL     1       4.495   7.348  17.300  0.00  0.00    +0.000 A 
ATOM     16  C   UNL     1       3.407   6.815  18.028  0.00  0.00    +0.000 A 
ATOM     17  C   UNL     1       3.170   5.449  17.872  0.00  0.00    +0.000 A 
ATOM     18  C   UNL     1       3.969   4.654  17.014  0.00  0.00    +0.000 A 
BRANCH  13  20
ATOM     19  N   UNL     1       6.518   3.748  14.710  0.00  0.00    +0.000 NA
ATOM     20  C   UNL     1       5.855   4.395  15.422  0.00  0.00    +0.000 C 
ENDBRANCH  13  20
ENDBRANCH   1  16
BRANCH  10  21
ATOM     21  O   UNL     1       2.465  12.977  20.052  0.00  0.00    +0.000 OA
ATOM     22  H   UNL     1       2.423  13.706  19.407  0.00  0.00    +0.000 HD
ENDBRANCH  10  21
BRANCH  10  23
ATOM     23  C   UNL     1       0.082  13.273  19.905  0.00  0.00    +0.000 C 
BRANCH  23  24
ATOM     24  C   UNL     1      -0.817  13.591  21.064  0.00  0.00    +0.000 A 
ATOM     25  C   UNL     1      -0.263  13.906  22.311  0.00  0.00    +0.000 A 
ATOM     26  C   UNL     1      -1.088  14.025  23.430  0.00  0.00    +0.000 A 
ATOM     27  C   UNL     1      -2.459  13.826  23.305  0.00  0.00    +0.000 A 
ATOM     28  F   UNL     1      -3.239  13.933  24.388  0.00  0.00    +0.000 F 
ATOM     29  C   UNL     1      -3.028  13.502  22.084  0.00  0.00    +0.000 A 
ATOM     30  C   UNL     1      -2.202  13.383  20.975  0.00  0.00    +0.000 A 
ATOM     31  F   UNL     1      -2.747  13.015  19.806  0.00  0.00    +0.000 F 
ENDBRANCH  23  24
ENDBRANCH  10  23
TORSDOF 5
ENDMDL
MODEL 6
REMARK VINA RESULT:      -7.1      7.775     10.332
REMARK  Name = 
REMARK  5 active torsions:
REMARK  status: ('A' for Active; 'I' for Inactive)
REMARK    1  A    between atoms: C_2  and  C_3
REMARK    2  A    between atoms: C_6  and  N_7
REMARK    3  A    between atoms: C_16  and  O_17
REMARK    4  A    between atoms: C_16  and  C_18
REMARK    5  A    between atoms: C_18  and  C_19
REMARK                            x       y       z     vdW  Elec       q    Type
REMARK                         _______ _______ _______ _____ _____    ______ ____
ROOT
ATOM      1  N   UNL     1       2.212   8.224  18.525  0.00  0.00    +0.000 N 
ATOM      2  C   UNL     1       1.601   8.883  19.551  0.00  0.00    +0.000 C 
ATOM      3  O   UNL     1       1.285   8.283  20.584  0.00  0.00    +0.000 OA
ATOM      4  N   UNL     1       1.364  10.246  19.507  0.00  0.00    +0.000 N 
ATOM      5  C   UNL     1       0.747  10.734  20.719  0.00  0.00    +0.000 C 
ATOM      6  C   UNL     1       1.415  12.115  20.826  0.00  0.00    +0.000 C 
ATOM      7  C   UNL     1       1.605  12.603  19.388  0.00  0.00    +0.000 C 
ATOM      8  C   UNL     1       1.177  11.380  18.549  0.00  0.00    +0.000 C 
ATOM      9  C   UNL     1      -0.348  11.679  18.238  0.00  0.00    +0.000 C 
ATOM     10  C   UNL     1      -1.343  11.527  19.444  0.00  0.00    +0.000 C 
ATOM     11  C   UNL     1      -0.752  10.500  20.415  0.00  0.00    +0.000 C 
ATOM     12  H   UNL     1       2.702   8.784  17.845  0.00  0.00    +0.000 HD
ENDROOT
BRANCH   1  16
ATOM     13  C   UNL     1       3.026   3.975  18.574  0.00  0.00    +0.000 A 
ATOM     14  C   UNL     1       3.826   4.843  19.305  0.00  0.00    +0.000 A 
ATOM     15  C   UNL     1       3.558   6.228  19.314  0.00  0.00    +0.000 A 
ATOM     16  C   UNL     1       2.501   6.802  18.573  0.00  0.00    +0.000 A 
ATOM     17  C   UNL     1       1.707   5.918  17.844  0.00  0.00    +0.000 A 
ATOM     18  C   UNL     1       1.967   4.525  17.837  0.00  0.00    +0.000 A 
BRANCH  13  20
ATOM     19  N   UNL     1       3.511   1.410  18.571  0.00  0.00    +0.000 NA
ATOM     20  C   UNL     1       3.289   2.558  18.569  0.00  0.00    +0.000 C 
ENDBRANCH  13  20
ENDBRANCH   1  16
BRANCH  10  21
ATOM     21  O   UNL     1      -2.550  10.966  18.894  0.00  0.00    +0.000 OA
ATOM     22  H   UNL     1      -2.393  10.753  17.957  0.00  0.00    +0.000 HD
ENDBRANCH  10  21
BRANCH  10  23
ATOM     23  C   UNL     1      -1.776  12.696  20.377  0.00  0.00    +0.000 C 
BRANCH  23  24
ATOM     24  C   UNL     1      -2.816  12.549  21.449  0.00  0.00    +0.000 A 
ATOM     25  C   UNL     1      -4.162  12.797  21.156  0.00  0.00    +0.000 A 
ATOM     26  C   UNL     1      -5.104  12.836  22.184  0.00  0.00    +0.000 A 
ATOM     27  C   UNL     1      -4.703  12.633  23.501  0.00  0.00    +0.000 A 
ATOM     28  F   UNL     1      -5.614  12.683  24.480  0.00  0.00    +0.000 F 
ATOM     29  C   UNL     1      -3.374  12.396  23.816  0.00  0.00    +0.000 A 
ATOM     30  C   UNL     1      -2.442  12.361  22.789  0.00  0.00    +0.000 A 
ATOM     31  F   UNL     1      -1.150  12.188  23.103  0.00  0.00    +0.000 F 
ENDBRANCH  23  24
ENDBRANCH  10  23
TORSDOF 5
ENDMDL
MODEL 7
REMARK VINA RESULT:      -7.1      4.962      7.255
REMARK  Name = 
REMARK  5 active torsions:
REMARK  status: ('A' for Active; 'I' for Inactive)
REMARK    1  A    between atoms: C_2  and  C_3
REMARK    2  A    between atoms: C_6  and  N_7
REMARK    3  A    between atoms: C_16  and  O_17
REMARK    4  A    between atoms: C_16  and  C_18
REMARK    5  A    between atoms: C_18  and  C_19
REMARK                            x       y       z     vdW  Elec       q    Type
REMARK                         _______ _______ _______ _____ _____    ______ ____
ROOT
ATOM      1  N   UNL     1       2.378   7.558  19.622  0.00  0.00    +0.000 N 
ATOM      2  C   UNL     1       3.263   7.357  18.603  0.00  0.00    +0.000 C 
ATOM      3  O   UNL     1       3.223   8.060  17.588  0.00  0.00    +0.000 OA
ATOM      4  N   UNL     1       4.268   6.410  18.684  0.00  0.00    +0.000 N 
ATOM      5  C   UNL     1       5.110   6.403  17.510  0.00  0.00    +0.000 C 
ATOM      6  C   UNL     1       6.470   6.088  18.153  0.00  0.00    +0.000 C 
ATOM      7  C   UNL     1       6.175   5.152  19.327  0.00  0.00    +0.000 C 
ATOM      8  C   UNL     1       4.632   5.131  19.371  0.00  0.00    +0.000 C 
ATOM      9  C   UNL     1       4.270   3.848  18.514  0.00  0.00    +0.000 C 
ATOM     10  C   UNL     1       4.484   3.968  16.963  0.00  0.00    +0.000 C 
ATOM     11  C   UNL     1       4.331   5.443  16.580  0.00  0.00    +0.000 C 
ATOM     12  H   UNL     1       2.619   7.175  20.523  0.00  0.00    +0.000 HD
ENDROOT
BRANCH   1  16
ATOM     13  C   UNL     1      -0.693  10.605  19.559  0.00  0.00    +0.000 A 
ATOM     14  C   UNL     1      -0.027  10.267  18.389  0.00  0.00    +0.000 A 
ATOM     15  C   UNL     1       0.961   9.261  18.392  0.00  0.00    +0.000 A 
ATOM     16  C   UNL     1       1.342   8.573  19.566  0.00  0.00    +0.000 A 
ATOM     17  C   UNL     1       0.665   8.924  20.734  0.00  0.00    +0.000 A 
ATOM     18  C   UNL     1      -0.334   9.929  20.735  0.00  0.00    +0.000 A 
BRANCH  13  20
ATOM     19  N   UNL     1      -2.539  12.451  19.572  0.00  0.00    +0.000 NA
ATOM     20  C   UNL     1      -1.711  11.626  19.561  0.00  0.00    +0.000 C 
ENDBRANCH  13  20
ENDBRANCH   1  16
BRANCH  10  21
ATOM     21  O   UNL     1       3.398   3.242  16.356  0.00  0.00    +0.000 OA
ATOM     22  H   UNL     1       2.627   3.834  16.293  0.00  0.00    +0.000 HD
ENDBRANCH  10  21
BRANCH  10  23
ATOM     23  C   UNL     1       5.783   3.536  16.220  0.00  0.00    +0.000 C 
BRANCH  23  24
ATOM     24  C   UNL     1       6.112   3.971  14.822  0.00  0.00    +0.000 A 
ATOM     25  C   UNL     1       5.529   3.315  13.731  0.00  0.00    +0.000 A 
ATOM     26  C   UNL     1       5.965   3.594  12.435  0.00  0.00    +0.000 A 
ATOM     27  C   UNL     1       6.982   4.522  12.231  0.00  0.00    +0.000 A 
ATOM     28  F   UNL     1       7.399   4.774  10.984  0.00  0.00    +0.000 F 
ATOM     29  C   UNL     1       7.581   5.176  13.296  0.00  0.00    +0.000 A 
ATOM     30  C   UNL     1       7.144   4.891  14.582  0.00  0.00    +0.000 A 
ATOM     31  F   UNL     1       7.763   5.484  15.614  0.00  0.00    +0.000 F 
ENDBRANCH  23  24
ENDBRANCH  10  23
TORSDOF 5
ENDMDL
MODEL 8
REMARK VINA RESULT:      -6.8      7.898     10.138
REMARK  Name = 
REMARK  5 active torsions:
REMARK  status: ('A' for Active; 'I' for Inactive)
REMARK    1  A    between atoms: C_2  and  C_3
REMARK    2  A    between atoms: C_6  and  N_7
REMARK    3  A    between atoms: C_16  and  O_17
REMARK    4  A    between atoms: C_16  and  C_18
REMARK    5  A    between atoms: C_18  and  C_19
REMARK                            x       y       z     vdW  Elec       q    Type
REMARK                         _______ _______ _______ _____ _____    ______ ____
ROOT
ATOM      1  N   UNL     1       2.230   7.807  19.011  0.00  0.00    +0.000 N 
ATOM      2  C   UNL     1       1.631   8.921  18.499  0.00  0.00    +0.000 C 
ATOM      3  O   UNL     1       1.783   9.227  17.311  0.00  0.00    +0.000 OA
ATOM      4  N   UNL     1       0.790   9.714  19.259  0.00  0.00    +0.000 N 
ATOM      5  C   UNL     1       0.236  10.811  18.499  0.00  0.00    +0.000 C 
ATOM      6  C   UNL     1      -1.166  10.893  19.122  0.00  0.00    +0.000 C 
ATOM      7  C   UNL     1      -0.994  10.524  20.597  0.00  0.00    +0.000 C 
ATOM      8  C   UNL     1       0.486  10.093  20.674  0.00  0.00    +0.000 C 
ATOM      9  C   UNL     1       1.220  11.423  21.127  0.00  0.00    +0.000 C 
ATOM     10  C   UNL     1       1.334  12.554  20.042  0.00  0.00    +0.000 C 
ATOM     11  C   UNL     1       1.339  11.885  18.664  0.00  0.00    +0.000 C 
ATOM     12  H   UNL     1       1.859   7.441  19.874  0.00  0.00    +0.000 HD
ENDROOT
BRANCH   1  16
ATOM     13  C   UNL     1       4.695   5.168  16.628  0.00  0.00    +0.000 A 
ATOM     14  C   UNL     1       4.982   6.525  16.682  0.00  0.00    +0.000 A 
ATOM     15  C   UNL     1       4.199   7.392  17.472  0.00  0.00    +0.000 A 
ATOM     16  C   UNL     1       3.084   6.945  18.215  0.00  0.00    +0.000 A 
ATOM     17  C   UNL     1       2.807   5.579  18.150  0.00  0.00    +0.000 A 
ATOM     18  C   UNL     1       3.595   4.702  17.364  0.00  0.00    +0.000 A 
BRANCH  13  20
ATOM     19  N   UNL     1       6.145   3.557  15.174  0.00  0.00    +0.000 NA
ATOM     20  C   UNL     1       5.497   4.276  15.830  0.00  0.00    +0.000 C 
ENDBRANCH  13  20
ENDBRANCH   1  16
BRANCH  10  21
ATOM     21  O   UNL     1       2.625  13.162  20.239  0.00  0.00    +0.000 OA
ATOM     22  H   UNL     1       3.260  12.743  19.630  0.00  0.00    +0.000 HD
ENDBRANCH  10  21
BRANCH  10  23
ATOM     23  C   UNL     1       0.312  13.716  19.874  0.00  0.00    +0.000 C 
BRANCH  23  24
ATOM     24  C   UNL     1      -0.636  14.139  20.958  0.00  0.00    +0.000 A 
ATOM     25  C   UNL     1      -2.017  14.121  20.725  0.00  0.00    +0.000 A 
ATOM     26  C   UNL     1      -2.889  14.679  21.660  0.00  0.00    +0.000 A 
ATOM     27  C   UNL     1      -2.384  15.258  22.821  0.00  0.00    +0.000 A 
ATOM     28  F   UNL     1      -3.230  15.799  23.706  0.00  0.00    +0.000 F 
ATOM     29  C   UNL     1      -1.021  15.297  23.067  0.00  0.00    +0.000 A 
ATOM     30  C   UNL     1      -0.159  14.742  22.132  0.00  0.00    +0.000 A 
ATOM     31  F   UNL     1       1.162  14.831  22.346  0.00  0.00    +0.000 F 
ENDBRANCH  23  24
ENDBRANCH  10  23
TORSDOF 5
ENDMDL
MODEL 9
REMARK VINA RESULT:      -6.8      8.404     10.843
REMARK  Name = 
REMARK  5 active torsions:
REMARK  status: ('A' for Active; 'I' for Inactive)
REMARK    1  A    between atoms: C_2  and  C_3
REMARK    2  A    between atoms: C_6  and  N_7
REMARK    3  A    between atoms: C_16  and  O_17
REMARK    4  A    between atoms: C_16  and  C_18
REMARK    5  A    between atoms: C_18  and  C_19
REMARK                            x       y       z     vdW  Elec       q    Type
REMARK                         _______ _______ _______ _____ _____    ______ ____
ROOT
ATOM      1  N   UNL     1       1.874   8.903  19.650  0.00  0.00    +0.000 N 
ATOM      2  C   UNL     1       0.757   9.414  20.242  0.00  0.00    +0.000 C 
ATOM      3  O   UNL     1      -0.122   8.664  20.682  0.00  0.00    +0.000 OA
ATOM      4  N   UNL     1       0.585  10.774  20.429  0.00  0.00    +0.000 N 
ATOM      5  C   UNL     1      -0.649  11.082  21.115  0.00  0.00    +0.000 C 
ATOM      6  C   UNL     1      -0.198  12.286  21.958  0.00  0.00    +0.000 C 
ATOM      7  C   UNL     1       0.829  13.035  21.106  0.00  0.00    +0.000 C 
ATOM      8  C   UNL     1       1.015  12.102  19.890  0.00  0.00    +0.000 C 
ATOM      9  C   UNL     1      -0.001  12.695  18.829  0.00  0.00    +0.000 C 
ATOM     10  C   UNL     1      -1.525  12.446  19.117  0.00  0.00    +0.000 C 
ATOM     11  C   UNL     1      -1.645  11.155  19.934  0.00  0.00    +0.000 C 
ATOM     12  H   UNL     1       2.673   9.512  19.571  0.00  0.00    +0.000 HD
ENDROOT
BRANCH   1  16
ATOM     13  C   UNL     1       2.565   4.672  19.065  0.00  0.00    +0.000 A 
ATOM     14  C   UNL     1       2.198   5.148  20.316  0.00  0.00    +0.000 A 
ATOM     15  C   UNL     1       1.950   6.522  20.515  0.00  0.00    +0.000 A 
ATOM     16  C   UNL     1       2.084   7.476  19.481  0.00  0.00    +0.000 A 
ATOM     17  C   UNL     1       2.454   6.983  18.230  0.00  0.00    +0.000 A 
ATOM     18  C   UNL     1       2.697   5.602  18.023  0.00  0.00    +0.000 A 
BRANCH  13  20
ATOM     19  N   UNL     1       3.000   2.127  18.681  0.00  0.00    +0.000 NA
ATOM     20  C   UNL     1       2.811   3.268  18.853  0.00  0.00    +0.000 C 
ENDBRANCH  13  20
ENDBRANCH   1  16
BRANCH  10  21
ATOM     21  O   UNL     1      -2.137  12.211  17.834  0.00  0.00    +0.000 OA
ATOM     22  H   UNL     1      -2.874  12.839  17.723  0.00  0.00    +0.000 HD
ENDBRANCH  10  21
BRANCH  10  23
ATOM     23  C   UNL     1      -2.449  13.441  19.879  0.00  0.00    +0.000 C 
BRANCH  23  24
ATOM     24  C   UNL     1      -3.744  13.033  20.520  0.00  0.00    +0.000 A 
ATOM     25  C   UNL     1      -4.830  12.655  19.721  0.00  0.00    +0.000 A 
ATOM     26  C   UNL     1      -6.082  12.449  20.299  0.00  0.00    +0.000 A 
ATOM     27  C   UNL     1      -6.251  12.625  21.670  0.00  0.00    +0.000 A 
ATOM     28  F   UNL     1      -7.460  12.434  22.212  0.00  0.00    +0.000 F 
ATOM     29  C   UNL     1      -5.193  13.010  22.478  0.00  0.00    +0.000 A 
ATOM     30  C   UNL     1      -3.951  13.216  21.896  0.00  0.00    +0.000 A 
ATOM     31  F   UNL     1      -2.943  13.642  22.671  0.00  0.00    +0.000 F 
ENDBRANCH  23  24
ENDBRANCH  10  23
TORSDOF 5
ENDMDL
