MODEL 1
REMARK VINA RESULT:      -7.4      0.000      0.000
REMARK  Name = 
REMARK  12 active torsions:
REMARK  status: ('A' for Active; 'I' for Inactive)
REMARK    1  A    between atoms: C_1  and  O_2
REMARK    2  A    between atoms: O_2  and  C_3
REMARK    3  A    between atoms: C_6  and  C_7
REMARK    4  A    between atoms: C_7  and  O_9
REMARK    5  A    between atoms: O_9  and  C_10
REMARK    6  A    between atoms: C_10  and  C_11
REMARK    7  A    between atoms: N_13  and  C_14
REMARK    8  A    between atoms: C_19  and  C_20
REMARK    9  A    between atoms: C_25  and  O_26
REMARK   10  A    between atoms: O_26  and  C_27
REMARK   11  A    between atoms: C_28  and  O_29
REMARK   12  A    between atoms: O_29  and  C_30
REMARK                            x       y       z     vdW  Elec       q    Type
REMARK                         _______ _______ _______ _____ _____    ______ ____
ROOT
ATOM      1  C   UNL     1       2.588   3.238  21.186  0.00  0.00    +0.000 C 
ENDROOT
BRANCH   1   2
ATOM      2  C   UNL     1       1.864   4.422  20.533  0.00  0.00    +0.000 C 
ATOM      3  O   UNL     1       0.707   4.296  20.136  0.00  0.00    +0.000 OA
ATOM      4  N   UNL     1       2.639   5.569  20.426  0.00  0.00    +0.000 N 
ATOM      5  H   UNL     1       3.644   5.437  20.556  0.00  0.00    +0.000 HD
BRANCH   4   6
ATOM      6  C   UNL     1       2.207   6.826  19.945  0.00  0.00    +0.000 A 
ATOM      7  C   UNL     1       2.427   7.255  18.639  0.00  0.00    +0.000 A 
ATOM      8  C   UNL     1       2.000   8.516  18.222  0.00  0.00    +0.000 A 
ATOM      9  C   UNL     1       1.336   9.375  19.105  0.00  0.00    +0.000 A 
ATOM     10 CL   UNL     1       0.877  10.913  18.471  0.00  0.00    +0.000 Cl
ATOM     11  C   UNL     1       1.083   8.970  20.421  0.00  0.00    +0.000 A 
ATOM     12  C   UNL     1       1.517   7.676  20.819  0.00  0.00    +0.000 A 
BRANCH  11  13
ATOM     13  C   UNL     1       0.398   9.826  21.452  0.00  0.00    +0.000 C 
ATOM     14  F   UNL     1       0.329   9.328  22.713  0.00  0.00    +0.000 F 
ATOM     15  F   UNL     1       1.000  11.043  21.578  0.00  0.00    +0.000 F 
ATOM     16  F   UNL     1      -0.894  10.095  21.102  0.00  0.00    +0.000 F 
ENDBRANCH  11  13
ENDBRANCH   4   6
ENDBRANCH   1   2
BRANCH   1  17
ATOM     17  O   UNL     1       3.984   3.199  20.899  0.00  0.00    +0.000 OA
BRANCH  17  18
ATOM     18  C   UNL     1       4.303   2.734  19.664  0.00  0.00    +0.000 C 
ATOM     19  O   UNL     1       4.121   1.586  19.288  0.00  0.00    +0.000 OA
BRANCH  18  23
ATOM     20  C   UNL     1       6.517   5.658  17.452  0.00  0.00    +0.000 A 
ATOM     21  C   UNL     1       6.682   5.522  18.837  0.00  0.00    +0.000 A 
ATOM     22  C   UNL     1       5.932   4.597  19.549  0.00  0.00    +0.000 A 
ATOM     23  C   UNL     1       4.976   3.815  18.889  0.00  0.00    +0.000 A 
ATOM     24  C   UNL     1       4.720   4.004  17.511  0.00  0.00    +0.000 A 
ATOM     25  C   UNL     1       5.490   4.951  16.785  0.00  0.00    +0.000 A 
BRANCH  20  27
ATOM     26  C   UNL     1       7.729   7.693  17.461  0.00  0.00    +0.000 C 
ATOM     27  O   UNL     1       7.334   6.512  16.757  0.00  0.00    +0.000 OA
ENDBRANCH  20  27
BRANCH  24  28
ATOM     28  O   UNL     1       3.691   3.230  17.031  0.00  0.00    +0.000 OA
ATOM     29  C   UNL     1       2.351   3.693  17.074  0.00  0.00    +0.000 C 
ENDBRANCH  24  28
BRANCH  25  30
ATOM     30  O   UNL     1       5.153   5.109  15.467  0.00  0.00    +0.000 OA
ATOM     31  C   UNL     1       5.778   4.357  14.440  0.00  0.00    +0.000 C 
ENDBRANCH  25  30
ENDBRANCH  18  23
ENDBRANCH  17  18
ENDBRANCH   1  17
TORSDOF 9
ENDMDL
MODEL 2
REMARK VINA RESULT:      -7.1      5.297      9.198
REMARK  Name = 
REMARK  12 active torsions:
REMARK  status: ('A' for Active; 'I' for Inactive)
REMARK    1  A    between atoms: C_1  and  O_2
REMARK    2  A    between atoms: O_2  and  C_3
REMARK    3  A    between atoms: C_6  and  C_7
REMARK    4  A    between atoms: C_7  and  O_9
REMARK    5  A    between atoms: O_9  and  C_10
REMARK    6  A    between atoms: C_10  and  C_11
REMARK    7  A    between atoms: N_13  and  C_14
REMARK    8  A    between atoms: C_19  and  C_20
REMARK    9  A    between atoms: C_25  and  O_26
REMARK   10  A    between atoms: O_26  and  C_27
REMARK   11  A    between atoms: C_28  and  O_29
REMARK   12  A    between atoms: O_29  and  C_30
REMARK                            x       y       z     vdW  Elec       q    Type
REMARK                         _______ _______ _______ _____ _____    ______ ____
ROOT
ATOM      1  C   UNL     1      -0.667  10.061  22.828  0.00  0.00    +0.000 C 
ENDROOT
BRANCH   1   2
ATOM      2  C   UNL     1       0.571   9.594  22.052  0.00  0.00    +0.000 C 
ATOM      3  O   UNL     1       1.683   9.645  22.574  0.00  0.00    +0.000 OA
ATOM      4  N   UNL     1       0.301   9.165  20.759  0.00  0.00    +0.000 N 
ATOM      5  H   UNL     1      -0.615   9.428  20.389  0.00  0.00    +0.000 HD
BRANCH   4   6
ATOM      6  C   UNL     1       1.230   8.608  19.852  0.00  0.00    +0.000 A 
ATOM      7  C   UNL     1       1.597   9.232  18.663  0.00  0.00    +0.000 A 
ATOM      8  C   UNL     1       2.503   8.627  17.792  0.00  0.00    +0.000 A 
ATOM      9  C   UNL     1       3.068   7.383  18.095  0.00  0.00    +0.000 A 
ATOM     10 CL   UNL     1       4.159   6.736  16.926  0.00  0.00    +0.000 Cl
ATOM     11  C   UNL     1       2.734   6.735  19.291  0.00  0.00    +0.000 A 
ATOM     12  C   UNL     1       1.819   7.377  20.169  0.00  0.00    +0.000 A 
BRANCH  11  13
ATOM     13  C   UNL     1       3.269   5.389  19.699  0.00  0.00    +0.000 C 
ATOM     14  F   UNL     1       3.042   4.356  18.847  0.00  0.00    +0.000 F 
ATOM     15  F   UNL     1       4.620   5.415  19.881  0.00  0.00    +0.000 F 
ATOM     16  F   UNL     1       2.750   4.985  20.896  0.00  0.00    +0.000 F 
ENDBRANCH  11  13
ENDBRANCH   4   6
ENDBRANCH   1   2
BRANCH   1  17
ATOM     17  O   UNL     1      -0.597  11.423  23.241  0.00  0.00    +0.000 OA
BRANCH  17  18
ATOM     18  C   UNL     1      -0.599  12.329  22.231  0.00  0.00    +0.000 C 
ATOM     19  O   UNL     1       0.334  13.071  21.963  0.00  0.00    +0.000 OA
BRANCH  18  23
ATOM     20  C   UNL     1      -4.440  12.662  20.365  0.00  0.00    +0.000 A 
ATOM     21  C   UNL     1      -4.293  12.822  21.750  0.00  0.00    +0.000 A 
ATOM     22  C   UNL     1      -3.050  12.675  22.348  0.00  0.00    +0.000 A 
ATOM     23  C   UNL     1      -1.936  12.330  21.572  0.00  0.00    +0.000 A 
ATOM     24  C   UNL     1      -2.078  12.064  20.190  0.00  0.00    +0.000 A 
ATOM     25  C   UNL     1      -3.352  12.216  19.581  0.00  0.00    +0.000 A 
BRANCH  20  27
ATOM     26  C   UNL     1      -6.635  11.872  19.956  0.00  0.00    +0.000 C 
ATOM     27  O   UNL     1      -5.660  12.904  19.786  0.00  0.00    +0.000 OA
ENDBRANCH  20  27
BRANCH  24  28
ATOM     28  O   UNL     1      -0.916  11.647  19.587  0.00  0.00    +0.000 OA
ATOM     29  C   UNL     1      -0.258  12.464  18.632  0.00  0.00    +0.000 C 
ENDBRANCH  24  28
BRANCH  25  30
ATOM     30  O   UNL     1      -3.418  11.899  18.250  0.00  0.00    +0.000 OA
ATOM     31  C   UNL     1      -3.785  10.602  17.809  0.00  0.00    +0.000 C 
ENDBRANCH  25  30
ENDBRANCH  18  23
ENDBRANCH  17  18
ENDBRANCH   1  17
TORSDOF 9
ENDMDL
MODEL 3
REMARK VINA RESULT:      -6.9      5.269      9.203
REMARK  Name = 
REMARK  12 active torsions:
REMARK  status: ('A' for Active; 'I' for Inactive)
REMARK    1  A    between atoms: C_1  and  O_2
REMARK    2  A    between atoms: O_2  and  C_3
REMARK    3  A    between atoms: C_6  and  C_7
REMARK    4  A    between atoms: C_7  and  O_9
REMARK    5  A    between atoms: O_9  and  C_10
REMARK    6  A    between atoms: C_10  and  C_11
REMARK    7  A    between atoms: N_13  and  C_14
REMARK    8  A    between atoms: C_19  and  C_20
REMARK    9  A    between atoms: C_25  and  O_26
REMARK   10  A    between atoms: O_26  and  C_27
REMARK   11  A    between atoms: C_28  and  O_29
REMARK   12  A    between atoms: O_29  and  C_30
REMARK                            x       y       z     vdW  Elec       q    Type
REMARK                         _______ _______ _______ _____ _____    ______ ____
ROOT
ATOM      1  C   UNL     1       1.402   9.370  18.554  0.00  0.00    +0.000 C 
ENDROOT
BRANCH   1   2
ATOM      2  C   UNL     1       1.938   8.137  19.292  0.00  0.00    +0.000 C 
ATOM      3  O   UNL     1       1.829   8.052  20.513  0.00  0.00    +0.000 OA
ATOM      4  N   UNL     1       2.550   7.204  18.465  0.00  0.00    +0.000 N 
ATOM      5  H   UNL     1       2.793   7.536  17.529  0.00  0.00    +0.000 HD
BRANCH   4   6
ATOM      6  C   UNL     1       3.056   5.945  18.857  0.00  0.00    +0.000 A 
ATOM      7  C   UNL     1       4.413   5.631  18.832  0.00  0.00    +0.000 A 
ATOM      8  C   UNL     1       4.858   4.364  19.209  0.00  0.00    +0.000 A 
ATOM      9  C   UNL     1       3.953   3.382  19.627  0.00  0.00    +0.000 A 
ATOM     10 CL   UNL     1       4.629   1.851  20.047  0.00  0.00    +0.000 Cl
ATOM     11  C   UNL     1       2.583   3.668  19.681  0.00  0.00    +0.000 A 
ATOM     12  C   UNL     1       2.155   4.970  19.304  0.00  0.00    +0.000 A 
BRANCH  11  13
ATOM     13  C   UNL     1       1.529   2.677  20.093  0.00  0.00    +0.000 C 
ATOM     14  F   UNL     1       1.606   2.192  21.360  0.00  0.00    +0.000 F 
ATOM     15  F   UNL     1       0.273   3.199  19.984  0.00  0.00    +0.000 F 
ATOM     16  F   UNL     1       1.534   1.575  19.288  0.00  0.00    +0.000 F 
ENDBRANCH  11  13
ENDBRANCH   4   6
ENDBRANCH   1   2
BRANCH   1  17
ATOM     17  O   UNL     1       0.250   9.942  19.169  0.00  0.00    +0.000 OA
BRANCH  17  18
ATOM     18  C   UNL     1       0.438  11.175  19.703  0.00  0.00    +0.000 C 
ATOM     19  O   UNL     1       1.390  11.900  19.455  0.00  0.00    +0.000 OA
BRANCH  18  23
ATOM     20  C   UNL     1      -2.467  12.203  22.678  0.00  0.00    +0.000 A 
ATOM     21  C   UNL     1      -1.363  11.399  22.993  0.00  0.00    +0.000 A 
ATOM     22  C   UNL     1      -0.448  11.042  22.013  0.00  0.00    +0.000 A 
ATOM     23  C   UNL     1      -0.644  11.455  20.690  0.00  0.00    +0.000 A 
ATOM     24  C   UNL     1      -1.802  12.181  20.327  0.00  0.00    +0.000 A 
ATOM     25  C   UNL     1      -2.737  12.546  21.333  0.00  0.00    +0.000 A 
BRANCH  20  27
ATOM     26  C   UNL     1      -3.053  13.931  24.187  0.00  0.00    +0.000 C 
ATOM     27  O   UNL     1      -3.305  12.618  23.681  0.00  0.00    +0.000 OA
ENDBRANCH  20  27
BRANCH  24  28
ATOM     28  O   UNL     1      -1.897  12.431  18.980  0.00  0.00    +0.000 OA
ATOM     29  C   UNL     1      -2.685  11.603  18.140  0.00  0.00    +0.000 C 
ENDBRANCH  24  28
BRANCH  25  30
ATOM     30  O   UNL     1      -3.854  13.208  20.898  0.00  0.00    +0.000 OA
ATOM     31  C   UNL     1      -5.108  12.557  20.775  0.00  0.00    +0.000 C 
ENDBRANCH  25  30
ENDBRANCH  18  23
ENDBRANCH  17  18
ENDBRANCH   1  17
TORSDOF 9
ENDMDL
MODEL 4
REMARK VINA RESULT:      -6.9      5.220      8.886
REMARK  Name = 
REMARK  12 active torsions:
REMARK  status: ('A' for Active; 'I' for Inactive)
REMARK    1  A    between atoms: C_1  and  O_2
REMARK    2  A    between atoms: O_2  and  C_3
REMARK    3  A    between atoms: C_6  and  C_7
REMARK    4  A    between atoms: C_7  and  O_9
REMARK    5  A    between atoms: O_9  and  C_10
REMARK    6  A    between atoms: C_10  and  C_11
REMARK    7  A    between atoms: N_13  and  C_14
REMARK    8  A    between atoms: C_19  and  C_20
REMARK    9  A    between atoms: C_25  and  O_26
REMARK   10  A    between atoms: O_26  and  C_27
REMARK   11  A    between atoms: C_28  and  O_29
REMARK   12  A    between atoms: O_29  and  C_30
REMARK                            x       y       z     vdW  Elec       q    Type
REMARK                         _______ _______ _______ _____ _____    ______ ____
ROOT
ATOM      1  C   UNL     1       1.467   7.502  21.177  0.00  0.00    +0.000 C 
ENDROOT
BRANCH   1   2
ATOM      2  C   UNL     1       2.165   7.150  19.857  0.00  0.00    +0.000 C 
ATOM      3  O   UNL     1       2.121   7.930  18.908  0.00  0.00    +0.000 OA
ATOM      4  N   UNL     1       2.785   5.908  19.859  0.00  0.00    +0.000 N 
ATOM      5  H   UNL     1       2.511   5.278  20.616  0.00  0.00    +0.000 HD
BRANCH   4   6
ATOM      6  C   UNL     1       3.568   5.364  18.816  0.00  0.00    +0.000 A 
ATOM      7  C   UNL     1       3.040   4.555  17.813  0.00  0.00    +0.000 A 
ATOM      8  C   UNL     1       3.863   4.024  16.819  0.00  0.00    +0.000 A 
ATOM      9  C   UNL     1       5.235   4.299  16.803  0.00  0.00    +0.000 A 
ATOM     10 CL   UNL     1       6.143   3.567  15.531  0.00  0.00    +0.000 Cl
ATOM     11  C   UNL     1       5.797   5.123  17.786  0.00  0.00    +0.000 A 
ATOM     12  C   UNL     1       4.936   5.661  18.781  0.00  0.00    +0.000 A 
BRANCH  11  13
ATOM     13  C   UNL     1       7.261   5.460  17.869  0.00  0.00    +0.000 C 
ATOM     14  F   UNL     1       7.684   6.077  19.003  0.00  0.00    +0.000 F 
ATOM     15  F   UNL     1       8.043   4.349  17.750  0.00  0.00    +0.000 F 
ATOM     16  F   UNL     1       7.645   6.284  16.850  0.00  0.00    +0.000 F 
ENDBRANCH  11  13
ENDBRANCH   4   6
ENDBRANCH   1   2
BRANCH   1  17
ATOM     17  O   UNL     1       0.683   8.691  21.104  0.00  0.00    +0.000 OA
BRANCH  17  18
ATOM     18  C   UNL     1       0.928   9.600  22.082  0.00  0.00    +0.000 C 
ATOM     19  O   UNL     1       1.844   9.521  22.887  0.00  0.00    +0.000 OA
BRANCH  18  23
ATOM     20  C   UNL     1      -1.988  12.728  22.302  0.00  0.00    +0.000 A 
ATOM     21  C   UNL     1      -2.015  11.651  23.198  0.00  0.00    +0.000 A 
ATOM     22  C   UNL     1      -1.087  10.624  23.094  0.00  0.00    +0.000 A 
ATOM     23  C   UNL     1      -0.137  10.641  22.066  0.00  0.00    +0.000 A 
ATOM     24  C   UNL     1      -0.154  11.664  21.089  0.00  0.00    +0.000 A 
ATOM     25  C   UNL     1      -1.104  12.714  21.199  0.00  0.00    +0.000 A 
BRANCH  20  27
ATOM     26  C   UNL     1      -2.812  14.394  23.771  0.00  0.00    +0.000 C 
ATOM     27  O   UNL     1      -2.856  13.775  22.483  0.00  0.00    +0.000 OA
ENDBRANCH  20  27
BRANCH  24  28
ATOM     28  O   UNL     1       0.778  11.492  20.095  0.00  0.00    +0.000 OA
ATOM     29  C   UNL     1       0.382  11.133  18.781  0.00  0.00    +0.000 C 
ENDBRANCH  24  28
BRANCH  25  30
ATOM     30  O   UNL     1      -1.086  13.643  20.192  0.00  0.00    +0.000 OA
ATOM     31  C   UNL     1      -0.313  14.828  20.282  0.00  0.00    +0.000 C 
ENDBRANCH  25  30
ENDBRANCH  18  23
ENDBRANCH  17  18
ENDBRANCH   1  17
TORSDOF 9
ENDMDL
MODEL 5
REMARK VINA RESULT:      -6.9      5.970     10.314
REMARK  Name = 
REMARK  12 active torsions:
REMARK  status: ('A' for Active; 'I' for Inactive)
REMARK    1  A    between atoms: C_1  and  O_2
REMARK    2  A    between atoms: O_2  and  C_3
REMARK    3  A    between atoms: C_6  and  C_7
REMARK    4  A    between atoms: C_7  and  O_9
REMARK    5  A    between atoms: O_9  and  C_10
REMARK    6  A    between atoms: C_10  and  C_11
REMARK    7  A    between atoms: N_13  and  C_14
REMARK    8  A    between atoms: C_19  and  C_20
REMARK    9  A    between atoms: C_25  and  O_26
REMARK   10  A    between atoms: O_26  and  C_27
REMARK   11  A    between atoms: C_28  and  O_29
REMARK   12  A    between atoms: O_29  and  C_30
REMARK                            x       y       z     vdW  Elec       q    Type
REMARK                         _______ _______ _______ _____ _____    ______ ____
ROOT
ATOM      1  C   UNL     1       0.232   9.942  22.699  0.00  0.00    +0.000 C 
ENDROOT
BRANCH   1   2
ATOM      2  C   UNL     1       0.336   9.022  21.476  0.00  0.00    +0.000 C 
ATOM      3  O   UNL     1      -0.432   9.168  20.526  0.00  0.00    +0.000 OA
ATOM      4  N   UNL     1       1.321   8.049  21.581  0.00  0.00    +0.000 N 
ATOM      5  H   UNL     1       1.689   7.893  22.522  0.00  0.00    +0.000 HD
BRANCH   4   6
ATOM      6  C   UNL     1       1.692   7.125  20.578  0.00  0.00    +0.000 A 
ATOM      7  C   UNL     1       2.286   7.506  19.378  0.00  0.00    +0.000 A 
ATOM      8  C   UNL     1       2.612   6.555  18.411  0.00  0.00    +0.000 A 
ATOM      9  C   UNL     1       2.357   5.196  18.629  0.00  0.00    +0.000 A 
ATOM     10 CL   UNL     1       2.791   4.124  17.348  0.00  0.00    +0.000 Cl
ATOM     11  C   UNL     1       1.777   4.776  19.832  0.00  0.00    +0.000 A 
ATOM     12  C   UNL     1       1.465   5.762  20.806  0.00  0.00    +0.000 A 
BRANCH  11  13
ATOM     13  C   UNL     1       1.443   3.344  20.154  0.00  0.00    +0.000 C 
ATOM     14  F   UNL     1       2.461   2.448  20.086  0.00  0.00    +0.000 F 
ATOM     15  F   UNL     1       0.932   3.214  21.411  0.00  0.00    +0.000 F 
ATOM     16  F   UNL     1       0.480   2.854  19.319  0.00  0.00    +0.000 F 
ENDBRANCH  11  13
ENDBRANCH   4   6
ENDBRANCH   1   2
BRANCH   1  17
ATOM     17  O   UNL     1      -1.089  10.423  22.935  0.00  0.00    +0.000 OA
BRANCH  17  18
ATOM     18  C   UNL     1      -1.218  11.774  22.916  0.00  0.00    +0.000 C 
ATOM     19  O   UNL     1      -0.283  12.560  22.928  0.00  0.00    +0.000 OA
BRANCH  18  23
ATOM     20  C   UNL     1      -5.284  13.090  23.200  0.00  0.00    +0.000 A 
ATOM     21  C   UNL     1      -4.591  12.636  24.330  0.00  0.00    +0.000 A 
ATOM     22  C   UNL     1      -3.286  12.177  24.220  0.00  0.00    +0.000 A 
ATOM     23  C   UNL     1      -2.664  12.132  22.966  0.00  0.00    +0.000 A 
ATOM     24  C   UNL     1      -3.376  12.488  21.797  0.00  0.00    +0.000 A 
ATOM     25  C   UNL     1      -4.712  12.958  21.914  0.00  0.00    +0.000 A 
BRANCH  20  27
ATOM     26  C   UNL     1      -7.610  12.678  23.380  0.00  0.00    +0.000 C 
ATOM     27  O   UNL     1      -6.539  13.624  23.349  0.00  0.00    +0.000 OA
ENDBRANCH  20  27
BRANCH  24  28
ATOM     28  O   UNL     1      -2.663  12.302  20.638  0.00  0.00    +0.000 OA
ATOM     29  C   UNL     1      -1.976  13.380  20.024  0.00  0.00    +0.000 C 
ENDBRANCH  24  28
BRANCH  25  30
ATOM     30  O   UNL     1      -5.350  13.242  20.735  0.00  0.00    +0.000 OA
ATOM     31  C   UNL     1      -5.478  14.570  20.256  0.00  0.00    +0.000 C 
ENDBRANCH  25  30
ENDBRANCH  18  23
ENDBRANCH  17  18
ENDBRANCH   1  17
TORSDOF 9
ENDMDL
MODEL 6
REMARK VINA RESULT:      -6.9      4.896      7.378
REMARK  Name = 
REMARK  12 active torsions:
REMARK  status: ('A' for Active; 'I' for Inactive)
REMARK    1  A    between atoms: C_1  and  O_2
REMARK    2  A    between atoms: O_2  and  C_3
REMARK    3  A    between atoms: C_6  and  C_7
REMARK    4  A    between atoms: C_7  and  O_9
REMARK    5  A    between atoms: O_9  and  C_10
REMARK    6  A    between atoms: C_10  and  C_11
REMARK    7  A    between atoms: N_13  and  C_14
REMARK    8  A    between atoms: C_19  and  C_20
REMARK    9  A    between atoms: C_25  and  O_26
REMARK   10  A    between atoms: O_26  and  C_27
REMARK   11  A    between atoms: C_28  and  O_29
REMARK   12  A    between atoms: O_29  and  C_30
REMARK                            x       y       z     vdW  Elec       q    Type
REMARK                         _______ _______ _______ _____ _____    ______ ____
ROOT
ATOM      1  C   UNL     1       8.241   8.220  18.102  0.00  0.00    +0.000 C 
ENDROOT
BRANCH   1   2
ATOM      2  C   UNL     1       8.480   9.703  18.411  0.00  0.00    +0.000 C 
ATOM      3  O   UNL     1       8.020  10.571  17.671  0.00  0.00    +0.000 OA
ATOM      4  N   UNL     1       9.256   9.929  19.541  0.00  0.00    +0.000 N 
ATOM      5  H   UNL     1       9.774   9.119  19.889  0.00  0.00    +0.000 HD
BRANCH   4   6
ATOM      6  C   UNL     1       9.564  11.187  20.105  0.00  0.00    +0.000 A 
ATOM      7  C   UNL     1      10.619  11.980  19.661  0.00  0.00    +0.000 A 
ATOM      8  C   UNL     1      10.894  13.204  20.269  0.00  0.00    +0.000 A 
ATOM      9  C   UNL     1      10.113  13.667  21.334  0.00  0.00    +0.000 A 
ATOM     10 CL   UNL     1      10.570  15.188  22.010  0.00  0.00    +0.000 Cl
ATOM     11  C   UNL     1       9.034  12.903  21.795  0.00  0.00    +0.000 A 
ATOM     12  C   UNL     1       8.766  11.665  21.152  0.00  0.00    +0.000 A 
BRANCH  11  13
ATOM     13  C   UNL     1       8.149  13.300  22.946  0.00  0.00    +0.000 C 
ATOM     14  F   UNL     1       7.348  14.381  22.758  0.00  0.00    +0.000 F 
ATOM     15  F   UNL     1       7.310  12.289  23.311  0.00  0.00    +0.000 F 
ATOM     16  F   UNL     1       8.878  13.587  24.064  0.00  0.00    +0.000 F 
ENDBRANCH  11  13
ENDBRANCH   4   6
ENDBRANCH   1   2
BRANCH   1  17
ATOM     17  O   UNL     1       7.371   8.005  16.993  0.00  0.00    +0.000 OA
BRANCH  17  18
ATOM     18  C   UNL     1       7.092   6.704  16.727  0.00  0.00    +0.000 C 
ATOM     19  O   UNL     1       7.693   6.019  15.914  0.00  0.00    +0.000 OA
BRANCH  18  23
ATOM     20  C   UNL     1       3.541   5.367  18.713  0.00  0.00    +0.000 A 
ATOM     21  C   UNL     1       3.519   6.486  17.869  0.00  0.00    +0.000 A 
ATOM     22  C   UNL     1       4.683   6.931  17.260  0.00  0.00    +0.000 A 
ATOM     23  C   UNL     1       5.899   6.285  17.516  0.00  0.00    +0.000 A 
ATOM     24  C   UNL     1       5.964   5.218  18.442  0.00  0.00    +0.000 A 
ATOM     25  C   UNL     1       4.770   4.763  19.063  0.00  0.00    +0.000 A 
BRANCH  20  27
ATOM     26  C   UNL     1       1.928   5.508  20.442  0.00  0.00    +0.000 C 
ATOM     27  O   UNL     1       2.362   4.890  19.228  0.00  0.00    +0.000 OA
ENDBRANCH  20  27
BRANCH  24  28
ATOM     28  O   UNL     1       7.238   4.751  18.656  0.00  0.00    +0.000 OA
ATOM     29  C   UNL     1       8.031   5.258  19.717  0.00  0.00    +0.000 C 
ENDBRANCH  24  28
BRANCH  25  30
ATOM     30  O   UNL     1       4.921   3.757  19.980  0.00  0.00    +0.000 OA
ATOM     31  C   UNL     1       4.425   2.450  19.743  0.00  0.00    +0.000 C 
ENDBRANCH  25  30
ENDBRANCH  18  23
ENDBRANCH  17  18
ENDBRANCH   1  17
TORSDOF 9
ENDMDL
MODEL 7
REMARK VINA RESULT:      -6.9      4.744      7.382
REMARK  Name = 
REMARK  12 active torsions:
REMARK  status: ('A' for Active; 'I' for Inactive)
REMARK    1  A    between atoms: C_1  and  O_2
REMARK    2  A    between atoms: O_2  and  C_3
REMARK    3  A    between atoms: C_6  and  C_7
REMARK    4  A    between atoms: C_7  and  O_9
REMARK    5  A    between atoms: O_9  and  C_10
REMARK    6  A    between atoms: C_10  and  C_11
REMARK    7  A    between atoms: N_13  and  C_14
REMARK    8  A    between atoms: C_19  and  C_20
REMARK    9  A    between atoms: C_25  and  O_26
REMARK   10  A    between atoms: O_26  and  C_27
REMARK   11  A    between atoms: C_28  and  O_29
REMARK   12  A    between atoms: O_29  and  C_30
REMARK                            x       y       z     vdW  Elec       q    Type
REMARK                         _______ _______ _______ _____ _____    ______ ____
ROOT
ATOM      1  C   UNL     1       7.436   7.460  17.069  0.00  0.00    +0.000 C 
ENDROOT
BRANCH   1   2
ATOM      2  C   UNL     1       8.201   8.388  18.021  0.00  0.00    +0.000 C 
ATOM      3  O   UNL     1       8.717   7.936  19.042  0.00  0.00    +0.000 OA
ATOM      4  N   UNL     1       8.212   9.719  17.628  0.00  0.00    +0.000 N 
ATOM      5  H   UNL     1       7.527   9.974  16.912  0.00  0.00    +0.000 HD
BRANCH   4   6
ATOM      6  C   UNL     1       8.905  10.773  18.265  0.00  0.00    +0.000 A 
ATOM      7  C   UNL     1       9.934  10.561  19.178  0.00  0.00    +0.000 A 
ATOM      8  C   UNL     1      10.570  11.637  19.797  0.00  0.00    +0.000 A 
ATOM      9  C   UNL     1      10.194  12.954  19.508  0.00  0.00    +0.000 A 
ATOM     10 CL   UNL     1      11.046  14.193  20.354  0.00  0.00    +0.000 Cl
ATOM     11  C   UNL     1       9.174  13.204  18.582  0.00  0.00    +0.000 A 
ATOM     12  C   UNL     1       8.549  12.092  17.956  0.00  0.00    +0.000 A 
BRANCH  11  13
ATOM     13  C   UNL     1       8.681  14.579  18.220  0.00  0.00    +0.000 C 
ATOM     14  F   UNL     1       8.266  15.370  19.243  0.00  0.00    +0.000 F 
ATOM     15  F   UNL     1       9.637  15.304  17.570  0.00  0.00    +0.000 F 
ATOM     16  F   UNL     1       7.623  14.523  17.359  0.00  0.00    +0.000 F 
ENDBRANCH  11  13
ENDBRANCH   4   6
ENDBRANCH   1   2
BRANCH   1  17
ATOM     17  O   UNL     1       6.100   7.193  17.489  0.00  0.00    +0.000 OA
BRANCH  17  18
ATOM     18  C   UNL     1       5.295   6.659  16.536  0.00  0.00    +0.000 C 
ATOM     19  O   UNL     1       5.344   6.944  15.349  0.00  0.00    +0.000 OA
BRANCH  18  23
ATOM     20  C   UNL     1       2.236   4.128  18.141  0.00  0.00    +0.000 A 
ATOM     21  C   UNL     1       2.170   5.521  18.283  0.00  0.00    +0.000 A 
ATOM     22  C   UNL     1       3.186   6.328  17.791  0.00  0.00    +0.000 A 
ATOM     23  C   UNL     1       4.304   5.750  17.179  0.00  0.00    +0.000 A 
ATOM     24  C   UNL     1       4.442   4.345  17.114  0.00  0.00    +0.000 A 
ATOM     25  C   UNL     1       3.400   3.521  17.618  0.00  0.00    +0.000 A 
BRANCH  20  27
ATOM     26  C   UNL     1       0.857   3.447  19.942  0.00  0.00    +0.000 C 
ATOM     27  O   UNL     1       1.177   3.359  18.552  0.00  0.00    +0.000 OA
ENDBRANCH  20  27
BRANCH  24  28
ATOM     28  O   UNL     1       5.634   3.932  16.571  0.00  0.00    +0.000 OA
ATOM     29  C   UNL     1       5.719   3.547  15.208  0.00  0.00    +0.000 C 
ENDBRANCH  24  28
BRANCH  25  30
ATOM     30  O   UNL     1       3.626   2.171  17.560  0.00  0.00    +0.000 OA
ATOM     31  C   UNL     1       3.846   1.399  18.729  0.00  0.00    +0.000 C 
ENDBRANCH  25  30
ENDBRANCH  18  23
ENDBRANCH  17  18
ENDBRANCH   1  17
TORSDOF 9
ENDMDL
MODEL 8
REMARK VINA RESULT:      -6.9      4.050      5.557
REMARK  Name = 
REMARK  12 active torsions:
REMARK  status: ('A' for Active; 'I' for Inactive)
REMARK    1  A    between atoms: C_1  and  O_2
REMARK    2  A    between atoms: O_2  and  C_3
REMARK    3  A    between atoms: C_6  and  C_7
REMARK    4  A    between atoms: C_7  and  O_9
REMARK    5  A    between atoms: O_9  and  C_10
REMARK    6  A    between atoms: C_10  and  C_11
REMARK    7  A    between atoms: N_13  and  C_14
REMARK    8  A    between atoms: C_19  and  C_20
REMARK    9  A    between atoms: C_25  and  O_26
REMARK   10  A    between atoms: O_26  and  C_27
REMARK   11  A    between atoms: C_28  and  O_29
REMARK   12  A    between atoms: O_29  and  C_30
REMARK                            x       y       z     vdW  Elec       q    Type
REMARK                         _______ _______ _______ _____ _____    ______ ____
ROOT
ATOM      1  C   UNL     1       1.626   9.597  18.718  0.00  0.00    +0.000 C 
ENDROOT
BRANCH   1   2
ATOM      2  C   UNL     1       0.248   9.941  19.297  0.00  0.00    +0.000 C 
ATOM      3  O   UNL     1      -0.153   9.377  20.314  0.00  0.00    +0.000 OA
ATOM      4  N   UNL     1      -0.457  10.884  18.561  0.00  0.00    +0.000 N 
ATOM      5  H   UNL     1      -0.108  11.058  17.616  0.00  0.00    +0.000 HD
BRANCH   4   6
ATOM      6  C   UNL     1      -1.707  11.446  18.904  0.00  0.00    +0.000 A 
ATOM      7  C   UNL     1      -1.922  12.160  20.080  0.00  0.00    +0.000 A 
ATOM      8  C   UNL     1      -3.183  12.674  20.380  0.00  0.00    +0.000 A 
ATOM      9  C   UNL     1      -4.258  12.492  19.504  0.00  0.00    +0.000 A 
ATOM     10 CL   UNL     1      -5.769  13.162  20.001  0.00  0.00    +0.000 Cl
ATOM     11  C   UNL     1      -4.074  11.795  18.304  0.00  0.00    +0.000 A 
ATOM     12  C   UNL     1      -2.777  11.290  18.014  0.00  0.00    +0.000 A 
BRANCH  11  13
ATOM     13  C   UNL     1      -5.169  11.526  17.307  0.00  0.00    +0.000 C 
ATOM     14  F   UNL     1      -5.804  12.609  16.788  0.00  0.00    +0.000 F 
ATOM     15  F   UNL     1      -4.711  10.827  16.229  0.00  0.00    +0.000 F 
ATOM     16  F   UNL     1      -6.159  10.755  17.844  0.00  0.00    +0.000 F 
ENDBRANCH  11  13
ENDBRANCH   4   6
ENDBRANCH   1   2
BRANCH   1  17
ATOM     17  O   UNL     1       1.702   8.278  18.181  0.00  0.00    +0.000 OA
BRANCH  17  18
ATOM     18  C   UNL     1       2.343   7.376  18.967  0.00  0.00    +0.000 C 
ATOM     19  O   UNL     1       2.378   7.422  20.187  0.00  0.00    +0.000 OA
BRANCH  18  23
ATOM     20  C   UNL     1       4.639   4.550  16.712  0.00  0.00    +0.000 A 
ATOM     21  C   UNL     1       4.966   5.913  16.709  0.00  0.00    +0.000 A 
ATOM     22  C   UNL     1       4.193   6.825  17.414  0.00  0.00    +0.000 A 
ATOM     23  C   UNL     1       3.056   6.390  18.106  0.00  0.00    +0.000 A 
ATOM     24  C   UNL     1       2.648   5.038  18.041  0.00  0.00    +0.000 A 
ATOM     25  C   UNL     1       3.442   4.107  17.319  0.00  0.00    +0.000 A 
BRANCH  20  27
ATOM     26  C   UNL     1       6.337   4.217  15.095  0.00  0.00    +0.000 C 
ATOM     27  O   UNL     1       5.471   3.658  16.086  0.00  0.00    +0.000 OA
ENDBRANCH  20  27
BRANCH  24  28
ATOM     28  O   UNL     1       1.465   4.787  18.692  0.00  0.00    +0.000 OA
ATOM     29  C   UNL     1       1.452   4.146  19.958  0.00  0.00    +0.000 C 
ENDBRANCH  24  28
BRANCH  25  30
ATOM     30  O   UNL     1       2.959   2.826  17.266  0.00  0.00    +0.000 OA
ATOM     31  C   UNL     1       3.467   1.800  18.103  0.00  0.00    +0.000 C 
ENDBRANCH  25  30
ENDBRANCH  18  23
ENDBRANCH  17  18
ENDBRANCH   1  17
TORSDOF 9
ENDMDL
MODEL 9
REMARK VINA RESULT:      -6.8      5.076      8.850
REMARK  Name = 
REMARK  12 active torsions:
REMARK  status: ('A' for Active; 'I' for Inactive)
REMARK    1  A    between atoms: C_1  and  O_2
REMARK    2  A    between atoms: O_2  and  C_3
REMARK    3  A    between atoms: C_6  and  C_7
REMARK    4  A    between atoms: C_7  and  O_9
REMARK    5  A    between atoms: O_9  and  C_10
REMARK    6  A    between atoms: C_10  and  C_11
REMARK    7  A    between atoms: N_13  and  C_14
REMARK    8  A    between atoms: C_19  and  C_20
REMARK    9  A    between atoms: C_25  and  O_26
REMARK   10  A    between atoms: O_26  and  C_27
REMARK   11  A    between atoms: C_28  and  O_29
REMARK   12  A    between atoms: O_29  and  C_30
REMARK                            x       y       z     vdW  Elec       q    Type
REMARK                         _______ _______ _______ _____ _____    ______ ____
ROOT
ATOM      1  C   UNL     1       2.086   9.513  17.959  0.00  0.00    +0.000 C 
ENDROOT
BRANCH   1   2
ATOM      2  C   UNL     1       2.318   8.105  18.520  0.00  0.00    +0.000 C 
ATOM      3  O   UNL     1       2.117   7.873  19.710  0.00  0.00    +0.000 OA
ATOM      4  N   UNL     1       2.783   7.192  17.582  0.00  0.00    +0.000 N 
ATOM      5  H   UNL     1       3.146   7.595  16.715  0.00  0.00    +0.000 HD
BRANCH   4   6
ATOM      6  C   UNL     1       3.003   5.813  17.797  0.00  0.00    +0.000 A 
ATOM      7  C   UNL     1       4.130   5.143  17.330  0.00  0.00    +0.000 A 
ATOM      8  C   UNL     1       4.287   3.774  17.550  0.00  0.00    +0.000 A 
ATOM      9  C   UNL     1       3.319   3.046  18.250  0.00  0.00    +0.000 A 
ATOM     10 CL   UNL     1       3.623   1.357  18.438  0.00  0.00    +0.000 Cl
ATOM     11  C   UNL     1       2.181   3.691  18.749  0.00  0.00    +0.000 A 
ATOM     12  C   UNL     1       2.049   5.088  18.523  0.00  0.00    +0.000 A 
BRANCH  11  13
ATOM     13  C   UNL     1       1.073   2.995  19.494  0.00  0.00    +0.000 C 
ATOM     14  F   UNL     1       0.187   3.785  20.152  0.00  0.00    +0.000 F 
ATOM     15  F   UNL     1       0.317   2.219  18.665  0.00  0.00    +0.000 F 
ATOM     16  F   UNL     1       1.564   2.142  20.440  0.00  0.00    +0.000 F 
ENDBRANCH  11  13
ENDBRANCH   4   6
ENDBRANCH   1   2
BRANCH   1  17
ATOM     17  O   UNL     1       1.318  10.348  18.823  0.00  0.00    +0.000 OA
BRANCH  17  18
ATOM     18  C   UNL     1      -0.027  10.215  18.702  0.00  0.00    +0.000 C 
ATOM     19  O   UNL     1      -0.591   9.745  17.726  0.00  0.00    +0.000 OA
BRANCH  18  23
ATOM     20  C   UNL     1      -1.654  12.085  22.195  0.00  0.00    +0.000 A 
ATOM     21  C   UNL     1      -0.726  11.039  22.300  0.00  0.00    +0.000 A 
ATOM     22  C   UNL     1      -0.234  10.417  21.162  0.00  0.00    +0.000 A 
ATOM     23  C   UNL     1      -0.691  10.807  19.898  0.00  0.00    +0.000 A 
ATOM     24  C   UNL     1      -1.701  11.789  19.770  0.00  0.00    +0.000 A 
ATOM     25  C   UNL     1      -2.202  12.425  20.937  0.00  0.00    +0.000 A 
BRANCH  20  27
ATOM     26  C   UNL     1      -1.352  13.958  23.613  0.00  0.00    +0.000 C 
ATOM     27  O   UNL     1      -2.055  12.746  23.328  0.00  0.00    +0.000 OA
ENDBRANCH  20  27
BRANCH  24  28
ATOM     28  O   UNL     1      -2.109  11.995  18.475  0.00  0.00    +0.000 OA
ATOM     29  C   UNL     1      -3.344  11.473  18.009  0.00  0.00    +0.000 C 
ENDBRANCH  24  28
BRANCH  25  30
ATOM     30  O   UNL     1      -3.209  13.332  20.736  0.00  0.00    +0.000 OA
ATOM     31  C   UNL     1      -4.558  13.034  21.056  0.00  0.00    +0.000 C 
ENDBRANCH  25  30
ENDBRANCH  18  23
ENDBRANCH  17  18
ENDBRANCH   1  17
TORSDOF 9
ENDMDL
