MODEL 1
REMARK VINA RESULT:      -7.7      0.000      0.000
REMARK  Name = 
REMARK  9 active torsions:
REMARK  status: ('A' for Active; 'I' for Inactive)
REMARK    1  A    between atoms: C_1  and  O_2
REMARK    2  A    between atoms: O_2  and  C_3
REMARK    3  A    between atoms: C_8  and  C_9
REMARK    4  A    between atoms: C_9  and  C_10
REMARK    5  A    between atoms: C_10  and  N_11
REMARK    6  A    between atoms: C_12  and  C_14
REMARK    7  A    between atoms: C_14  and  N_15
REMARK    8  A    between atoms: C_19  and  C_20
REMARK    9  A    between atoms: C_23  and  C_24
REMARK                            x       y       z     vdW  Elec       q    Type
REMARK                         _______ _______ _______ _____ _____    ______ ____
ROOT
ATOM      1  N   UNL     1       4.475   3.232  17.964  0.00  0.00    +0.000 N 
ATOM      2  C   UNL     1       5.013   3.379  19.235  0.00  0.00    +0.000 C 
ATOM      3  O   UNL     1       4.752   2.587  20.145  0.00  0.00    +0.000 OA
ATOM      4  H   UNL     1       4.478   4.030  17.338  0.00  0.00    +0.000 HD
ENDROOT
BRANCH   1   5
ATOM      5  C   UNL     1       3.514   2.160  17.757  0.00  0.00    +0.000 C 
BRANCH   5   6
ATOM      6  C   UNL     1       2.043   2.561  17.875  0.00  0.00    +0.000 C 
BRANCH   6  12
ATOM      7  C   UNL     1       1.476   3.933  19.969  0.00  0.00    +0.000 A 
ATOM      8  C   UNL     1       1.424   5.168  20.630  0.00  0.00    +0.000 A 
ATOM      9  C   UNL     1       1.661   6.352  19.934  0.00  0.00    +0.000 A 
ATOM     10  C   UNL     1       1.997   6.306  18.586  0.00  0.00    +0.000 A 
ATOM     11  C   UNL     1       2.147   5.074  17.947  0.00  0.00    +0.000 A 
ATOM     12  C   UNL     1       1.910   3.871  18.631  0.00  0.00    +0.000 A 
BRANCH   7  14
ATOM     13  C   UNL     1       1.678   2.567  21.883  0.00  0.00    +0.000 C 
ATOM     14  O   UNL     1       1.122   2.760  20.579  0.00  0.00    +0.000 OA
ENDBRANCH   7  14
ENDBRANCH   6  12
ENDBRANCH   5   6
ENDBRANCH   1   5
BRANCH   2  15
ATOM     15  C   UNL     1       5.929   4.596  19.443  0.00  0.00    +0.000 C 
BRANCH  15  16
ATOM     16  N   UNL     1       6.806   4.926  18.305  0.00  0.00    +0.000 NA
ATOM     17  C   UNL     1       8.159   5.348  18.661  0.00  0.00    +0.000 C 
ATOM     18  C   UNL     1       8.151   6.861  18.599  0.00  0.00    +0.000 C 
ATOM     19  C   UNL     1       7.189   7.168  17.465  0.00  0.00    +0.000 C 
ATOM     20  C   UNL     1       6.261   5.946  17.371  0.00  0.00    +0.000 C 
BRANCH  20  21
ATOM     21  C   UNL     1       6.232   5.370  15.977  0.00  0.00    +0.000 A 
ATOM     22  N   UNL     1       5.205   4.635  15.522  0.00  0.00    +0.000 NA
ATOM     23  O   UNL     1       5.610   4.275  14.236  0.00  0.00    +0.000 OA
ATOM     24  C   UNL     1       6.837   4.840  14.043  0.00  0.00    +0.000 A 
ATOM     25  C   UNL     1       7.507   4.567  12.761  0.00  0.00    +0.000 C 
ATOM     26  N   UNL     1       7.257   5.543  15.067  0.00  0.00    +0.000 NA
ENDBRANCH  20  21
ENDBRANCH  15  16
ENDBRANCH   2  15
TORSDOF 7
ENDMDL
MODEL 2
REMARK VINA RESULT:      -7.6      3.930      7.945
REMARK  Name = 
REMARK  9 active torsions:
REMARK  status: ('A' for Active; 'I' for Inactive)
REMARK    1  A    between atoms: C_1  and  O_2
REMARK    2  A    between atoms: O_2  and  C_3
REMARK    3  A    between atoms: C_8  and  C_9
REMARK    4  A    between atoms: C_9  and  C_10
REMARK    5  A    between atoms: C_10  and  N_11
REMARK    6  A    between atoms: C_12  and  C_14
REMARK    7  A    between atoms: C_14  and  N_15
REMARK    8  A    between atoms: C_19  and  C_20
REMARK    9  A    between atoms: C_23  and  C_24
REMARK                            x       y       z     vdW  Elec       q    Type
REMARK                         _______ _______ _______ _____ _____    ______ ____
ROOT
ATOM      1  N   UNL     1       7.889   7.413  17.624  0.00  0.00    +0.000 N 
ATOM      2  C   UNL     1       7.831   6.193  18.285  0.00  0.00    +0.000 C 
ATOM      3  O   UNL     1       8.143   6.084  19.474  0.00  0.00    +0.000 OA
ATOM      4  H   UNL     1       7.902   7.418  16.611  0.00  0.00    +0.000 HD
ENDROOT
BRANCH   1   5
ATOM      5  C   UNL     1       8.421   8.552  18.356  0.00  0.00    +0.000 C 
BRANCH   5   6
ATOM      6  C   UNL     1       7.966   9.925  17.861  0.00  0.00    +0.000 C 
BRANCH   6  12
ATOM      7  C   UNL     1       8.833  12.341  17.888  0.00  0.00    +0.000 A 
ATOM      8  C   UNL     1       9.761  13.290  18.339  0.00  0.00    +0.000 A 
ATOM      9  C   UNL     1      10.896  12.889  19.041  0.00  0.00    +0.000 A 
ATOM     10  C   UNL     1      11.086  11.544  19.338  0.00  0.00    +0.000 A 
ATOM     11  C   UNL     1      10.116  10.608  18.977  0.00  0.00    +0.000 A 
ATOM     12  C   UNL     1       8.967  10.993  18.268  0.00  0.00    +0.000 A 
BRANCH   7  14
ATOM     13  C   UNL     1       7.043  13.830  17.500  0.00  0.00    +0.000 C 
ATOM     14  O   UNL     1       7.777  12.675  17.084  0.00  0.00    +0.000 OA
ENDBRANCH   7  14
ENDBRANCH   6  12
ENDBRANCH   5   6
ENDBRANCH   1   5
BRANCH   2  15
ATOM     15  C   UNL     1       7.379   4.990  17.442  0.00  0.00    +0.000 C 
BRANCH  15  16
ATOM     16  N   UNL     1       5.921   4.774  17.382  0.00  0.00    +0.000 NA
ATOM     17  C   UNL     1       5.281   5.178  16.132  0.00  0.00    +0.000 C 
ATOM     18  C   UNL     1       4.682   6.544  16.396  0.00  0.00    +0.000 C 
ATOM     19  C   UNL     1       4.256   6.474  17.851  0.00  0.00    +0.000 C 
ATOM     20  C   UNL     1       5.152   5.399  18.489  0.00  0.00    +0.000 C 
BRANCH  20  21
ATOM     21  C   UNL     1       4.339   4.335  19.185  0.00  0.00    +0.000 A 
ATOM     22  N   UNL     1       4.889   3.208  19.665  0.00  0.00    +0.000 NA
ATOM     23  O   UNL     1       3.794   2.504  20.169  0.00  0.00    +0.000 OA
ATOM     24  C   UNL     1       2.696   3.284  19.949  0.00  0.00    +0.000 A 
ATOM     25  C   UNL     1       1.392   2.737  20.356  0.00  0.00    +0.000 C 
ATOM     26  N   UNL     1       2.975   4.429  19.372  0.00  0.00    +0.000 NA
ENDBRANCH  20  21
ENDBRANCH  15  16
ENDBRANCH   2  15
TORSDOF 7
ENDMDL
MODEL 3
REMARK VINA RESULT:      -7.5      2.496      3.437
REMARK  Name = 
REMARK  9 active torsions:
REMARK  status: ('A' for Active; 'I' for Inactive)
REMARK    1  A    between atoms: C_1  and  O_2
REMARK    2  A    between atoms: O_2  and  C_3
REMARK    3  A    between atoms: C_8  and  C_9
REMARK    4  A    between atoms: C_9  and  C_10
REMARK    5  A    between atoms: C_10  and  N_11
REMARK    6  A    between atoms: C_12  and  C_14
REMARK    7  A    between atoms: C_14  and  N_15
REMARK    8  A    between atoms: C_19  and  C_20
REMARK    9  A    between atoms: C_23  and  C_24
REMARK                            x       y       z     vdW  Elec       q    Type
REMARK                         _______ _______ _______ _____ _____    ______ ____
ROOT
ATOM      1  N   UNL     1       3.654   5.276  19.809  0.00  0.00    +0.000 N 
ATOM      2  C   UNL     1       4.139   4.483  18.778  0.00  0.00    +0.000 C 
ATOM      3  O   UNL     1       3.463   4.243  17.773  0.00  0.00    +0.000 OA
ATOM      4  H   UNL     1       4.103   5.223  20.716  0.00  0.00    +0.000 HD
ENDROOT
BRANCH   1   5
ATOM      5  C   UNL     1       2.280   5.745  19.713  0.00  0.00    +0.000 C 
BRANCH   5   6
ATOM      6  C   UNL     1       1.880   6.827  20.716  0.00  0.00    +0.000 C 
BRANCH   6  12
ATOM      7  C   UNL     1       0.589   9.034  20.487  0.00  0.00    +0.000 A 
ATOM      8  C   UNL     1       0.355  10.234  19.801  0.00  0.00    +0.000 A 
ATOM      9  C   UNL     1       0.944  10.465  18.560  0.00  0.00    +0.000 A 
ATOM     10  C   UNL     1       1.809   9.520  18.018  0.00  0.00    +0.000 A 
ATOM     11  C   UNL     1       2.123   8.369  18.742  0.00  0.00    +0.000 A 
ATOM     12  C   UNL     1       1.537   8.118  19.993  0.00  0.00    +0.000 A 
BRANCH   7  14
ATOM     13  C   UNL     1       0.102   9.637  22.715  0.00  0.00    +0.000 C 
ATOM     14  O   UNL     1      -0.070   8.709  21.641  0.00  0.00    +0.000 OA
ENDBRANCH   7  14
ENDBRANCH   6  12
ENDBRANCH   5   6
ENDBRANCH   1   5
BRANCH   2  15
ATOM     15  C   UNL     1       5.550   3.909  18.975  0.00  0.00    +0.000 C 
BRANCH  15  16
ATOM     16  N   UNL     1       6.569   4.402  18.029  0.00  0.00    +0.000 NA
ATOM     17  C   UNL     1       7.799   4.901  18.640  0.00  0.00    +0.000 C 
ATOM     18  C   UNL     1       7.659   6.408  18.682  0.00  0.00    +0.000 C 
ATOM     19  C   UNL     1       6.874   6.730  17.423  0.00  0.00    +0.000 C 
ATOM     20  C   UNL     1       6.093   5.449  17.088  0.00  0.00    +0.000 C 
BRANCH  20  21
ATOM     21  C   UNL     1       6.348   4.991  15.673  0.00  0.00    +0.000 A 
ATOM     22  N   UNL     1       7.458   5.328  14.997  0.00  0.00    +0.000 NA
ATOM     23  O   UNL     1       7.260   4.747  13.743  0.00  0.00    +0.000 OA
ATOM     24  C   UNL     1       6.055   4.110  13.796  0.00  0.00    +0.000 A 
ATOM     25  C   UNL     1       5.592   3.447  12.565  0.00  0.00    +0.000 C 
ATOM     26  N   UNL     1       5.463   4.205  14.963  0.00  0.00    +0.000 NA
ENDBRANCH  20  21
ENDBRANCH  15  16
ENDBRANCH   2  15
TORSDOF 7
ENDMDL
MODEL 4
REMARK VINA RESULT:      -7.5      2.246      3.320
REMARK  Name = 
REMARK  9 active torsions:
REMARK  status: ('A' for Active; 'I' for Inactive)
REMARK    1  A    between atoms: C_1  and  O_2
REMARK    2  A    between atoms: O_2  and  C_3
REMARK    3  A    between atoms: C_8  and  C_9
REMARK    4  A    between atoms: C_9  and  C_10
REMARK    5  A    between atoms: C_10  and  N_11
REMARK    6  A    between atoms: C_12  and  C_14
REMARK    7  A    between atoms: C_14  and  N_15
REMARK    8  A    between atoms: C_19  and  C_20
REMARK    9  A    between atoms: C_23  and  C_24
REMARK                            x       y       z     vdW  Elec       q    Type
REMARK                         _______ _______ _______ _____ _____    ______ ____
ROOT
ATOM      1  N   UNL     1       2.296   4.616  18.618  0.00  0.00    +0.000 N 
ATOM      2  C   UNL     1       3.226   3.605  18.818  0.00  0.00    +0.000 C 
ATOM      3  O   UNL     1       3.412   3.106  19.931  0.00  0.00    +0.000 OA
ATOM      4  H   UNL     1       2.367   5.184  17.782  0.00  0.00    +0.000 HD
ENDROOT
BRANCH   1   5
ATOM      5  C   UNL     1       1.607   5.140  19.787  0.00  0.00    +0.000 C 
BRANCH   5   6
ATOM      6  C   UNL     1       2.295   6.310  20.491  0.00  0.00    +0.000 C 
BRANCH   6  12
ATOM      7  C   UNL     1       1.182   8.623  20.465  0.00  0.00    +0.000 A 
ATOM      8  C   UNL     1       0.922   9.835  19.810  0.00  0.00    +0.000 A 
ATOM      9  C   UNL     1       1.272  10.003  18.471  0.00  0.00    +0.000 A 
ATOM     10  C   UNL     1       1.926   8.979  17.794  0.00  0.00    +0.000 A 
ATOM     11  C   UNL     1       2.275   7.810  18.470  0.00  0.00    +0.000 A 
ATOM     12  C   UNL     1       1.929   7.621  19.818  0.00  0.00    +0.000 A 
BRANCH   7  14
ATOM     13  C   UNL     1      -0.235   9.291  22.231  0.00  0.00    +0.000 C 
ATOM     14  O   UNL     1       0.739   8.367  21.735  0.00  0.00    +0.000 OA
ENDBRANCH   7  14
ENDBRANCH   6  12
ENDBRANCH   5   6
ENDBRANCH   1   5
BRANCH   2  15
ATOM     15  C   UNL     1       4.020   3.164  17.578  0.00  0.00    +0.000 C 
BRANCH  15  16
ATOM     16  N   UNL     1       5.255   3.928  17.317  0.00  0.00    +0.000 NA
ATOM     17  C   UNL     1       5.968   4.388  18.506  0.00  0.00    +0.000 C 
ATOM     18  C   UNL     1       5.567   5.837  18.694  0.00  0.00    +0.000 C 
ATOM     19  C   UNL     1       5.395   6.349  17.275  0.00  0.00    +0.000 C 
ATOM     20  C   UNL     1       5.084   5.105  16.426  0.00  0.00    +0.000 C 
BRANCH  20  21
ATOM     21  C   UNL     1       6.027   4.976  15.255  0.00  0.00    +0.000 A 
ATOM     22  N   UNL     1       7.201   5.626  15.202  0.00  0.00    +0.000 NA
ATOM     23  O   UNL     1       7.711   5.267  13.953  0.00  0.00    +0.000 OA
ATOM     24  C   UNL     1       6.796   4.430  13.385  0.00  0.00    +0.000 A 
ATOM     25  C   UNL     1       7.085   3.941  12.027  0.00  0.00    +0.000 C 
ATOM     26  N   UNL     1       5.756   4.196  14.149  0.00  0.00    +0.000 NA
ENDBRANCH  20  21
ENDBRANCH  15  16
ENDBRANCH   2  15
TORSDOF 7
ENDMDL
MODEL 5
REMARK VINA RESULT:      -7.4      3.436      5.171
REMARK  Name = 
REMARK  9 active torsions:
REMARK  status: ('A' for Active; 'I' for Inactive)
REMARK    1  A    between atoms: C_1  and  O_2
REMARK    2  A    between atoms: O_2  and  C_3
REMARK    3  A    between atoms: C_8  and  C_9
REMARK    4  A    between atoms: C_9  and  C_10
REMARK    5  A    between atoms: C_10  and  N_11
REMARK    6  A    between atoms: C_12  and  C_14
REMARK    7  A    between atoms: C_14  and  N_15
REMARK    8  A    between atoms: C_19  and  C_20
REMARK    9  A    between atoms: C_23  and  C_24
REMARK                            x       y       z     vdW  Elec       q    Type
REMARK                         _______ _______ _______ _____ _____    ______ ____
ROOT
ATOM      1  N   UNL     1       3.308   6.372  18.213  0.00  0.00    +0.000 N 
ATOM      2  C   UNL     1       3.132   5.011  18.003  0.00  0.00    +0.000 C 
ATOM      3  O   UNL     1       2.207   4.388  18.532  0.00  0.00    +0.000 OA
ATOM      4  H   UNL     1       4.210   6.784  18.004  0.00  0.00    +0.000 HD
ENDROOT
BRANCH   1   5
ATOM      5  C   UNL     1       2.418   7.030  19.156  0.00  0.00    +0.000 C 
BRANCH   5   6
ATOM      6  C   UNL     1       1.965   8.437  18.765  0.00  0.00    +0.000 C 
BRANCH   6  12
ATOM      7  C   UNL     1       0.634  10.368  19.808  0.00  0.00    +0.000 A 
ATOM      8  C   UNL     1      -0.095  10.895  20.884  0.00  0.00    +0.000 A 
ATOM      9  C   UNL     1      -0.132  10.226  22.106  0.00  0.00    +0.000 A 
ATOM     10  C   UNL     1       0.519   9.006  22.246  0.00  0.00    +0.000 A 
ATOM     11  C   UNL     1       1.162   8.430  21.150  0.00  0.00    +0.000 A 
ATOM     12  C   UNL     1       1.212   9.089  19.911  0.00  0.00    +0.000 A 
BRANCH   7  14
ATOM     13  C   UNL     1       1.072  12.450  18.786  0.00  0.00    +0.000 C 
ATOM     14  O   UNL     1       0.807  11.053  18.635  0.00  0.00    +0.000 OA
ENDBRANCH   7  14
ENDBRANCH   6  12
ENDBRANCH   5   6
ENDBRANCH   1   5
BRANCH   2  15
ATOM     15  C   UNL     1       4.168   4.329  17.095  0.00  0.00    +0.000 C 
BRANCH  15  16
ATOM     16  N   UNL     1       5.197   5.222  16.531  0.00  0.00    +0.000 NA
ATOM     17  C   UNL     1       5.118   5.432  15.087  0.00  0.00    +0.000 C 
ATOM     18  C   UNL     1       6.141   4.497  14.476  0.00  0.00    +0.000 C 
ATOM     19  C   UNL     1       7.260   4.471  15.502  0.00  0.00    +0.000 C 
ATOM     20  C   UNL     1       6.598   4.836  16.841  0.00  0.00    +0.000 C 
BRANCH  20  21
ATOM     21  C   UNL     1       7.291   5.996  17.511  0.00  0.00    +0.000 A 
ATOM     22  N   UNL     1       7.894   5.882  18.705  0.00  0.00    +0.000 NA
ATOM     23  O   UNL     1       8.347   7.178  18.962  0.00  0.00    +0.000 OA
ATOM     24  C   UNL     1       7.979   7.938  17.890  0.00  0.00    +0.000 A 
ATOM     25  C   UNL     1       8.307   9.372  17.941  0.00  0.00    +0.000 C 
ATOM     26  N   UNL     1       7.351   7.260  16.959  0.00  0.00    +0.000 NA
ENDBRANCH  20  21
ENDBRANCH  15  16
ENDBRANCH   2  15
TORSDOF 7
ENDMDL
MODEL 6
REMARK VINA RESULT:      -7.4      4.744      6.343
REMARK  Name = 
REMARK  9 active torsions:
REMARK  status: ('A' for Active; 'I' for Inactive)
REMARK    1  A    between atoms: C_1  and  O_2
REMARK    2  A    between atoms: O_2  and  C_3
REMARK    3  A    between atoms: C_8  and  C_9
REMARK    4  A    between atoms: C_9  and  C_10
REMARK    5  A    between atoms: C_10  and  N_11
REMARK    6  A    between atoms: C_12  and  C_14
REMARK    7  A    between atoms: C_14  and  N_15
REMARK    8  A    between atoms: C_19  and  C_20
REMARK    9  A    between atoms: C_23  and  C_24
REMARK                            x       y       z     vdW  Elec       q    Type
REMARK                         _______ _______ _______ _____ _____    ______ ____
ROOT
ATOM      1  N   UNL     1       1.515   8.729  19.596  0.00  0.00    +0.000 N 
ATOM      2  C   UNL     1       2.219   7.987  18.656  0.00  0.00    +0.000 C 
ATOM      3  O   UNL     1       2.493   8.445  17.543  0.00  0.00    +0.000 OA
ATOM      4  H   UNL     1       1.071   8.242  20.366  0.00  0.00    +0.000 HD
ENDROOT
BRANCH   1   5
ATOM      5  C   UNL     1       1.024  10.038  19.194  0.00  0.00    +0.000 C 
BRANCH   5   6
ATOM      6  C   UNL     1      -0.317  10.454  19.797  0.00  0.00    +0.000 C 
BRANCH   6  12
ATOM      7  C   UNL     1      -2.437  11.524  18.822  0.00  0.00    +0.000 A 
ATOM      8  C   UNL     1      -3.335  11.680  17.756  0.00  0.00    +0.000 A 
ATOM      9  C   UNL     1      -3.254  10.853  16.637  0.00  0.00    +0.000 A 
ATOM     10  C   UNL     1      -2.246   9.898  16.555  0.00  0.00    +0.000 A 
ATOM     11  C   UNL     1      -1.290   9.806  17.568  0.00  0.00    +0.000 A 
ATOM     12  C   UNL     1      -1.358  10.629  18.704  0.00  0.00    +0.000 A 
BRANCH   7  14
ATOM     13  C   UNL     1      -3.895  12.631  20.312  0.00  0.00    +0.000 C 
ATOM     14  O   UNL     1      -2.562  12.222  19.992  0.00  0.00    +0.000 OA
ENDBRANCH   7  14
ENDBRANCH   6  12
ENDBRANCH   5   6
ENDBRANCH   1   5
BRANCH   2  15
ATOM     15  C   UNL     1       2.613   6.563  19.079  0.00  0.00    +0.000 C 
BRANCH  15  16
ATOM     16  N   UNL     1       2.771   5.599  17.974  0.00  0.00    +0.000 NA
ATOM     17  C   UNL     1       1.666   4.658  17.804  0.00  0.00    +0.000 C 
ATOM     18  C   UNL     1       2.109   3.375  18.477  0.00  0.00    +0.000 C 
ATOM     19  C   UNL     1       3.606   3.336  18.227  0.00  0.00    +0.000 C 
ATOM     20  C   UNL     1       4.024   4.801  18.015  0.00  0.00    +0.000 C 
BRANCH  20  21
ATOM     21  C   UNL     1       4.769   4.988  16.717  0.00  0.00    +0.000 A 
ATOM     22  N   UNL     1       5.021   6.201  16.199  0.00  0.00    +0.000 NA
ATOM     23  O   UNL     1       5.670   5.910  14.998  0.00  0.00    +0.000 OA
ATOM     24  C   UNL     1       5.751   4.550  14.919  0.00  0.00    +0.000 A 
ATOM     25  C   UNL     1       6.363   3.984  13.706  0.00  0.00    +0.000 C 
ATOM     26  N   UNL     1       5.238   3.934  15.957  0.00  0.00    +0.000 NA
ENDBRANCH  20  21
ENDBRANCH  15  16
ENDBRANCH   2  15
TORSDOF 7
ENDMDL
MODEL 7
REMARK VINA RESULT:      -7.4      3.895      7.740
REMARK  Name = 
REMARK  9 active torsions:
REMARK  status: ('A' for Active; 'I' for Inactive)
REMARK    1  A    between atoms: C_1  and  O_2
REMARK    2  A    between atoms: O_2  and  C_3
REMARK    3  A    between atoms: C_8  and  C_9
REMARK    4  A    between atoms: C_9  and  C_10
REMARK    5  A    between atoms: C_10  and  N_11
REMARK    6  A    between atoms: C_12  and  C_14
REMARK    7  A    between atoms: C_14  and  N_15
REMARK    8  A    between atoms: C_19  and  C_20
REMARK    9  A    between atoms: C_23  and  C_24
REMARK                            x       y       z     vdW  Elec       q    Type
REMARK                         _______ _______ _______ _____ _____    ______ ____
ROOT
ATOM      1  N   UNL     1       8.017   7.383  17.853  0.00  0.00    +0.000 N 
ATOM      2  C   UNL     1       7.729   6.138  18.397  0.00  0.00    +0.000 C 
ATOM      3  O   UNL     1       7.869   5.909  19.602  0.00  0.00    +0.000 OA
ATOM      4  H   UNL     1       8.161   7.455  16.853  0.00  0.00    +0.000 HD
ENDROOT
BRANCH   1   5
ATOM      5  C   UNL     1       8.583   8.391  18.736  0.00  0.00    +0.000 C 
BRANCH   5   6
ATOM      6  C   UNL     1       8.376   9.841  18.300  0.00  0.00    +0.000 C 
BRANCH   6  12
ATOM      7  C   UNL     1       9.844  11.073  20.008  0.00  0.00    +0.000 A 
ATOM      8  C   UNL     1      11.001  11.808  20.303  0.00  0.00    +0.000 A 
ATOM      9  C   UNL     1      11.816  12.284  19.279  0.00  0.00    +0.000 A 
ATOM     10  C   UNL     1      11.508  11.987  17.955  0.00  0.00    +0.000 A 
ATOM     11  C   UNL     1      10.414  11.172  17.661  0.00  0.00    +0.000 A 
ATOM     12  C   UNL     1       9.579  10.686  18.680  0.00  0.00    +0.000 A 
BRANCH   7  14
ATOM     13  C   UNL     1       8.635  11.716  21.930  0.00  0.00    +0.000 C 
ATOM     14  O   UNL     1       8.946  10.701  20.971  0.00  0.00    +0.000 OA
ENDBRANCH   7  14
ENDBRANCH   6  12
ENDBRANCH   5   6
ENDBRANCH   1   5
BRANCH   2  15
ATOM     15  C   UNL     1       7.249   5.064  17.408  0.00  0.00    +0.000 C 
BRANCH  15  16
ATOM     16  N   UNL     1       5.794   5.034  17.168  0.00  0.00    +0.000 NA
ATOM     17  C   UNL     1       5.378   5.371  15.808  0.00  0.00    +0.000 C 
ATOM     18  C   UNL     1       4.954   6.825  15.852  0.00  0.00    +0.000 C 
ATOM     19  C   UNL     1       4.345   6.978  17.235  0.00  0.00    +0.000 C 
ATOM     20  C   UNL     1       4.991   5.877  18.092  0.00  0.00    +0.000 C 
BRANCH  20  21
ATOM     21  C   UNL     1       3.954   5.014  18.768  0.00  0.00    +0.000 A 
ATOM     22  N   UNL     1       3.279   5.418  19.856  0.00  0.00    +0.000 NA
ATOM     23  O   UNL     1       2.482   4.315  20.169  0.00  0.00    +0.000 OA
ATOM     24  C   UNL     1       2.750   3.363  19.229  0.00  0.00    +0.000 A 
ATOM     25  C   UNL     1       2.057   2.071  19.367  0.00  0.00    +0.000 C 
ATOM     26  N   UNL     1       3.626   3.746  18.331  0.00  0.00    +0.000 NA
ENDBRANCH  20  21
ENDBRANCH  15  16
ENDBRANCH   2  15
TORSDOF 7
ENDMDL
MODEL 8
REMARK VINA RESULT:      -7.4      4.256      6.033
REMARK  Name = 
REMARK  9 active torsions:
REMARK  status: ('A' for Active; 'I' for Inactive)
REMARK    1  A    between atoms: C_1  and  O_2
REMARK    2  A    between atoms: O_2  and  C_3
REMARK    3  A    between atoms: C_8  and  C_9
REMARK    4  A    between atoms: C_9  and  C_10
REMARK    5  A    between atoms: C_10  and  N_11
REMARK    6  A    between atoms: C_12  and  C_14
REMARK    7  A    between atoms: C_14  and  N_15
REMARK    8  A    between atoms: C_19  and  C_20
REMARK    9  A    between atoms: C_23  and  C_24
REMARK                            x       y       z     vdW  Elec       q    Type
REMARK                         _______ _______ _______ _____ _____    ______ ____
ROOT
ATOM      1  N   UNL     1       1.698   7.139  20.887  0.00  0.00    +0.000 N 
ATOM      2  C   UNL     1       2.366   7.056  19.674  0.00  0.00    +0.000 C 
ATOM      3  O   UNL     1       2.236   7.920  18.802  0.00  0.00    +0.000 OA
ATOM      4  H   UNL     1       1.603   6.301  21.449  0.00  0.00    +0.000 HD
ENDROOT
BRANCH   1   5
ATOM      5  C   UNL     1       0.759   8.236  21.068  0.00  0.00    +0.000 C 
BRANCH   5   6
ATOM      6  C   UNL     1       1.166   9.291  22.096  0.00  0.00    +0.000 C 
BRANCH   6  12
ATOM      7  C   UNL     1       0.218  11.536  21.292  0.00  0.00    +0.000 A 
ATOM      8  C   UNL     1      -0.786  12.514  21.340  0.00  0.00    +0.000 A 
ATOM      9  C   UNL     1      -1.780  12.458  22.315  0.00  0.00    +0.000 A 
ATOM     10  C   UNL     1      -1.804  11.401  23.218  0.00  0.00    +0.000 A 
ATOM     11  C   UNL     1      -0.866  10.373  23.112  0.00  0.00    +0.000 A 
ATOM     12  C   UNL     1       0.144  10.413  22.137  0.00  0.00    +0.000 A 
BRANCH   7  14
ATOM     13  C   UNL     1       0.945  11.900  19.076  0.00  0.00    +0.000 C 
ATOM     14  O   UNL     1       1.284  11.623  20.438  0.00  0.00    +0.000 OA
ENDBRANCH   7  14
ENDBRANCH   6  12
ENDBRANCH   5   6
ENDBRANCH   1   5
BRANCH   2  15
ATOM     15  C   UNL     1       3.255   5.817  19.476  0.00  0.00    +0.000 C 
BRANCH  15  16
ATOM     16  N   UNL     1       3.177   5.192  18.143  0.00  0.00    +0.000 NA
ATOM     17  C   UNL     1       1.914   4.523  17.839  0.00  0.00    +0.000 C 
ATOM     18  C   UNL     1       2.154   3.050  18.094  0.00  0.00    +0.000 C 
ATOM     19  C   UNL     1       3.604   2.848  17.692  0.00  0.00    +0.000 C 
ATOM     20  C   UNL     1       4.266   4.228  17.841  0.00  0.00    +0.000 C 
BRANCH  20  21
ATOM     21  C   UNL     1       4.962   4.654  16.571  0.00  0.00    +0.000 A 
ATOM     22  N   UNL     1       5.026   5.937  16.181  0.00  0.00    +0.000 NA
ATOM     23  O   UNL     1       5.698   5.868  14.959  0.00  0.00    +0.000 OA
ATOM     24  C   UNL     1       5.979   4.551  14.743  0.00  0.00    +0.000 A 
ATOM     25  C   UNL     1       6.656   4.207  13.482  0.00  0.00    +0.000 C 
ATOM     26  N   UNL     1       5.574   3.764  15.711  0.00  0.00    +0.000 NA
ENDBRANCH  20  21
ENDBRANCH  15  16
ENDBRANCH   2  15
TORSDOF 7
ENDMDL
MODEL 9
REMARK VINA RESULT:      -7.4      2.911      3.868
REMARK  Name = 
REMARK  9 active torsions:
REMARK  status: ('A' for Active; 'I' for Inactive)
REMARK    1  A    between atoms: C_1  and  O_2
REMARK    2  A    between atoms: O_2  and  C_3
REMARK    3  A    between atoms: C_8  and  C_9
REMARK    4  A    between atoms: C_9  and  C_10
REMARK    5  A    between atoms: C_10  and  N_11
REMARK    6  A    between atoms: C_12  and  C_14
REMARK    7  A    between atoms: C_14  and  N_15
REMARK    8  A    between atoms: C_19  and  C_20
REMARK    9  A    between atoms: C_23  and  C_24
REMARK                            x       y       z     vdW  Elec       q    Type
REMARK                         _______ _______ _______ _____ _____    ______ ____
ROOT
ATOM      1  N   UNL     1       3.492   6.691  18.664  0.00  0.00    +0.000 N 
ATOM      2  C   UNL     1       3.822   5.408  18.248  0.00  0.00    +0.000 C 
ATOM      3  O   UNL     1       3.114   4.782  17.454  0.00  0.00    +0.000 OA
ATOM      4  H   UNL     1       3.923   7.056  19.506  0.00  0.00    +0.000 HD
ENDROOT
BRANCH   1   5
ATOM      5  C   UNL     1       2.227   7.245  18.206  0.00  0.00    +0.000 C 
BRANCH   5   6
ATOM      6  C   UNL     1       2.232   8.745  17.912  0.00  0.00    +0.000 C 
BRANCH   6  12
ATOM      7  C   UNL     1       0.778   9.452  19.907  0.00  0.00    +0.000 A 
ATOM      8  C   UNL     1      -0.345  10.124  20.409  0.00  0.00    +0.000 A 
ATOM      9  C   UNL     1      -1.314  10.625  19.542  0.00  0.00    +0.000 A 
ATOM     10  C   UNL     1      -1.143  10.500  18.167  0.00  0.00    +0.000 A 
ATOM     11  C   UNL     1       0.020   9.920  17.660  0.00  0.00    +0.000 A 
ATOM     12  C   UNL     1       1.007   9.407  18.519  0.00  0.00    +0.000 A 
BRANCH   7  14
ATOM     13  C   UNL     1       1.392   8.910  22.120  0.00  0.00    +0.000 C 
ATOM     14  O   UNL     1       1.685   8.830  20.722  0.00  0.00    +0.000 OA
ENDBRANCH   7  14
ENDBRANCH   6  12
ENDBRANCH   5   6
ENDBRANCH   1   5
BRANCH   2  15
ATOM     15  C   UNL     1       5.105   4.813  18.850  0.00  0.00    +0.000 C 
BRANCH  15  16
ATOM     16  N   UNL     1       6.303   4.900  17.995  0.00  0.00    +0.000 NA
ATOM     17  C   UNL     1       7.568   5.067  18.707  0.00  0.00    +0.000 C 
ATOM     18  C   UNL     1       7.885   6.547  18.645  0.00  0.00    +0.000 C 
ATOM     19  C   UNL     1       7.346   6.974  17.292  0.00  0.00    +0.000 C 
ATOM     20  C   UNL     1       6.247   5.954  16.948  0.00  0.00    +0.000 C 
BRANCH  20  21
ATOM     21  C   UNL     1       6.475   5.319  15.599  0.00  0.00    +0.000 A 
ATOM     22  N   UNL     1       7.581   5.549  14.873  0.00  0.00    +0.000 NA
ATOM     23  O   UNL     1       7.356   4.820  13.703  0.00  0.00    +0.000 OA
ATOM     24  C   UNL     1       6.141   4.217  13.850  0.00  0.00    +0.000 A 
ATOM     25  C   UNL     1       5.649   3.415  12.717  0.00  0.00    +0.000 C 
ATOM     26  N   UNL     1       5.567   4.467  15.002  0.00  0.00    +0.000 NA
ENDBRANCH  20  21
ENDBRANCH  15  16
ENDBRANCH   2  15
TORSDOF 7
ENDMDL
