MODEL 1
REMARK VINA RESULT:      -8.0      0.000      0.000
REMARK  Name = 
REMARK  3 active torsions:
REMARK  status: ('A' for Active; 'I' for Inactive)
REMARK    1  A    between atoms: C_1  and  C_2
REMARK    2  A    between atoms: N_4  and  C_5
REMARK    3  A    between atoms: C_7  and  C_8
REMARK                            x       y       z     vdW  Elec       q    Type
REMARK                         _______ _______ _______ _____ _____    ______ ____
ROOT
ATOM      1  C   UNL     1       6.410   5.178  15.903  0.00  0.00    +0.000 A 
ATOM      2  C   UNL     1       6.930   4.963  14.646  0.00  0.00    +0.000 A 
ATOM      3  C   UNL     1       6.082   4.021  14.034  0.00  0.00    +0.000 A 
ATOM      4  C   UNL     1       6.168   3.476  12.657  0.00  0.00    +0.000 C 
ATOM      5  N   UNL     1       5.098   3.640  14.848  0.00  0.00    +0.000 NA
ATOM      6  N   UNL     1       5.271   4.375  15.979  0.00  0.00    +0.000 N 
ATOM      7  C   UNL     1       4.334   4.289  17.017  0.00  0.00    +0.000 A 
ATOM      8  N   UNL     1       4.409   4.995  18.131  0.00  0.00    +0.000 NA
ATOM      9  C   UNL     1       3.282   4.698  18.911  0.00  0.00    +0.000 A 
ATOM     10  C   UNL     1       2.963   5.244  20.175  0.00  0.00    +0.000 A 
ATOM     11  C   UNL     1       1.791   4.845  20.835  0.00  0.00    +0.000 A 
ATOM     12  C   UNL     1       0.928   3.920  20.257  0.00  0.00    +0.000 A 
ATOM     13  C   UNL     1       1.214   3.368  19.008  0.00  0.00    +0.000 A 
ATOM     14  C   UNL     1       2.395   3.766  18.358  0.00  0.00    +0.000 A 
ATOM     15  S   UNL     1       2.998   3.249  16.838  0.00  0.00    +0.000 S 
ENDROOT
BRANCH   1  19
ATOM     16  C   UNL     1       8.091   6.649  18.981  0.00  0.00    +0.000 C 
ATOM     17  C   UNL     1       7.660   5.577  18.029  0.00  0.00    +0.000 C 
ATOM     18  O   UNL     1       7.907   4.396  18.205  0.00  0.00    +0.000 OA
ATOM     19  N   UNL     1       6.897   6.031  16.900  0.00  0.00    +0.000 N 
ATOM     20  H   UNL     1       6.683   7.022  16.789  0.00  0.00    +0.000 HD
ENDBRANCH   1  19
TORSDOF 1
ENDMDL
MODEL 2
REMARK VINA RESULT:      -7.8      1.234      1.234
REMARK  Name = 
REMARK  3 active torsions:
REMARK  status: ('A' for Active; 'I' for Inactive)
REMARK    1  A    between atoms: C_1  and  C_2
REMARK    2  A    between atoms: N_4  and  C_5
REMARK    3  A    between atoms: C_7  and  C_8
REMARK                            x       y       z     vdW  Elec       q    Type
REMARK                         _______ _______ _______ _____ _____    ______ ____
ROOT
ATOM      1  C   UNL     1       6.684   4.256  16.823  0.00  0.00    +0.000 A 
ATOM      2  C   UNL     1       7.204   4.412  15.557  0.00  0.00    +0.000 A 
ATOM      3  C   UNL     1       6.159   4.094  14.670  0.00  0.00    +0.000 A 
ATOM      4  C   UNL     1       6.175   4.143  13.188  0.00  0.00    +0.000 C 
ATOM      5  N   UNL     1       5.051   3.738  15.319  0.00  0.00    +0.000 NA
ATOM      6  N   UNL     1       5.355   3.874  16.638  0.00  0.00    +0.000 N 
ATOM      7  C   UNL     1       4.364   3.670  17.607  0.00  0.00    +0.000 A 
ATOM      8  N   UNL     1       4.568   3.817  18.903  0.00  0.00    +0.000 NA
ATOM      9  C   UNL     1       3.351   3.590  19.563  0.00  0.00    +0.000 A 
ATOM     10  C   UNL     1       3.121   3.658  20.955  0.00  0.00    +0.000 A 
ATOM     11  C   UNL     1       1.840   3.404  21.468  0.00  0.00    +0.000 A 
ATOM     12  C   UNL     1       0.783   3.093  20.619  0.00  0.00    +0.000 A 
ATOM     13  C   UNL     1       0.978   3.024  19.239  0.00  0.00    +0.000 A 
ATOM     14  C   UNL     1       2.267   3.270  18.736  0.00  0.00    +0.000 A 
ATOM     15  S   UNL     1       2.794   3.244  17.104  0.00  0.00    +0.000 S 
ENDROOT
BRANCH   1  19
ATOM     16  C   UNL     1       8.278   5.743  19.940  0.00  0.00    +0.000 C 
ATOM     17  C   UNL     1       7.572   5.748  18.620  0.00  0.00    +0.000 C 
ATOM     18  O   UNL     1       7.245   6.774  18.047  0.00  0.00    +0.000 OA
ATOM     19  N   UNL     1       7.332   4.452  18.048  0.00  0.00    +0.000 N 
ATOM     20  H   UNL     1       7.638   3.611  18.536  0.00  0.00    +0.000 HD
ENDBRANCH   1  19
TORSDOF 1
ENDMDL
MODEL 3
REMARK VINA RESULT:      -7.3      1.754      3.642
REMARK  Name = 
REMARK  3 active torsions:
REMARK  status: ('A' for Active; 'I' for Inactive)
REMARK    1  A    between atoms: C_1  and  C_2
REMARK    2  A    between atoms: N_4  and  C_5
REMARK    3  A    between atoms: C_7  and  C_8
REMARK                            x       y       z     vdW  Elec       q    Type
REMARK                         _______ _______ _______ _____ _____    ______ ____
ROOT
ATOM      1  C   UNL     1       6.347   5.413  16.387  0.00  0.00    +0.000 A 
ATOM      2  C   UNL     1       7.436   6.256  16.427  0.00  0.00    +0.000 A 
ATOM      3  C   UNL     1       7.293   7.013  17.604  0.00  0.00    +0.000 A 
ATOM      4  C   UNL     1       8.217   8.038  18.146  0.00  0.00    +0.000 C 
ATOM      5  N   UNL     1       6.179   6.696  18.265  0.00  0.00    +0.000 NA
ATOM      6  N   UNL     1       5.617   5.688  17.544  0.00  0.00    +0.000 N 
ATOM      7  C   UNL     1       4.466   5.047  18.021  0.00  0.00    +0.000 A 
ATOM      8  N   UNL     1       3.881   4.039  17.401  0.00  0.00    +0.000 NA
ATOM      9  C   UNL     1       2.800   3.614  18.188  0.00  0.00    +0.000 A 
ATOM     10  C   UNL     1       1.913   2.552  17.900  0.00  0.00    +0.000 A 
ATOM     11  C   UNL     1       0.874   2.244  18.791  0.00  0.00    +0.000 A 
ATOM     12  C   UNL     1       0.707   2.970  19.967  0.00  0.00    +0.000 A 
ATOM     13  C   UNL     1       1.570   4.020  20.280  0.00  0.00    +0.000 A 
ATOM     14  C   UNL     1       2.602   4.327  19.377  0.00  0.00    +0.000 A 
ATOM     15  S   UNL     1       3.791   5.558  19.498  0.00  0.00    +0.000 S 
ENDROOT
BRANCH   1  19
ATOM     16  C   UNL     1       6.093   3.390  13.176  0.00  0.00    +0.000 C 
ATOM     17  C   UNL     1       6.547   4.503  14.069  0.00  0.00    +0.000 C 
ATOM     18  O   UNL     1       7.278   5.402  13.688  0.00  0.00    +0.000 OA
ATOM     19  N   UNL     1       6.032   4.462  15.409  0.00  0.00    +0.000 N 
ATOM     20  H   UNL     1       5.403   3.712  15.695  0.00  0.00    +0.000 HD
ENDBRANCH   1  19
TORSDOF 1
ENDMDL
MODEL 4
REMARK VINA RESULT:      -7.2      3.505      5.031
REMARK  Name = 
REMARK  3 active torsions:
REMARK  status: ('A' for Active; 'I' for Inactive)
REMARK    1  A    between atoms: C_1  and  C_2
REMARK    2  A    between atoms: N_4  and  C_5
REMARK    3  A    between atoms: C_7  and  C_8
REMARK                            x       y       z     vdW  Elec       q    Type
REMARK                         _______ _______ _______ _____ _____    ______ ____
ROOT
ATOM      1  C   UNL     1       3.703   4.406  18.867  0.00  0.00    +0.000 A 
ATOM      2  C   UNL     1       4.544   3.753  17.992  0.00  0.00    +0.000 A 
ATOM      3  C   UNL     1       4.731   4.634  16.909  0.00  0.00    +0.000 A 
ATOM      4  C   UNL     1       5.584   4.438  15.712  0.00  0.00    +0.000 C 
ATOM      5  N   UNL     1       4.041   5.763  17.066  0.00  0.00    +0.000 NA
ATOM      6  N   UNL     1       3.442   5.645  18.282  0.00  0.00    +0.000 N 
ATOM      7  C   UNL     1       2.708   6.717  18.805  0.00  0.00    +0.000 A 
ATOM      8  N   UNL     1       2.127   6.697  19.991  0.00  0.00    +0.000 NA
ATOM      9  C   UNL     1       1.536   7.950  20.207  0.00  0.00    +0.000 A 
ATOM     10  C   UNL     1       0.822   8.359  21.356  0.00  0.00    +0.000 A 
ATOM     11  C   UNL     1       0.287   9.654  21.426  0.00  0.00    +0.000 A 
ATOM     12  C   UNL     1       0.457  10.551  20.376  0.00  0.00    +0.000 A 
ATOM     13  C   UNL     1       1.162  10.178  19.231  0.00  0.00    +0.000 A 
ATOM     14  C   UNL     1       1.685   8.875  19.167  0.00  0.00    +0.000 A 
ATOM     15  S   UNL     1       2.575   8.149  17.893  0.00  0.00    +0.000 S 
ENDROOT
BRANCH   1  19
ATOM     16  C   UNL     1       1.671   2.769  21.634  0.00  0.00    +0.000 C 
ATOM     17  C   UNL     1       2.017   3.168  20.233  0.00  0.00    +0.000 C 
ATOM     18  O   UNL     1       1.321   2.886  19.272  0.00  0.00    +0.000 OA
ATOM     19  N   UNL     1       3.218   3.944  20.096  0.00  0.00    +0.000 N 
ATOM     20  H   UNL     1       3.769   4.188  20.918  0.00  0.00    +0.000 HD
ENDBRANCH   1  19
TORSDOF 1
ENDMDL
MODEL 5
REMARK VINA RESULT:      -7.1      4.110      5.570
REMARK  Name = 
REMARK  3 active torsions:
REMARK  status: ('A' for Active; 'I' for Inactive)
REMARK    1  A    between atoms: C_1  and  C_2
REMARK    2  A    between atoms: N_4  and  C_5
REMARK    3  A    between atoms: C_7  and  C_8
REMARK                            x       y       z     vdW  Elec       q    Type
REMARK                         _______ _______ _______ _____ _____    ______ ____
ROOT
ATOM      1  C   UNL     1       3.571   5.718  19.050  0.00  0.00    +0.000 A 
ATOM      2  C   UNL     1       4.455   5.296  18.082  0.00  0.00    +0.000 A 
ATOM      3  C   UNL     1       4.425   6.281  17.078  0.00  0.00    +0.000 A 
ATOM      4  C   UNL     1       5.225   6.336  15.830  0.00  0.00    +0.000 C 
ATOM      5  N   UNL     1       3.566   7.258  17.368  0.00  0.00    +0.000 NA
ATOM      6  N   UNL     1       3.069   6.937  18.594  0.00  0.00    +0.000 N 
ATOM      7  C   UNL     1       2.198   7.819  19.246  0.00  0.00    +0.000 A 
ATOM      8  N   UNL     1       1.702   7.601  20.450  0.00  0.00    +0.000 NA
ATOM      9  C   UNL     1       0.922   8.711  20.808  0.00  0.00    +0.000 A 
ATOM     10  C   UNL     1       0.221   8.894  22.020  0.00  0.00    +0.000 A 
ATOM     11  C   UNL     1      -0.520  10.066  22.233  0.00  0.00    +0.000 A 
ATOM     12  C   UNL     1      -0.567  11.063  21.263  0.00  0.00    +0.000 A 
ATOM     13  C   UNL     1       0.120  10.913  20.058  0.00  0.00    +0.000 A 
ATOM     14  C   UNL     1       0.851   9.730  19.851  0.00  0.00    +0.000 A 
ATOM     15  S   UNL     1       1.772   9.277  18.476  0.00  0.00    +0.000 S 
ENDROOT
BRANCH   1  19
ATOM     16  C   UNL     1       2.078   3.467  21.728  0.00  0.00    +0.000 C 
ATOM     17  C   UNL     1       2.280   4.020  20.352  0.00  0.00    +0.000 C 
ATOM     18  O   UNL     1       1.655   3.628  19.381  0.00  0.00    +0.000 OA
ATOM     19  N   UNL     1       3.245   5.079  20.253  0.00  0.00    +0.000 N 
ATOM     20  H   UNL     1       3.737   5.406  21.084  0.00  0.00    +0.000 HD
ENDBRANCH   1  19
TORSDOF 1
ENDMDL
MODEL 6
REMARK VINA RESULT:      -7.0      3.159      6.606
REMARK  Name = 
REMARK  3 active torsions:
REMARK  status: ('A' for Active; 'I' for Inactive)
REMARK    1  A    between atoms: C_1  and  C_2
REMARK    2  A    between atoms: N_4  and  C_5
REMARK    3  A    between atoms: C_7  and  C_8
REMARK                            x       y       z     vdW  Elec       q    Type
REMARK                         _______ _______ _______ _____ _____    ______ ____
ROOT
ATOM      1  C   UNL     1       1.970   6.478  20.719  0.00  0.00    +0.000 A 
ATOM      2  C   UNL     1       1.099   7.390  21.272  0.00  0.00    +0.000 A 
ATOM      3  C   UNL     1       1.120   8.509  20.419  0.00  0.00    +0.000 A 
ATOM      4  C   UNL     1       0.327   9.757  20.532  0.00  0.00    +0.000 C 
ATOM      5  N   UNL     1       1.962   8.338  19.400  0.00  0.00    +0.000 NA
ATOM      6  N   UNL     1       2.455   7.080  19.557  0.00  0.00    +0.000 N 
ATOM      7  C   UNL     1       3.308   6.538  18.587  0.00  0.00    +0.000 A 
ATOM      8  N   UNL     1       3.800   5.315  18.646  0.00  0.00    +0.000 NA
ATOM      9  C   UNL     1       4.560   5.094  17.488  0.00  0.00    +0.000 A 
ATOM     10  C   UNL     1       5.251   3.911  17.145  0.00  0.00    +0.000 A 
ATOM     11  C   UNL     1       5.971   3.842  15.942  0.00  0.00    +0.000 A 
ATOM     12  C   UNL     1       6.009   4.928  15.073  0.00  0.00    +0.000 A 
ATOM     13  C   UNL     1       5.332   6.108  15.383  0.00  0.00    +0.000 A 
ATOM     14  C   UNL     1       4.621   6.170  16.594  0.00  0.00    +0.000 A 
ATOM     15  S   UNL     1       3.717   7.482  17.230  0.00  0.00    +0.000 S 
ENDROOT
BRANCH   1  19
ATOM     16  C   UNL     1       2.075   2.753  21.478  0.00  0.00    +0.000 C 
ATOM     17  C   UNL     1       1.559   4.018  20.867  0.00  0.00    +0.000 C 
ATOM     18  O   UNL     1       0.567   4.055  20.159  0.00  0.00    +0.000 OA
ATOM     19  N   UNL     1       2.298   5.204  21.198  0.00  0.00    +0.000 N 
ATOM     20  H   UNL     1       3.111   5.149  21.812  0.00  0.00    +0.000 HD
ENDBRANCH   1  19
TORSDOF 1
ENDMDL
MODEL 7
REMARK VINA RESULT:      -6.7      3.203      4.329
REMARK  Name = 
REMARK  3 active torsions:
REMARK  status: ('A' for Active; 'I' for Inactive)
REMARK    1  A    between atoms: C_1  and  C_2
REMARK    2  A    between atoms: N_4  and  C_5
REMARK    3  A    between atoms: C_7  and  C_8
REMARK                            x       y       z     vdW  Elec       q    Type
REMARK                         _______ _______ _______ _____ _____    ______ ____
ROOT
ATOM      1  C   UNL     1       4.685   4.791  18.220  0.00  0.00    +0.000 A 
ATOM      2  C   UNL     1       5.590   4.414  17.252  0.00  0.00    +0.000 A 
ATOM      3  C   UNL     1       5.505   5.393  16.244  0.00  0.00    +0.000 A 
ATOM      4  C   UNL     1       6.300   5.486  14.996  0.00  0.00    +0.000 C 
ATOM      5  N   UNL     1       4.594   6.322  16.532  0.00  0.00    +0.000 NA
ATOM      6  N   UNL     1       4.117   5.979  17.760  0.00  0.00    +0.000 N 
ATOM      7  C   UNL     1       3.199   6.814  18.410  0.00  0.00    +0.000 A 
ATOM      8  N   UNL     1       2.717   6.574  19.615  0.00  0.00    +0.000 NA
ATOM      9  C   UNL     1       1.878   7.641  19.969  0.00  0.00    +0.000 A 
ATOM     10  C   UNL     1       1.168   7.789  21.182  0.00  0.00    +0.000 A 
ATOM     11  C   UNL     1       0.365   8.920  21.391  0.00  0.00    +0.000 A 
ATOM     12  C   UNL     1       0.263   9.909  20.417  0.00  0.00    +0.000 A 
ATOM     13  C   UNL     1       0.956   9.793  19.213  0.00  0.00    +0.000 A 
ATOM     14  C   UNL     1       1.750   8.651  19.009  0.00  0.00    +0.000 A 
ATOM     15  S   UNL     1       2.693   8.244  17.635  0.00  0.00    +0.000 S 
ENDROOT
BRANCH   1  19
ATOM     16  C   UNL     1       3.192   2.595  20.944  0.00  0.00    +0.000 C 
ATOM     17  C   UNL     1       3.335   3.182  19.574  0.00  0.00    +0.000 C 
ATOM     18  O   UNL     1       2.593   2.896  18.649  0.00  0.00    +0.000 OA
ATOM     19  N   UNL     1       4.395   4.139  19.425  0.00  0.00    +0.000 N 
ATOM     20  H   UNL     1       4.987   4.379  20.220  0.00  0.00    +0.000 HD
ENDBRANCH   1  19
TORSDOF 1
ENDMDL
MODEL 8
REMARK VINA RESULT:      -6.7      3.968      5.895
REMARK  Name = 
REMARK  3 active torsions:
REMARK  status: ('A' for Active; 'I' for Inactive)
REMARK    1  A    between atoms: C_1  and  C_2
REMARK    2  A    between atoms: N_4  and  C_5
REMARK    3  A    between atoms: C_7  and  C_8
REMARK                            x       y       z     vdW  Elec       q    Type
REMARK                         _______ _______ _______ _____ _____    ______ ____
ROOT
ATOM      1  C   UNL     1       3.029   5.025  18.861  0.00  0.00    +0.000 A 
ATOM      2  C   UNL     1       3.082   3.743  19.362  0.00  0.00    +0.000 A 
ATOM      3  C   UNL     1       2.484   3.803  20.635  0.00  0.00    +0.000 A 
ATOM      4  C   UNL     1       2.245   2.688  21.583  0.00  0.00    +0.000 C 
ATOM      5  N   UNL     1       2.094   5.040  20.941  0.00  0.00    +0.000 NA
ATOM      6  N   UNL     1       2.390   5.785  19.842  0.00  0.00    +0.000 N 
ATOM      7  C   UNL     1       2.015   7.134  19.791  0.00  0.00    +0.000 A 
ATOM      8  N   UNL     1       2.232   7.915  18.749  0.00  0.00    +0.000 NA
ATOM      9  C   UNL     1       1.677   9.173  19.025  0.00  0.00    +0.000 A 
ATOM     10  C   UNL     1       1.675  10.300  18.172  0.00  0.00    +0.000 A 
ATOM     11  C   UNL     1       1.075  11.497  18.592  0.00  0.00    +0.000 A 
ATOM     12  C   UNL     1       0.471  11.588  19.842  0.00  0.00    +0.000 A 
ATOM     13  C   UNL     1       0.452  10.491  20.704  0.00  0.00    +0.000 A 
ATOM     14  C   UNL     1       1.064   9.300  20.277  0.00  0.00    +0.000 A 
ATOM     15  S   UNL     1       1.201   7.813  21.123  0.00  0.00    +0.000 S 
ENDROOT
BRANCH   1  19
ATOM     16  C   UNL     1       5.157   6.346  15.998  0.00  0.00    +0.000 C 
ATOM     17  C   UNL     1       4.856   5.891  17.392  0.00  0.00    +0.000 C 
ATOM     18  O   UNL     1       5.688   5.890  18.283  0.00  0.00    +0.000 OA
ATOM     19  N   UNL     1       3.498   5.483  17.624  0.00  0.00    +0.000 N 
ATOM     20  H   UNL     1       2.815   5.517  16.868  0.00  0.00    +0.000 HD
ENDBRANCH   1  19
TORSDOF 1
ENDMDL
MODEL 9
REMARK VINA RESULT:      -6.4      3.575      5.753
REMARK  Name = 
REMARK  3 active torsions:
REMARK  status: ('A' for Active; 'I' for Inactive)
REMARK    1  A    between atoms: C_1  and  C_2
REMARK    2  A    between atoms: N_4  and  C_5
REMARK    3  A    between atoms: C_7  and  C_8
REMARK                            x       y       z     vdW  Elec       q    Type
REMARK                         _______ _______ _______ _____ _____    ______ ____
ROOT
ATOM      1  C   UNL     1       3.090   4.185  19.206  0.00  0.00    +0.000 A 
ATOM      2  C   UNL     1       2.965   2.977  19.857  0.00  0.00    +0.000 A 
ATOM      3  C   UNL     1       2.247   3.249  21.036  0.00  0.00    +0.000 A 
ATOM      4  C   UNL     1       1.803   2.288  22.075  0.00  0.00    +0.000 C 
ATOM      5  N   UNL     1       1.950   4.544  21.148  0.00  0.00    +0.000 NA
ATOM      6  N   UNL     1       2.430   5.115  20.010  0.00  0.00    +0.000 N 
ATOM      7  C   UNL     1       2.195   6.472  19.758  0.00  0.00    +0.000 A 
ATOM      8  N   UNL     1       2.594   7.093  18.663  0.00  0.00    +0.000 NA
ATOM      9  C   UNL     1       2.139   8.419  18.724  0.00  0.00    +0.000 A 
ATOM     10  C   UNL     1       2.336   9.423  17.750  0.00  0.00    +0.000 A 
ATOM     11  C   UNL     1       1.815  10.710  17.954  0.00  0.00    +0.000 A 
ATOM     12  C   UNL     1       1.097  11.011  19.107  0.00  0.00    +0.000 A 
ATOM     13  C   UNL     1       0.882  10.039  20.083  0.00  0.00    +0.000 A 
ATOM     14  C   UNL     1       1.415   8.755  19.874  0.00  0.00    +0.000 A 
ATOM     15  S   UNL     1       1.318   7.383  20.898  0.00  0.00    +0.000 S 
ENDROOT
BRANCH   1  19
ATOM     16  C   UNL     1       5.637   4.732  16.434  0.00  0.00    +0.000 C 
ATOM     17  C   UNL     1       5.154   4.440  17.821  0.00  0.00    +0.000 C 
ATOM     18  O   UNL     1       5.909   4.241  18.757  0.00  0.00    +0.000 OA
ATOM     19  N   UNL     1       3.727   4.441  17.986  0.00  0.00    +0.000 N 
ATOM     20  H   UNL     1       3.118   4.633  17.191  0.00  0.00    +0.000 HD
ENDBRANCH   1  19
TORSDOF 1
ENDMDL
