MODEL 1
REMARK VINA RESULT:      -7.8      0.000      0.000
REMARK  Name = 
REMARK  7 active torsions:
REMARK  status: ('A' for Active; 'I' for Inactive)
REMARK    1  A    between atoms: C_1  and  O_2
REMARK    2  A    between atoms: O_2  and  C_3
REMARK    3  A    between atoms: C_3  and  C_4
REMARK    4  A    between atoms: C_4  and  N_5
REMARK    5  A    between atoms: C_7  and  C_8
REMARK    6  A    between atoms: C_8  and  C_9
REMARK    7  A    between atoms: C_12  and  C_13
REMARK                            x       y       z     vdW  Elec       q    Type
REMARK                         _______ _______ _______ _____ _____    ______ ____
ROOT
ATOM      1  C   UNL     1       2.841   7.231  18.493  0.00  0.00    +0.000 A 
ATOM      2  C   UNL     1       2.763   8.277  17.577  0.00  0.00    +0.000 A 
ATOM      3  C   UNL     1       1.945   9.368  17.867  0.00  0.00    +0.000 A 
ATOM      4  C   UNL     1       1.220   9.399  19.062  0.00  0.00    +0.000 A 
ATOM      5  C   UNL     1       1.434   8.364  19.951  0.00  0.00    +0.000 A 
ATOM      6  N   UNL     1       2.198   7.272  19.684  0.00  0.00    +0.000 NA
ENDROOT
BRANCH   4   7
ATOM      7  C   UNL     1       0.342  10.564  19.312  0.00  0.00    +0.000 C 
ATOM      8  O   UNL     1       0.646  11.278  20.265  0.00  0.00    +0.000 OA
ATOM      9  N   UNL     1      -0.724  10.876  18.463  0.00  0.00    +0.000 N 
ATOM     10  C   UNL     1      -1.450  12.127  18.692  0.00  0.00    +0.000 C 
ATOM     11  C   UNL     1      -2.914  11.846  19.029  0.00  0.00    +0.000 C 
ATOM     12  C   UNL     1      -3.564  10.931  17.986  0.00  0.00    +0.000 C 
ATOM     13  C   UNL     1      -2.716   9.680  17.738  0.00  0.00    +0.000 C 
ATOM     14  C   UNL     1      -1.286  10.078  17.371  0.00  0.00    +0.000 C 
ENDBRANCH   4   7
BRANCH   1  15
ATOM     15  C   UNL     1       3.716   6.039  18.182  0.00  0.00    +0.000 C 
BRANCH  15  18
ATOM     16  N   UNL     1       6.546   5.319  16.049  0.00  0.00    +0.000 N 
ATOM     17  C   UNL     1       5.263   5.962  16.143  0.00  0.00    +0.000 C 
ATOM     18  C   UNL     1       5.108   6.357  17.610  0.00  0.00    +0.000 C 
ATOM     19  C   UNL     1       6.199   5.575  18.351  0.00  0.00    +0.000 C 
ATOM     20  C   UNL     1       7.101   5.032  17.277  0.00  0.00    +0.000 C 
ATOM     21  O   UNL     1       8.122   4.396  17.493  0.00  0.00    +0.000 OA
BRANCH  16  22
ATOM     22  C   UNL     1       7.056   4.771  14.796  0.00  0.00    +0.000 C 
BRANCH  22  23
ATOM     23  C   UNL     1       6.128   3.752  14.128  0.00  0.00    +0.000 C 
BRANCH  23  25
ATOM     24  C   UNL     1       5.390   3.109  11.981  0.00  0.00    +0.000 C 
ATOM     25  O   UNL     1       6.473   3.610  12.749  0.00  0.00    +0.000 OA
ENDBRANCH  23  25
ENDBRANCH  22  23
ENDBRANCH  16  22
ENDBRANCH  15  18
ENDBRANCH   1  15
TORSDOF 6
ENDMDL
MODEL 2
REMARK VINA RESULT:      -7.2      0.723      1.068
REMARK  Name = 
REMARK  7 active torsions:
REMARK  status: ('A' for Active; 'I' for Inactive)
REMARK    1  A    between atoms: C_1  and  O_2
REMARK    2  A    between atoms: O_2  and  C_3
REMARK    3  A    between atoms: C_3  and  C_4
REMARK    4  A    between atoms: C_4  and  N_5
REMARK    5  A    between atoms: C_7  and  C_8
REMARK    6  A    between atoms: C_8  and  C_9
REMARK    7  A    between atoms: C_12  and  C_13
REMARK                            x       y       z     vdW  Elec       q    Type
REMARK                         _______ _______ _______ _____ _____    ______ ____
ROOT
ATOM      1  C   UNL     1       2.688   7.287  18.651  0.00  0.00    +0.000 A 
ATOM      2  C   UNL     1       2.082   7.442  19.896  0.00  0.00    +0.000 A 
ATOM      3  C   UNL     1       1.294   8.570  20.126  0.00  0.00    +0.000 A 
ATOM      4  C   UNL     1       1.124   9.521  19.116  0.00  0.00    +0.000 A 
ATOM      5  C   UNL     1       1.684   9.234  17.886  0.00  0.00    +0.000 A 
ATOM      6  N   UNL     1       2.482   8.163  17.640  0.00  0.00    +0.000 NA
ENDROOT
BRANCH   4   7
ATOM      7  C   UNL     1       0.304  10.716  19.417  0.00  0.00    +0.000 C 
ATOM      8  O   UNL     1       0.661  11.390  20.381  0.00  0.00    +0.000 OA
ATOM      9  N   UNL     1      -0.765  11.097  18.602  0.00  0.00    +0.000 N 
ATOM     10  C   UNL     1      -1.431  12.371  18.880  0.00  0.00    +0.000 C 
ATOM     11  C   UNL     1      -2.897  12.144  19.244  0.00  0.00    +0.000 C 
ATOM     12  C   UNL     1      -3.610  11.288  18.194  0.00  0.00    +0.000 C 
ATOM     13  C   UNL     1      -2.824  10.008  17.893  0.00  0.00    +0.000 C 
ATOM     14  C   UNL     1      -1.386  10.354  17.503  0.00  0.00    +0.000 C 
ENDBRANCH   4   7
BRANCH   1  15
ATOM     15  C   UNL     1       3.552   6.074  18.397  0.00  0.00    +0.000 C 
BRANCH  15  18
ATOM     16  N   UNL     1       6.559   5.263  16.559  0.00  0.00    +0.000 N 
ATOM     17  C   UNL     1       5.284   5.928  16.517  0.00  0.00    +0.000 C 
ATOM     18  C   UNL     1       4.997   6.357  17.954  0.00  0.00    +0.000 C 
ATOM     19  C   UNL     1       6.000   5.576  18.812  0.00  0.00    +0.000 C 
ATOM     20  C   UNL     1       6.990   4.996  17.840  0.00  0.00    +0.000 C 
ATOM     21  O   UNL     1       7.975   4.349  18.166  0.00  0.00    +0.000 OA
BRANCH  16  22
ATOM     22  C   UNL     1       7.176   4.680  15.372  0.00  0.00    +0.000 C 
BRANCH  22  23
ATOM     23  C   UNL     1       6.293   4.709  14.122  0.00  0.00    +0.000 C 
BRANCH  23  25
ATOM     24  C   UNL     1       6.384   3.445  12.131  0.00  0.00    +0.000 C 
ATOM     25  O   UNL     1       6.228   3.405  13.541  0.00  0.00    +0.000 OA
ENDBRANCH  23  25
ENDBRANCH  22  23
ENDBRANCH  16  22
ENDBRANCH  15  18
ENDBRANCH   1  15
TORSDOF 6
ENDMDL
MODEL 3
REMARK VINA RESULT:      -7.2      1.561      2.270
REMARK  Name = 
REMARK  7 active torsions:
REMARK  status: ('A' for Active; 'I' for Inactive)
REMARK    1  A    between atoms: C_1  and  O_2
REMARK    2  A    between atoms: O_2  and  C_3
REMARK    3  A    between atoms: C_3  and  C_4
REMARK    4  A    between atoms: C_4  and  N_5
REMARK    5  A    between atoms: C_7  and  C_8
REMARK    6  A    between atoms: C_8  and  C_9
REMARK    7  A    between atoms: C_12  and  C_13
REMARK                            x       y       z     vdW  Elec       q    Type
REMARK                         _______ _______ _______ _____ _____    ______ ____
ROOT
ATOM      1  C   UNL     1       2.510   7.357  18.720  0.00  0.00    +0.000 A 
ATOM      2  C   UNL     1       2.256   8.243  17.675  0.00  0.00    +0.000 A 
ATOM      3  C   UNL     1       1.446   9.352  17.913  0.00  0.00    +0.000 A 
ATOM      4  C   UNL     1       0.903   9.561  19.184  0.00  0.00    +0.000 A 
ATOM      5  C   UNL     1       1.287   8.684  20.180  0.00  0.00    +0.000 A 
ATOM      6  N   UNL     1       2.048   7.577  19.974  0.00  0.00    +0.000 NA
ENDROOT
BRANCH   4   7
ATOM      7  C   UNL     1       0.024  10.735  19.381  0.00  0.00    +0.000 C 
ATOM      8  O   UNL     1      -1.185  10.521  19.338  0.00  0.00    +0.000 OA
ATOM      9  N   UNL     1       0.543  11.999  19.677  0.00  0.00    +0.000 N 
ATOM     10  C   UNL     1      -0.394  13.075  20.005  0.00  0.00    +0.000 C 
ATOM     11  C   UNL     1      -0.290  14.209  18.987  0.00  0.00    +0.000 C 
ATOM     12  C   UNL     1       1.158  14.678  18.815  0.00  0.00    +0.000 C 
ATOM     13  C   UNL     1       2.096  13.497  18.550  0.00  0.00    +0.000 C 
ATOM     14  C   UNL     1       1.939  12.443  19.648  0.00  0.00    +0.000 C 
ENDBRANCH   4   7
BRANCH   1  15
ATOM     15  C   UNL     1       3.378   6.146  18.469  0.00  0.00    +0.000 C 
BRANCH  15  18
ATOM     16  N   UNL     1       6.318   5.376  16.508  0.00  0.00    +0.000 N 
ATOM     17  C   UNL     1       5.049   6.054  16.531  0.00  0.00    +0.000 C 
ATOM     18  C   UNL     1       4.812   6.433  17.991  0.00  0.00    +0.000 C 
ATOM     19  C   UNL     1       5.832   5.611  18.788  0.00  0.00    +0.000 C 
ATOM     20  C   UNL     1       6.785   5.058  17.764  0.00  0.00    +0.000 C 
ATOM     21  O   UNL     1       7.773   4.391  18.035  0.00  0.00    +0.000 OA
BRANCH  16  22
ATOM     22  C   UNL     1       6.891   4.832  15.282  0.00  0.00    +0.000 C 
BRANCH  22  23
ATOM     23  C   UNL     1       6.128   3.637  14.704  0.00  0.00    +0.000 C 
BRANCH  23  25
ATOM     24  C   UNL     1       6.490   3.602  12.372  0.00  0.00    +0.000 C 
ATOM     25  O   UNL     1       5.603   3.971  13.417  0.00  0.00    +0.000 OA
ENDBRANCH  23  25
ENDBRANCH  22  23
ENDBRANCH  16  22
ENDBRANCH  15  18
ENDBRANCH   1  15
TORSDOF 6
ENDMDL
MODEL 4
REMARK VINA RESULT:      -7.2      2.993      8.878
REMARK  Name = 
REMARK  7 active torsions:
REMARK  status: ('A' for Active; 'I' for Inactive)
REMARK    1  A    between atoms: C_1  and  O_2
REMARK    2  A    between atoms: O_2  and  C_3
REMARK    3  A    between atoms: C_3  and  C_4
REMARK    4  A    between atoms: C_4  and  N_5
REMARK    5  A    between atoms: C_7  and  C_8
REMARK    6  A    between atoms: C_8  and  C_9
REMARK    7  A    between atoms: C_12  and  C_13
REMARK                            x       y       z     vdW  Elec       q    Type
REMARK                         _______ _______ _______ _____ _____    ______ ____
ROOT
ATOM      1  C   UNL     1       1.313   9.485  19.087  0.00  0.00    +0.000 A 
ATOM      2  C   UNL     1       1.941   9.257  17.865  0.00  0.00    +0.000 A 
ATOM      3  C   UNL     1       2.696   8.097  17.700  0.00  0.00    +0.000 A 
ATOM      4  C   UNL     1       2.814   7.185  18.753  0.00  0.00    +0.000 A 
ATOM      5  C   UNL     1       2.079   7.447  19.893  0.00  0.00    +0.000 A 
ATOM      6  N   UNL     1       1.360   8.583  20.096  0.00  0.00    +0.000 NA
ENDROOT
BRANCH   4   7
ATOM      7  C   UNL     1       3.651   5.983  18.541  0.00  0.00    +0.000 C 
ATOM      8  O   UNL     1       4.786   6.181  18.113  0.00  0.00    +0.000 OA
ATOM      9  N   UNL     1       3.201   4.705  18.886  0.00  0.00    +0.000 N 
ATOM     10  C   UNL     1       4.142   3.588  18.786  0.00  0.00    +0.000 C 
ATOM     11  C   UNL     1       3.651   2.559  17.770  0.00  0.00    +0.000 C 
ATOM     12  C   UNL     1       2.208   2.132  18.055  0.00  0.00    +0.000 C 
ATOM     13  C   UNL     1       1.292   3.348  18.223  0.00  0.00    +0.000 C 
ATOM     14  C   UNL     1       1.856   4.288  19.290  0.00  0.00    +0.000 C 
ENDBRANCH   4   7
BRANCH   1  15
ATOM     15  C   UNL     1       0.501  10.745  19.278  0.00  0.00    +0.000 C 
BRANCH  15  18
ATOM     16  N   UNL     1      -2.973  11.115  18.345  0.00  0.00    +0.000 N 
ATOM     17  C   UNL     1      -1.796  10.295  18.239  0.00  0.00    +0.000 C 
ATOM     18  C   UNL     1      -1.004  10.546  19.521  0.00  0.00    +0.000 C 
ATOM     19  C   UNL     1      -1.633  11.801  20.140  0.00  0.00    +0.000 C 
ATOM     20  C   UNL     1      -2.912  12.022  19.380  0.00  0.00    +0.000 C 
ATOM     21  O   UNL     1      -3.716  12.908  19.631  0.00  0.00    +0.000 OA
BRANCH  16  22
ATOM     22  C   UNL     1      -3.982  11.172  17.293  0.00  0.00    +0.000 C 
BRANCH  22  23
ATOM     23  C   UNL     1      -3.412  11.207  15.872  0.00  0.00    +0.000 C 
BRANCH  23  25
ATOM     24  C   UNL     1      -3.457  10.013  13.837  0.00  0.00    +0.000 C 
ATOM     25  O   UNL     1      -3.581   9.932  15.249  0.00  0.00    +0.000 OA
ENDBRANCH  23  25
ENDBRANCH  22  23
ENDBRANCH  16  22
ENDBRANCH  15  18
ENDBRANCH   1  15
TORSDOF 6
ENDMDL
MODEL 5
REMARK VINA RESULT:      -7.1      5.561      8.952
REMARK  Name = 
REMARK  7 active torsions:
REMARK  status: ('A' for Active; 'I' for Inactive)
REMARK    1  A    between atoms: C_1  and  O_2
REMARK    2  A    between atoms: O_2  and  C_3
REMARK    3  A    between atoms: C_3  and  C_4
REMARK    4  A    between atoms: C_4  and  N_5
REMARK    5  A    between atoms: C_7  and  C_8
REMARK    6  A    between atoms: C_8  and  C_9
REMARK    7  A    between atoms: C_12  and  C_13
REMARK                            x       y       z     vdW  Elec       q    Type
REMARK                         _______ _______ _______ _____ _____    ______ ____
ROOT
ATOM      1  C   UNL     1       7.985   8.659  17.944  0.00  0.00    +0.000 A 
ATOM      2  C   UNL     1       8.445   7.611  18.738  0.00  0.00    +0.000 A 
ATOM      3  C   UNL     1       7.798   6.378  18.667  0.00  0.00    +0.000 A 
ATOM      4  C   UNL     1       6.706   6.210  17.812  0.00  0.00    +0.000 A 
ATOM      5  C   UNL     1       6.382   7.275  16.994  0.00  0.00    +0.000 A 
ATOM      6  N   UNL     1       6.972   8.498  17.061  0.00  0.00    +0.000 NA
ENDROOT
BRANCH   4   7
ATOM      7  C   UNL     1       6.032   4.892  17.794  0.00  0.00    +0.000 C 
ATOM      8  O   UNL     1       6.658   3.970  17.276  0.00  0.00    +0.000 OA
ATOM      9  N   UNL     1       4.790   4.694  18.404  0.00  0.00    +0.000 N 
ATOM     10  C   UNL     1       4.261   3.331  18.474  0.00  0.00    +0.000 C 
ATOM     11  C   UNL     1       2.946   3.223  17.705  0.00  0.00    +0.000 C 
ATOM     12  C   UNL     1       1.949   4.300  18.144  0.00  0.00    +0.000 C 
ATOM     13  C   UNL     1       2.588   5.692  18.121  0.00  0.00    +0.000 C 
ATOM     14  C   UNL     1       3.872   5.695  18.952  0.00  0.00    +0.000 C 
ENDBRANCH   4   7
BRANCH   1  15
ATOM     15  C   UNL     1       8.674  10.002  18.022  0.00  0.00    +0.000 C 
BRANCH  15  18
ATOM     16  N   UNL     1       9.742  11.789  20.979  0.00  0.00    +0.000 N 
ATOM     17  C   UNL     1       8.891  10.750  20.461  0.00  0.00    +0.000 C 
ATOM     18  C   UNL     1       9.608  10.211  19.225  0.00  0.00    +0.000 C 
ATOM     19  C   UNL     1      10.692  11.249  18.907  0.00  0.00    +0.000 C 
ATOM     20  C   UNL     1      10.753  12.144  20.115  0.00  0.00    +0.000 C 
ATOM     21  O   UNL     1      11.547  13.063  20.248  0.00  0.00    +0.000 OA
BRANCH  16  22
ATOM     22  C   UNL     1       9.388  12.572  22.158  0.00  0.00    +0.000 C 
BRANCH  22  23
ATOM     23  C   UNL     1       8.100  12.123  22.853  0.00  0.00    +0.000 C 
BRANCH  23  25
ATOM     24  C   UNL     1       8.236  12.575  25.165  0.00  0.00    +0.000 C 
ATOM     25  O   UNL     1       8.403  11.599  24.148  0.00  0.00    +0.000 OA
ENDBRANCH  23  25
ENDBRANCH  22  23
ENDBRANCH  16  22
ENDBRANCH  15  18
ENDBRANCH   1  15
TORSDOF 6
ENDMDL
MODEL 6
REMARK VINA RESULT:      -7.0      1.663      2.509
REMARK  Name = 
REMARK  7 active torsions:
REMARK  status: ('A' for Active; 'I' for Inactive)
REMARK    1  A    between atoms: C_1  and  O_2
REMARK    2  A    between atoms: O_2  and  C_3
REMARK    3  A    between atoms: C_3  and  C_4
REMARK    4  A    between atoms: C_4  and  N_5
REMARK    5  A    between atoms: C_7  and  C_8
REMARK    6  A    between atoms: C_8  and  C_9
REMARK    7  A    between atoms: C_12  and  C_13
REMARK                            x       y       z     vdW  Elec       q    Type
REMARK                         _______ _______ _______ _____ _____    ______ ____
ROOT
ATOM      1  C   UNL     1       2.517   7.294  18.921  0.00  0.00    +0.000 A 
ATOM      2  C   UNL     1       1.923   7.607  20.142  0.00  0.00    +0.000 A 
ATOM      3  C   UNL     1       1.125   8.746  20.230  0.00  0.00    +0.000 A 
ATOM      4  C   UNL     1       0.932   9.554  19.105  0.00  0.00    +0.000 A 
ATOM      5  C   UNL     1       1.481   9.112  17.917  0.00  0.00    +0.000 A 
ATOM      6  N   UNL     1       2.289   8.025  17.805  0.00  0.00    +0.000 NA
ENDROOT
BRANCH   4   7
ATOM      7  C   UNL     1       0.101  10.769  19.256  0.00  0.00    +0.000 C 
ATOM      8  O   UNL     1      -1.115  10.607  19.186  0.00  0.00    +0.000 OA
ATOM      9  N   UNL     1       0.667  12.015  19.541  0.00  0.00    +0.000 N 
ATOM     10  C   UNL     1      -0.230  13.137  19.823  0.00  0.00    +0.000 C 
ATOM     11  C   UNL     1      -0.051  14.244  18.786  0.00  0.00    +0.000 C 
ATOM     12  C   UNL     1       1.420  14.646  18.643  0.00  0.00    +0.000 C 
ATOM     13  C   UNL     1       2.312  13.421  18.425  0.00  0.00    +0.000 C 
ATOM     14  C   UNL     1       2.081  12.397  19.539  0.00  0.00    +0.000 C 
ENDBRANCH   4   7
BRANCH   1  15
ATOM     15  C   UNL     1       3.393   6.067  18.819  0.00  0.00    +0.000 C 
BRANCH  15  18
ATOM     16  N   UNL     1       6.031   4.845  16.668  0.00  0.00    +0.000 N 
ATOM     17  C   UNL     1       4.737   5.471  16.722  0.00  0.00    +0.000 C 
ATOM     18  C   UNL     1       4.708   6.241  18.041  0.00  0.00    +0.000 C 
ATOM     19  C   UNL     1       5.899   5.703  18.844  0.00  0.00    +0.000 C 
ATOM     20  C   UNL     1       6.714   4.906  17.862  0.00  0.00    +0.000 C 
ATOM     21  O   UNL     1       7.778   4.367  18.131  0.00  0.00    +0.000 OA
BRANCH  16  22
ATOM     22  C   UNL     1       6.440   3.990  15.558  0.00  0.00    +0.000 C 
BRANCH  22  23
ATOM     23  C   UNL     1       5.678   4.241  14.254  0.00  0.00    +0.000 C 
BRANCH  23  25
ATOM     24  C   UNL     1       5.886   3.177  12.158  0.00  0.00    +0.000 C 
ATOM     25  O   UNL     1       6.529   3.980  13.136  0.00  0.00    +0.000 OA
ENDBRANCH  23  25
ENDBRANCH  22  23
ENDBRANCH  16  22
ENDBRANCH  15  18
ENDBRANCH   1  15
TORSDOF 6
ENDMDL
MODEL 7
REMARK VINA RESULT:      -7.0      2.551      3.366
REMARK  Name = 
REMARK  7 active torsions:
REMARK  status: ('A' for Active; 'I' for Inactive)
REMARK    1  A    between atoms: C_1  and  O_2
REMARK    2  A    between atoms: O_2  and  C_3
REMARK    3  A    between atoms: C_3  and  C_4
REMARK    4  A    between atoms: C_4  and  N_5
REMARK    5  A    between atoms: C_7  and  C_8
REMARK    6  A    between atoms: C_8  and  C_9
REMARK    7  A    between atoms: C_12  and  C_13
REMARK                            x       y       z     vdW  Elec       q    Type
REMARK                         _______ _______ _______ _____ _____    ______ ____
ROOT
ATOM      1  C   UNL     1       1.759   8.522  19.171  0.00  0.00    +0.000 A 
ATOM      2  C   UNL     1       1.648   7.961  20.441  0.00  0.00    +0.000 A 
ATOM      3  C   UNL     1       0.979   8.672  21.436  0.00  0.00    +0.000 A 
ATOM      4  C   UNL     1       0.433   9.927  21.152  0.00  0.00    +0.000 A 
ATOM      5  C   UNL     1       0.508  10.359  19.842  0.00  0.00    +0.000 A 
ATOM      6  N   UNL     1       1.180   9.706  18.858  0.00  0.00    +0.000 NA
ENDROOT
BRANCH   4   7
ATOM      7  C   UNL     1      -0.241  10.657  22.248  0.00  0.00    +0.000 C 
ATOM      8  O   UNL     1      -0.102  10.190  23.377  0.00  0.00    +0.000 OA
ATOM      9  N   UNL     1      -0.929  11.853  22.021  0.00  0.00    +0.000 N 
ATOM     10  C   UNL     1      -1.440  12.591  23.177  0.00  0.00    +0.000 C 
ATOM     11  C   UNL     1      -2.963  12.695  23.120  0.00  0.00    +0.000 C 
ATOM     12  C   UNL     1      -3.438  13.247  21.773  0.00  0.00    +0.000 C 
ATOM     13  C   UNL     1      -2.808  12.480  20.606  0.00  0.00    +0.000 C 
ATOM     14  C   UNL     1      -1.284  12.472  20.742  0.00  0.00    +0.000 C 
ENDBRANCH   4   7
BRANCH   1  15
ATOM     15  C   UNL     1       2.492   7.764  18.089  0.00  0.00    +0.000 C 
BRANCH  15  18
ATOM     16  N   UNL     1       4.363   4.744  17.412  0.00  0.00    +0.000 N 
ATOM     17  C   UNL     1       4.435   6.115  17.841  0.00  0.00    +0.000 C 
ATOM     18  C   UNL     1       3.091   6.410  18.504  0.00  0.00    +0.000 C 
ATOM     19  C   UNL     1       2.177   5.252  18.085  0.00  0.00    +0.000 C 
ATOM     20  C   UNL     1       3.091   4.219  17.485  0.00  0.00    +0.000 C 
ATOM     21  O   UNL     1       2.722   3.125  17.085  0.00  0.00    +0.000 OA
BRANCH  16  22
ATOM     22  C   UNL     1       5.457   4.087  16.704  0.00  0.00    +0.000 C 
BRANCH  22  23
ATOM     23  C   UNL     1       6.635   5.007  16.371  0.00  0.00    +0.000 C 
BRANCH  23  25
ATOM     24  C   UNL     1       6.551   4.447  14.080  0.00  0.00    +0.000 C 
ATOM     25  O   UNL     1       6.507   5.497  15.034  0.00  0.00    +0.000 OA
ENDBRANCH  23  25
ENDBRANCH  22  23
ENDBRANCH  16  22
ENDBRANCH  15  18
ENDBRANCH   1  15
TORSDOF 6
ENDMDL
MODEL 8
REMARK VINA RESULT:      -7.0      5.549      8.206
REMARK  Name = 
REMARK  7 active torsions:
REMARK  status: ('A' for Active; 'I' for Inactive)
REMARK    1  A    between atoms: C_1  and  O_2
REMARK    2  A    between atoms: O_2  and  C_3
REMARK    3  A    between atoms: C_3  and  C_4
REMARK    4  A    between atoms: C_4  and  N_5
REMARK    5  A    between atoms: C_7  and  C_8
REMARK    6  A    between atoms: C_8  and  C_9
REMARK    7  A    between atoms: C_12  and  C_13
REMARK                            x       y       z     vdW  Elec       q    Type
REMARK                         _______ _______ _______ _____ _____    ______ ____
ROOT
ATOM      1  C   UNL     1       7.595   7.632  17.586  0.00  0.00    +0.000 A 
ATOM      2  C   UNL     1       7.841   6.576  18.459  0.00  0.00    +0.000 A 
ATOM      3  C   UNL     1       6.922   5.530  18.529  0.00  0.00    +0.000 A 
ATOM      4  C   UNL     1       5.775   5.554  17.730  0.00  0.00    +0.000 A 
ATOM      5  C   UNL     1       5.665   6.592  16.825  0.00  0.00    +0.000 A 
ATOM      6  N   UNL     1       6.525   7.642  16.756  0.00  0.00    +0.000 NA
ENDROOT
BRANCH   4   7
ATOM      7  C   UNL     1       4.814   4.437  17.860  0.00  0.00    +0.000 C 
ATOM      8  O   UNL     1       4.871   3.567  16.994  0.00  0.00    +0.000 OA
ATOM      9  N   UNL     1       3.945   4.339  18.952  0.00  0.00    +0.000 N 
ATOM     10  C   UNL     1       3.132   3.129  19.085  0.00  0.00    +0.000 C 
ATOM     11  C   UNL     1       1.645   3.470  19.019  0.00  0.00    +0.000 C 
ATOM     12  C   UNL     1       1.277   4.577  20.011  0.00  0.00    +0.000 C 
ATOM     13  C   UNL     1       2.213   5.782  19.870  0.00  0.00    +0.000 C 
ATOM     14  C   UNL     1       3.671   5.333  19.992  0.00  0.00    +0.000 C 
ENDBRANCH   4   7
BRANCH   1  15
ATOM     15  C   UNL     1       8.581   8.776  17.512  0.00  0.00    +0.000 C 
BRANCH  15  18
ATOM     16  N   UNL     1       9.294  12.083  18.788  0.00  0.00    +0.000 N 
ATOM     17  C   UNL     1       8.581  11.320  17.799  0.00  0.00    +0.000 C 
ATOM     18  C   UNL     1       8.304   9.965  18.446  0.00  0.00    +0.000 C 
ATOM     19  C   UNL     1       9.213   9.919  19.681  0.00  0.00    +0.000 C 
ATOM     20  C   UNL     1       9.718  11.324  19.857  0.00  0.00    +0.000 C 
ATOM     21  O   UNL     1      10.433  11.686  20.780  0.00  0.00    +0.000 OA
BRANCH  16  22
ATOM     22  C   UNL     1       9.765  13.441  18.539  0.00  0.00    +0.000 C 
BRANCH  22  23
ATOM     23  C   UNL     1      10.677  13.579  17.317  0.00  0.00    +0.000 C 
BRANCH  23  25
ATOM     24  C   UNL     1      10.969  15.868  16.820  0.00  0.00    +0.000 C 
ATOM     25  O   UNL     1      11.516  14.727  17.463  0.00  0.00    +0.000 OA
ENDBRANCH  23  25
ENDBRANCH  22  23
ENDBRANCH  16  22
ENDBRANCH  15  18
ENDBRANCH   1  15
TORSDOF 6
ENDMDL
MODEL 9
REMARK VINA RESULT:      -7.0      3.449      9.400
REMARK  Name = 
REMARK  7 active torsions:
REMARK  status: ('A' for Active; 'I' for Inactive)
REMARK    1  A    between atoms: C_1  and  O_2
REMARK    2  A    between atoms: O_2  and  C_3
REMARK    3  A    between atoms: C_3  and  C_4
REMARK    4  A    between atoms: C_4  and  N_5
REMARK    5  A    between atoms: C_7  and  C_8
REMARK    6  A    between atoms: C_8  and  C_9
REMARK    7  A    between atoms: C_12  and  C_13
REMARK                            x       y       z     vdW  Elec       q    Type
REMARK                         _______ _______ _______ _____ _____    ______ ____
ROOT
ATOM      1  C   UNL     1       1.496   9.156  18.926  0.00  0.00    +0.000 A 
ATOM      2  C   UNL     1       2.128   8.563  17.836  0.00  0.00    +0.000 A 
ATOM      3  C   UNL     1       2.772   7.339  18.013  0.00  0.00    +0.000 A 
ATOM      4  C   UNL     1       2.777   6.727  19.270  0.00  0.00    +0.000 A 
ATOM      5  C   UNL     1       2.043   7.341  20.267  0.00  0.00    +0.000 A 
ATOM      6  N   UNL     1       1.433   8.548  20.135  0.00  0.00    +0.000 NA
ENDROOT
BRANCH   4   7
ATOM      7  C   UNL     1       3.499   5.444  19.417  0.00  0.00    +0.000 C 
ATOM      8  O   UNL     1       4.725   5.503  19.370  0.00  0.00    +0.000 OA
ATOM      9  N   UNL     1       2.824   4.247  19.674  0.00  0.00    +0.000 N 
ATOM     10  C   UNL     1       3.618   3.050  19.955  0.00  0.00    +0.000 C 
ATOM     11  C   UNL     1       3.364   1.975  18.900  0.00  0.00    +0.000 C 
ATOM     12  C   UNL     1       1.867   1.701  18.726  0.00  0.00    +0.000 C 
ATOM     13  C   UNL     1       1.086   3.001  18.512  0.00  0.00    +0.000 C 
ATOM     14  C   UNL     1       1.383   3.986  19.644  0.00  0.00    +0.000 C 
ENDBRANCH   4   7
BRANCH   1  15
ATOM     15  C   UNL     1       0.806  10.488  18.746  0.00  0.00    +0.000 C 
BRANCH  15  18
ATOM     16  N   UNL     1      -2.576  11.684  19.201  0.00  0.00    +0.000 N 
ATOM     17  C   UNL     1      -1.753  10.579  18.790  0.00  0.00    +0.000 C 
ATOM     18  C   UNL     1      -0.459  10.710  19.592  0.00  0.00    +0.000 C 
ATOM     19  C   UNL     1      -0.491  12.129  20.172  0.00  0.00    +0.000 C 
ATOM     20  C   UNL     1      -1.896  12.620  19.949  0.00  0.00    +0.000 C 
ATOM     21  O   UNL     1      -2.314  13.702  20.333  0.00  0.00    +0.000 OA
BRANCH  16  22
ATOM     22  C   UNL     1      -3.900  11.925  18.637  0.00  0.00    +0.000 C 
BRANCH  22  23
ATOM     23  C   UNL     1      -4.073  11.432  17.198  0.00  0.00    +0.000 C 
BRANCH  23  25
ATOM     24  C   UNL     1      -6.086  12.586  17.628  0.00  0.00    +0.000 C 
ATOM     25  O   UNL     1      -5.276  11.967  16.641  0.00  0.00    +0.000 OA
ENDBRANCH  23  25
ENDBRANCH  22  23
ENDBRANCH  16  22
ENDBRANCH  15  18
ENDBRANCH   1  15
TORSDOF 6
ENDMDL
