MODEL 1
REMARK VINA RESULT:      -8.4      0.000      0.000
REMARK  Name = 
REMARK  9 active torsions:
REMARK  status: ('A' for Active; 'I' for Inactive)
REMARK    1  A    between atoms: C_1  and  O_2
REMARK    2  A    between atoms: O_2  and  C_3
REMARK    3  A    between atoms: C_5  and  C_6
REMARK    4  A    between atoms: C_6  and  C_8
REMARK    5  A    between atoms: C_9  and  C_10
REMARK    6  A    between atoms: C_24  and  O_25
REMARK    7  A    between atoms: O_25  and  C_26
REMARK    8  A    between atoms: C_27  and  O_28
REMARK    9  A    between atoms: O_28  and  C_29
REMARK                            x       y       z     vdW  Elec       q    Type
REMARK                         _______ _______ _______ _____ _____    ______ ____
ROOT
ATOM      1  C   UNL     1       1.069  10.172  19.439  0.00  0.00    +0.000 A 
ATOM      2  C   UNL     1       0.281  11.127  18.731  0.00  0.00    +0.000 A 
ATOM      3  N   UNL     1       0.688  12.247  19.456  0.00  0.00    +0.000 N 
ATOM      4  C   UNL     1       0.402  11.881  20.761  0.00  0.00    +0.000 A 
ATOM      5  C   UNL     1      -0.084  12.690  21.788  0.00  0.00    +0.000 A 
ATOM      6  C   UNL     1      -0.892  12.039  22.711  0.00  0.00    +0.000 A 
ATOM      7  C   UNL     1      -1.081  10.656  22.626  0.00  0.00    +0.000 A 
ATOM      8  C   UNL     1      -0.368   9.832  21.702  0.00  0.00    +0.000 A 
ATOM      9  C   UNL     1       0.433  10.465  20.720  0.00  0.00    +0.000 A 
ATOM     10  H   UNL     1       1.515  12.782  19.238  0.00  0.00    +0.000 HD
ENDROOT
BRANCH   2  11
ATOM     11  C   UNL     1      -1.160  10.809  18.397  0.00  0.00    +0.000 A 
ATOM     12  C   UNL     1      -1.526   9.807  17.496  0.00  0.00    +0.000 A 
ATOM     13  C   UNL     1      -2.858   9.695  17.074  0.00  0.00    +0.000 A 
ATOM     14  C   UNL     1      -3.834  10.582  17.533  0.00  0.00    +0.000 A 
ATOM     15  C   UNL     1      -3.487  11.590  18.419  0.00  0.00    +0.000 A 
ATOM     16  C   UNL     1      -2.168  11.691  18.850  0.00  0.00    +0.000 A 
ENDBRANCH   2  11
BRANCH   1  17
ATOM     17  C   UNL     1       1.759   9.244  18.519  0.00  0.00    +0.000 C 
ATOM     18  O   UNL     1       1.935   9.681  17.369  0.00  0.00    +0.000 OA
BRANCH  17  21
ATOM     19  C   UNL     1       3.982   6.269  17.637  0.00  0.00    +0.000 A 
ATOM     20  C   UNL     1       3.280   7.489  17.651  0.00  0.00    +0.000 A 
ATOM     21  C   UNL     1       2.362   7.882  18.673  0.00  0.00    +0.000 A 
ATOM     22  C   UNL     1       2.133   6.968  19.682  0.00  0.00    +0.000 A 
ATOM     23  C   UNL     1       2.789   5.698  19.661  0.00  0.00    +0.000 A 
ATOM     24  C   UNL     1       3.711   5.329  18.642  0.00  0.00    +0.000 A 
BRANCH  19  26
ATOM     25  C   UNL     1       6.224   6.322  16.829  0.00  0.00    +0.000 C 
ATOM     26  O   UNL     1       4.859   5.949  16.639  0.00  0.00    +0.000 OA
ENDBRANCH  19  26
BRANCH  23  27
ATOM     27  O   UNL     1       2.412   4.933  20.748  0.00  0.00    +0.000 OA
ATOM     28  C   UNL     1       1.260   4.104  20.654  0.00  0.00    +0.000 C 
ENDBRANCH  23  27
BRANCH  24  29
ATOM     29  O   UNL     1       4.235   4.069  18.705  0.00  0.00    +0.000 OA
ATOM     30  C   UNL     1       3.691   2.961  18.005  0.00  0.00    +0.000 C 
ENDBRANCH  24  29
ENDBRANCH  17  21
ENDBRANCH   1  17
TORSDOF 6
ENDMDL
MODEL 2
REMARK VINA RESULT:      -8.3      0.413      2.384
REMARK  Name = 
REMARK  9 active torsions:
REMARK  status: ('A' for Active; 'I' for Inactive)
REMARK    1  A    between atoms: C_1  and  O_2
REMARK    2  A    between atoms: O_2  and  C_3
REMARK    3  A    between atoms: C_5  and  C_6
REMARK    4  A    between atoms: C_6  and  C_8
REMARK    5  A    between atoms: C_9  and  C_10
REMARK    6  A    between atoms: C_24  and  O_25
REMARK    7  A    between atoms: O_25  and  C_26
REMARK    8  A    between atoms: C_27  and  O_28
REMARK    9  A    between atoms: O_28  and  C_29
REMARK                            x       y       z     vdW  Elec       q    Type
REMARK                         _______ _______ _______ _____ _____    ______ ____
ROOT
ATOM      1  C   UNL     1       1.198   9.934  19.366  0.00  0.00    +0.000 A 
ATOM      2  C   UNL     1       0.425  10.946  18.723  0.00  0.00    +0.000 A 
ATOM      3  N   UNL     1       0.838  12.006  19.531  0.00  0.00    +0.000 N 
ATOM      4  C   UNL     1       0.537  11.550  20.804  0.00  0.00    +0.000 A 
ATOM      5  C   UNL     1       0.051  12.288  21.883  0.00  0.00    +0.000 A 
ATOM      6  C   UNL     1      -0.770  11.580  22.750  0.00  0.00    +0.000 A 
ATOM      7  C   UNL     1      -0.974  10.209  22.564  0.00  0.00    +0.000 A 
ATOM      8  C   UNL     1      -0.261   9.447  21.588  0.00  0.00    +0.000 A 
ATOM      9  C   UNL     1       0.554  10.140  20.661  0.00  0.00    +0.000 A 
ATOM     10  H   UNL     1       1.673  12.546  19.358  0.00  0.00    +0.000 HD
ENDROOT
BRANCH   2  11
ATOM     11  C   UNL     1      -1.016  10.669  18.356  0.00  0.00    +0.000 A 
ATOM     12  C   UNL     1      -1.388   9.699  17.423  0.00  0.00    +0.000 A 
ATOM     13  C   UNL     1      -2.715   9.627  16.976  0.00  0.00    +0.000 A 
ATOM     14  C   UNL     1      -3.679  10.524  17.441  0.00  0.00    +0.000 A 
ATOM     15  C   UNL     1      -3.326  11.501  18.359  0.00  0.00    +0.000 A 
ATOM     16  C   UNL     1      -2.013  11.562  18.815  0.00  0.00    +0.000 A 
ENDBRANCH   2  11
BRANCH   1  17
ATOM     17  C   UNL     1       1.885   9.068  18.386  0.00  0.00    +0.000 C 
ATOM     18  O   UNL     1       1.994   9.550  17.246  0.00  0.00    +0.000 OA
BRANCH  17  21
ATOM     19  C   UNL     1       2.667   5.618  19.821  0.00  0.00    +0.000 A 
ATOM     20  C   UNL     1       2.186   6.921  19.588  0.00  0.00    +0.000 A 
ATOM     21  C   UNL     1       2.550   7.728  18.467  0.00  0.00    +0.000 A 
ATOM     22  C   UNL     1       3.470   7.188  17.590  0.00  0.00    +0.000 A 
ATOM     23  C   UNL     1       4.017   5.891  17.835  0.00  0.00    +0.000 A 
ATOM     24  C   UNL     1       3.632   5.095  18.950  0.00  0.00    +0.000 A 
BRANCH  19  26
ATOM     25  C   UNL     1       1.146   4.028  20.738  0.00  0.00    +0.000 C 
ATOM     26  O   UNL     1       2.275   4.885  20.906  0.00  0.00    +0.000 OA
ENDBRANCH  19  26
BRANCH  23  27
ATOM     27  O   UNL     1       4.923   5.547  16.850  0.00  0.00    +0.000 OA
ATOM     28  C   UNL     1       5.270   6.502  15.854  0.00  0.00    +0.000 C 
ENDBRANCH  23  27
BRANCH  24  29
ATOM     29  O   UNL     1       4.263   3.893  19.102  0.00  0.00    +0.000 OA
ATOM     30  C   UNL     1       3.806   2.689  18.507  0.00  0.00    +0.000 C 
ENDBRANCH  24  29
ENDBRANCH  17  21
ENDBRANCH   1  17
TORSDOF 6
ENDMDL
MODEL 3
REMARK VINA RESULT:      -8.2      2.890      7.715
REMARK  Name = 
REMARK  9 active torsions:
REMARK  status: ('A' for Active; 'I' for Inactive)
REMARK    1  A    between atoms: C_1  and  O_2
REMARK    2  A    between atoms: O_2  and  C_3
REMARK    3  A    between atoms: C_5  and  C_6
REMARK    4  A    between atoms: C_6  and  C_8
REMARK    5  A    between atoms: C_9  and  C_10
REMARK    6  A    between atoms: C_24  and  O_25
REMARK    7  A    between atoms: O_25  and  C_26
REMARK    8  A    between atoms: C_27  and  O_28
REMARK    9  A    between atoms: O_28  and  C_29
REMARK                            x       y       z     vdW  Elec       q    Type
REMARK                         _______ _______ _______ _____ _____    ______ ____
ROOT
ATOM      1  C   UNL     1       1.980   6.169  18.909  0.00  0.00    +0.000 A 
ATOM      2  C   UNL     1       2.638   5.445  17.870  0.00  0.00    +0.000 A 
ATOM      3  N   UNL     1       1.624   4.512  17.653  0.00  0.00    +0.000 N 
ATOM      4  C   UNL     1       1.433   3.975  18.915  0.00  0.00    +0.000 A 
ATOM      5  C   UNL     1       1.148   2.651  19.246  0.00  0.00    +0.000 A 
ATOM      6  C   UNL     1       1.652   2.235  20.472  0.00  0.00    +0.000 A 
ATOM      7  C   UNL     1       2.296   3.147  21.313  0.00  0.00    +0.000 A 
ATOM      8  C   UNL     1       2.349   4.548  21.039  0.00  0.00    +0.000 A 
ATOM      9  C   UNL     1       1.881   5.003  19.781  0.00  0.00    +0.000 A 
ATOM     10  H   UNL     1       0.843   4.671  17.035  0.00  0.00    +0.000 HD
ENDROOT
BRANCH   2  11
ATOM     11  C   UNL     1       4.102   5.092  18.015  0.00  0.00    +0.000 A 
ATOM     12  C   UNL     1       4.896   5.564  19.061  0.00  0.00    +0.000 A 
ATOM     13  C   UNL     1       6.284   5.371  19.032  0.00  0.00    +0.000 A 
ATOM     14  C   UNL     1       6.896   4.719  17.959  0.00  0.00    +0.000 A 
ATOM     15  C   UNL     1       6.124   4.253  16.905  0.00  0.00    +0.000 A 
ATOM     16  C   UNL     1       4.745   4.430  16.943  0.00  0.00    +0.000 A 
ENDBRANCH   2  11
BRANCH   1  17
ATOM     17  C   UNL     1       2.085   7.630  18.706  0.00  0.00    +0.000 C 
ATOM     18  O   UNL     1       2.592   7.973  17.625  0.00  0.00    +0.000 OA
BRANCH  17  21
ATOM     19  C   UNL     1       1.149  11.276  19.336  0.00  0.00    +0.000 A 
ATOM     20  C   UNL     1       1.571  10.054  18.780  0.00  0.00    +0.000 A 
ATOM     21  C   UNL     1       1.658   8.824  19.502  0.00  0.00    +0.000 A 
ATOM     22  C   UNL     1       1.343   8.873  20.846  0.00  0.00    +0.000 A 
ATOM     23  C   UNL     1       0.967  10.114  21.448  0.00  0.00    +0.000 A 
ATOM     24  C   UNL     1       0.872  11.327  20.710  0.00  0.00    +0.000 A 
BRANCH  19  26
ATOM     25  C   UNL     1       2.305  13.012  18.182  0.00  0.00    +0.000 C 
ATOM     26  O   UNL     1       1.073  12.421  18.595  0.00  0.00    +0.000 OA
ENDBRANCH  19  26
BRANCH  23  27
ATOM     27  O   UNL     1       0.707   9.946  22.795  0.00  0.00    +0.000 OA
ATOM     28  C   UNL     1      -0.628   9.706  23.225  0.00  0.00    +0.000 C 
ENDBRANCH  23  27
BRANCH  24  29
ATOM     29  O   UNL     1       0.551  12.455  21.409  0.00  0.00    +0.000 OA
ATOM     30  C   UNL     1      -0.766  12.975  21.493  0.00  0.00    +0.000 C 
ENDBRANCH  24  29
ENDBRANCH  17  21
ENDBRANCH   1  17
TORSDOF 6
ENDMDL
MODEL 4
REMARK VINA RESULT:      -8.1      2.533      7.959
REMARK  Name = 
REMARK  9 active torsions:
REMARK  status: ('A' for Active; 'I' for Inactive)
REMARK    1  A    between atoms: C_1  and  O_2
REMARK    2  A    between atoms: O_2  and  C_3
REMARK    3  A    between atoms: C_5  and  C_6
REMARK    4  A    between atoms: C_6  and  C_8
REMARK    5  A    between atoms: C_9  and  C_10
REMARK    6  A    between atoms: C_24  and  O_25
REMARK    7  A    between atoms: O_25  and  C_26
REMARK    8  A    between atoms: C_27  and  O_28
REMARK    9  A    between atoms: O_28  and  C_29
REMARK                            x       y       z     vdW  Elec       q    Type
REMARK                         _______ _______ _______ _____ _____    ______ ____
ROOT
ATOM      1  C   UNL     1       2.019   6.244  18.874  0.00  0.00    +0.000 A 
ATOM      2  C   UNL     1       2.664   5.479  17.858  0.00  0.00    +0.000 A 
ATOM      3  N   UNL     1       1.637   4.554  17.672  0.00  0.00    +0.000 N 
ATOM      4  C   UNL     1       1.442   4.059  18.951  0.00  0.00    +0.000 A 
ATOM      5  C   UNL     1       1.141   2.750  19.324  0.00  0.00    +0.000 A 
ATOM      6  C   UNL     1       1.643   2.365  20.561  0.00  0.00    +0.000 A 
ATOM      7  C   UNL     1       2.302   3.295  21.371  0.00  0.00    +0.000 A 
ATOM      8  C   UNL     1       2.374   4.686  21.053  0.00  0.00    +0.000 A 
ATOM      9  C   UNL     1       1.908   5.107  19.783  0.00  0.00    +0.000 A 
ATOM     10  H   UNL     1       0.856   4.704  17.051  0.00  0.00    +0.000 HD
ENDROOT
BRANCH   2  11
ATOM     11  C   UNL     1       4.123   5.110  18.009  0.00  0.00    +0.000 A 
ATOM     12  C   UNL     1       4.908   5.545  19.079  0.00  0.00    +0.000 A 
ATOM     13  C   UNL     1       6.296   5.342  19.060  0.00  0.00    +0.000 A 
ATOM     14  C   UNL     1       6.915   4.718  17.975  0.00  0.00    +0.000 A 
ATOM     15  C   UNL     1       6.153   4.290  16.899  0.00  0.00    +0.000 A 
ATOM     16  C   UNL     1       4.775   4.476  16.925  0.00  0.00    +0.000 A 
ENDBRANCH   2  11
BRANCH   1  17
ATOM     17  C   UNL     1       2.144   7.696  18.626  0.00  0.00    +0.000 C 
ATOM     18  O   UNL     1       2.913   8.005  17.701  0.00  0.00    +0.000 OA
BRANCH  17  21
ATOM     19  C   UNL     1       0.915  10.035  21.381  0.00  0.00    +0.000 A 
ATOM     20  C   UNL     1       1.445   8.962  20.640  0.00  0.00    +0.000 A 
ATOM     21  C   UNL     1       1.495   8.911  19.213  0.00  0.00    +0.000 A 
ATOM     22  C   UNL     1       0.940   9.980  18.537  0.00  0.00    +0.000 A 
ATOM     23  C   UNL     1       0.344  11.056  19.265  0.00  0.00    +0.000 A 
ATOM     24  C   UNL     1       0.316  11.096  20.688  0.00  0.00    +0.000 A 
BRANCH  19  26
ATOM     25  C   UNL     1      -0.210   9.416  23.389  0.00  0.00    +0.000 C 
ATOM     26  O   UNL     1       0.904  10.036  22.747  0.00  0.00    +0.000 OA
ENDBRANCH  19  26
BRANCH  23  27
ATOM     27  O   UNL     1      -0.160  12.012  18.403  0.00  0.00    +0.000 OA
ATOM     28  C   UNL     1      -1.478  11.863  17.888  0.00  0.00    +0.000 C 
ENDBRANCH  23  27
BRANCH  24  29
ATOM     29  O   UNL     1      -0.327  12.154  21.266  0.00  0.00    +0.000 OA
ATOM     30  C   UNL     1      -1.719  12.166  21.542  0.00  0.00    +0.000 C 
ENDBRANCH  24  29
ENDBRANCH  17  21
ENDBRANCH   1  17
TORSDOF 6
ENDMDL
MODEL 5
REMARK VINA RESULT:      -7.8      0.275      2.517
REMARK  Name = 
REMARK  9 active torsions:
REMARK  status: ('A' for Active; 'I' for Inactive)
REMARK    1  A    between atoms: C_1  and  O_2
REMARK    2  A    between atoms: O_2  and  C_3
REMARK    3  A    between atoms: C_5  and  C_6
REMARK    4  A    between atoms: C_6  and  C_8
REMARK    5  A    between atoms: C_9  and  C_10
REMARK    6  A    between atoms: C_24  and  O_25
REMARK    7  A    between atoms: O_25  and  C_26
REMARK    8  A    between atoms: C_27  and  O_28
REMARK    9  A    between atoms: O_28  and  C_29
REMARK                            x       y       z     vdW  Elec       q    Type
REMARK                         _______ _______ _______ _____ _____    ______ ____
ROOT
ATOM      1  C   UNL     1       1.126  10.280  19.391  0.00  0.00    +0.000 A 
ATOM      2  C   UNL     1       0.423  11.352  18.765  0.00  0.00    +0.000 A 
ATOM      3  N   UNL     1       0.853  12.359  19.630  0.00  0.00    +0.000 N 
ATOM      4  C   UNL     1       0.488  11.866  20.872  0.00  0.00    +0.000 A 
ATOM      5  C   UNL     1      -0.003  12.581  21.964  0.00  0.00    +0.000 A 
ATOM      6  C   UNL     1      -0.886  11.876  22.773  0.00  0.00    +0.000 A 
ATOM      7  C   UNL     1      -1.143  10.525  22.522  0.00  0.00    +0.000 A 
ATOM      8  C   UNL     1      -0.431   9.771  21.539  0.00  0.00    +0.000 A 
ATOM      9  C   UNL     1       0.447  10.464  20.670  0.00  0.00    +0.000 A 
ATOM     10  H   UNL     1       1.716  12.867  19.509  0.00  0.00    +0.000 HD
ENDROOT
BRANCH   2  11
ATOM     11  C   UNL     1      -1.016  11.156  18.338  0.00  0.00    +0.000 A 
ATOM     12  C   UNL     1      -2.054  11.982  18.772  0.00  0.00    +0.000 A 
ATOM     13  C   UNL     1      -3.387  11.632  18.509  0.00  0.00    +0.000 A 
ATOM     14  C   UNL     1      -3.698  10.455  17.825  0.00  0.00    +0.000 A 
ATOM     15  C   UNL     1      -2.680   9.616  17.397  0.00  0.00    +0.000 A 
ATOM     16  C   UNL     1      -1.357   9.973  17.643  0.00  0.00    +0.000 A 
ENDBRANCH   2  11
BRANCH   1  17
ATOM     17  C   UNL     1       1.809   9.424  18.398  0.00  0.00    +0.000 C 
ATOM     18  O   UNL     1       1.910   9.917  17.262  0.00  0.00    +0.000 OA
BRANCH  17  21
ATOM     19  C   UNL     1       2.548   5.932  19.752  0.00  0.00    +0.000 A 
ATOM     20  C   UNL     1       2.071   7.240  19.542  0.00  0.00    +0.000 A 
ATOM     21  C   UNL     1       2.477   8.085  18.464  0.00  0.00    +0.000 A 
ATOM     22  C   UNL     1       3.436   7.578  17.609  0.00  0.00    +0.000 A 
ATOM     23  C   UNL     1       3.979   6.275  17.834  0.00  0.00    +0.000 A 
ATOM     24  C   UNL     1       3.552   5.442  18.905  0.00  0.00    +0.000 A 
BRANCH  19  26
ATOM     25  C   UNL     1       1.039   4.260  20.534  0.00  0.00    +0.000 C 
ATOM     26  O   UNL     1       2.115   5.162  20.794  0.00  0.00    +0.000 OA
ENDBRANCH  19  26
BRANCH  23  27
ATOM     27  O   UNL     1       4.927   5.968  16.877  0.00  0.00    +0.000 OA
ATOM     28  C   UNL     1       6.274   6.387  17.067  0.00  0.00    +0.000 C 
ENDBRANCH  23  27
BRANCH  24  29
ATOM     29  O   UNL     1       4.182   4.238  19.044  0.00  0.00    +0.000 OA
ATOM     30  C   UNL     1       3.780   3.061  18.360  0.00  0.00    +0.000 C 
ENDBRANCH  24  29
ENDBRANCH  17  21
ENDBRANCH   1  17
TORSDOF 6
ENDMDL
MODEL 6
REMARK VINA RESULT:      -7.8      1.187      1.367
REMARK  Name = 
REMARK  9 active torsions:
REMARK  status: ('A' for Active; 'I' for Inactive)
REMARK    1  A    between atoms: C_1  and  O_2
REMARK    2  A    between atoms: O_2  and  C_3
REMARK    3  A    between atoms: C_5  and  C_6
REMARK    4  A    between atoms: C_6  and  C_8
REMARK    5  A    between atoms: C_9  and  C_10
REMARK    6  A    between atoms: C_24  and  O_25
REMARK    7  A    between atoms: O_25  and  C_26
REMARK    8  A    between atoms: C_27  and  O_28
REMARK    9  A    between atoms: O_28  and  C_29
REMARK                            x       y       z     vdW  Elec       q    Type
REMARK                         _______ _______ _______ _____ _____    ______ ____
ROOT
ATOM      1  C   UNL     1       1.349   9.484  19.326  0.00  0.00    +0.000 A 
ATOM      2  C   UNL     1       0.598  10.632  18.935  0.00  0.00    +0.000 A 
ATOM      3  N   UNL     1       0.997  11.456  19.987  0.00  0.00    +0.000 N 
ATOM      4  C   UNL     1       0.663  10.705  21.102  0.00  0.00    +0.000 A 
ATOM      5  C   UNL     1       0.156  11.160  22.318  0.00  0.00    +0.000 A 
ATOM      6  C   UNL     1      -0.691  10.270  22.967  0.00  0.00    +0.000 A 
ATOM      7  C   UNL     1      -0.898   8.990  22.444  0.00  0.00    +0.000 A 
ATOM      8  C   UNL     1      -0.166   8.482  21.327  0.00  0.00    +0.000 A 
ATOM      9  C   UNL     1       0.675   9.373  20.617  0.00  0.00    +0.000 A 
ATOM     10  H   UNL     1       1.839  12.012  19.972  0.00  0.00    +0.000 HD
ENDROOT
BRANCH   2  11
ATOM     11  C   UNL     1      -0.836  10.470  18.479  0.00  0.00    +0.000 A 
ATOM     12  C   UNL     1      -1.207   9.629  17.429  0.00  0.00    +0.000 A 
ATOM     13  C   UNL     1      -2.514   9.674  16.921  0.00  0.00    +0.000 A 
ATOM     14  C   UNL     1      -3.457  10.562  17.444  0.00  0.00    +0.000 A 
ATOM     15  C   UNL     1      -3.103  11.413  18.479  0.00  0.00    +0.000 A 
ATOM     16  C   UNL     1      -1.811  11.356  18.994  0.00  0.00    +0.000 A 
ENDBRANCH   2  11
BRANCH   1  17
ATOM     17  C   UNL     1       2.055   8.877  18.178  0.00  0.00    +0.000 C 
ATOM     18  O   UNL     1       2.098   9.583  17.157  0.00  0.00    +0.000 OA
BRANCH  17  21
ATOM     19  C   UNL     1       4.968   6.635  17.150  0.00  0.00    +0.000 A 
ATOM     20  C   UNL     1       4.095   7.715  17.384  0.00  0.00    +0.000 A 
ATOM     21  C   UNL     1       2.800   7.595  17.975  0.00  0.00    +0.000 A 
ATOM     22  C   UNL     1       2.381   6.317  18.289  0.00  0.00    +0.000 A 
ATOM     23  C   UNL     1       3.225   5.197  18.008  0.00  0.00    +0.000 A 
ATOM     24  C   UNL     1       4.518   5.338  17.432  0.00  0.00    +0.000 A 
BRANCH  19  26
ATOM     25  C   UNL     1       7.202   7.428  17.403  0.00  0.00    +0.000 C 
ATOM     26  O   UNL     1       6.203   6.810  16.591  0.00  0.00    +0.000 OA
ENDBRANCH  19  26
BRANCH  23  27
ATOM     27  O   UNL     1       2.614   4.016  18.386  0.00  0.00    +0.000 OA
ATOM     28  C   UNL     1       2.761   3.549  19.721  0.00  0.00    +0.000 C 
ENDBRANCH  23  27
BRANCH  24  29
ATOM     29  O   UNL     1       5.207   4.188  17.166  0.00  0.00    +0.000 OA
ATOM     30  C   UNL     1       5.436   3.700  15.853  0.00  0.00    +0.000 C 
ENDBRANCH  24  29
ENDBRANCH  17  21
ENDBRANCH   1  17
TORSDOF 6
ENDMDL
MODEL 7
REMARK VINA RESULT:      -7.5      4.036      6.976
REMARK  Name = 
REMARK  9 active torsions:
REMARK  status: ('A' for Active; 'I' for Inactive)
REMARK    1  A    between atoms: C_1  and  O_2
REMARK    2  A    between atoms: O_2  and  C_3
REMARK    3  A    between atoms: C_5  and  C_6
REMARK    4  A    between atoms: C_6  and  C_8
REMARK    5  A    between atoms: C_9  and  C_10
REMARK    6  A    between atoms: C_24  and  O_25
REMARK    7  A    between atoms: O_25  and  C_26
REMARK    8  A    between atoms: C_27  and  O_28
REMARK    9  A    between atoms: O_28  and  C_29
REMARK                            x       y       z     vdW  Elec       q    Type
REMARK                         _______ _______ _______ _____ _____    ______ ____
ROOT
ATOM      1  C   UNL     1       3.326   3.584  18.045  0.00  0.00    +0.000 A 
ATOM      2  C   UNL     1       3.791   4.681  18.829  0.00  0.00    +0.000 A 
ATOM      3  N   UNL     1       4.248   3.929  19.911  0.00  0.00    +0.000 N 
ATOM      4  C   UNL     1       3.126   3.196  20.264  0.00  0.00    +0.000 A 
ATOM      5  C   UNL     1       2.700   2.851  21.546  0.00  0.00    +0.000 A 
ATOM      6  C   UNL     1       1.323   2.745  21.694  0.00  0.00    +0.000 A 
ATOM      7  C   UNL     1       0.484   2.882  20.584  0.00  0.00    +0.000 A 
ATOM      8  C   UNL     1       0.980   2.993  19.248  0.00  0.00    +0.000 A 
ATOM      9  C   UNL     1       2.376   3.144  19.063  0.00  0.00    +0.000 A 
ATOM     10  H   UNL     1       5.168   3.519  19.956  0.00  0.00    +0.000 HD
ENDROOT
BRANCH   2  11
ATOM     11  C   UNL     1       2.938   5.924  18.958  0.00  0.00    +0.000 A 
ATOM     12  C   UNL     1       2.809   6.865  17.935  0.00  0.00    +0.000 A 
ATOM     13  C   UNL     1       2.173   8.090  18.183  0.00  0.00    +0.000 A 
ATOM     14  C   UNL     1       1.672   8.395  19.451  0.00  0.00    +0.000 A 
ATOM     15  C   UNL     1       1.801   7.477  20.482  0.00  0.00    +0.000 A 
ATOM     16  C   UNL     1       2.417   6.255  20.231  0.00  0.00    +0.000 A 
ENDBRANCH   2  11
BRANCH   1  17
ATOM     17  C   UNL     1       3.748   3.705  16.634  0.00  0.00    +0.000 C 
ATOM     18  O   UNL     1       2.906   3.332  15.801  0.00  0.00    +0.000 OA
BRANCH  17  21
ATOM     19  C   UNL     1       6.329   4.107  13.850  0.00  0.00    +0.000 A 
ATOM     20  C   UNL     1       5.253   3.703  14.664  0.00  0.00    +0.000 A 
ATOM     21  C   UNL     1       4.971   4.243  15.956  0.00  0.00    +0.000 A 
ATOM     22  C   UNL     1       5.852   5.191  16.435  0.00  0.00    +0.000 A 
ATOM     23  C   UNL     1       6.985   5.577  15.653  0.00  0.00    +0.000 A 
ATOM     24  C   UNL     1       7.242   5.039  14.361  0.00  0.00    +0.000 A 
BRANCH  19  26
ATOM     25  C   UNL     1       5.454   2.871  12.009  0.00  0.00    +0.000 C 
ATOM     26  O   UNL     1       6.545   3.565  12.614  0.00  0.00    +0.000 OA
ENDBRANCH  19  26
BRANCH  23  27
ATOM     27  O   UNL     1       7.741   6.523  16.318  0.00  0.00    +0.000 OA
ATOM     28  C   UNL     1       7.331   6.967  17.607  0.00  0.00    +0.000 C 
ENDBRANCH  23  27
BRANCH  24  29
ATOM     29  O   UNL     1       8.384   5.450  13.734  0.00  0.00    +0.000 OA
ATOM     30  C   UNL     1       8.396   6.061  12.453  0.00  0.00    +0.000 C 
ENDBRANCH  24  29
ENDBRANCH  17  21
ENDBRANCH   1  17
TORSDOF 6
ENDMDL
MODEL 8
REMARK VINA RESULT:      -7.5      2.658      7.704
REMARK  Name = 
REMARK  9 active torsions:
REMARK  status: ('A' for Active; 'I' for Inactive)
REMARK    1  A    between atoms: C_1  and  O_2
REMARK    2  A    between atoms: O_2  and  C_3
REMARK    3  A    between atoms: C_5  and  C_6
REMARK    4  A    between atoms: C_6  and  C_8
REMARK    5  A    between atoms: C_9  and  C_10
REMARK    6  A    between atoms: C_24  and  O_25
REMARK    7  A    between atoms: O_25  and  C_26
REMARK    8  A    between atoms: C_27  and  O_28
REMARK    9  A    between atoms: O_28  and  C_29
REMARK                            x       y       z     vdW  Elec       q    Type
REMARK                         _______ _______ _______ _____ _____    ______ ____
ROOT
ATOM      1  C   UNL     1       1.891   6.286  18.883  0.00  0.00    +0.000 A 
ATOM      2  C   UNL     1       2.473   5.614  17.767  0.00  0.00    +0.000 A 
ATOM      3  N   UNL     1       1.475   4.651  17.616  0.00  0.00    +0.000 N 
ATOM      4  C   UNL     1       1.420   4.074  18.874  0.00  0.00    +0.000 A 
ATOM      5  C   UNL     1       1.212   2.731  19.190  0.00  0.00    +0.000 A 
ATOM      6  C   UNL     1       1.842   2.301  20.351  0.00  0.00    +0.000 A 
ATOM      7  C   UNL     1       2.531   3.213  21.156  0.00  0.00    +0.000 A 
ATOM      8  C   UNL     1       2.512   4.622  20.920  0.00  0.00    +0.000 A 
ATOM      9  C   UNL     1       1.914   5.093  19.725  0.00  0.00    +0.000 A 
ATOM     10  H   UNL     1       0.635   4.798  17.078  0.00  0.00    +0.000 HD
ENDROOT
BRANCH   2  11
ATOM     11  C   UNL     1       3.955   5.309  17.765  0.00  0.00    +0.000 A 
ATOM     12  C   UNL     1       4.541   4.400  16.883  0.00  0.00    +0.000 A 
ATOM     13  C   UNL     1       5.876   4.009  17.061  0.00  0.00    +0.000 A 
ATOM     14  C   UNL     1       6.634   4.506  18.123  0.00  0.00    +0.000 A 
ATOM     15  C   UNL     1       6.065   5.401  19.017  0.00  0.00    +0.000 A 
ATOM     16  C   UNL     1       4.746   5.802  18.829  0.00  0.00    +0.000 A 
ENDBRANCH   2  11
BRANCH   1  17
ATOM     17  C   UNL     1       1.929   7.754  18.715  0.00  0.00    +0.000 C 
ATOM     18  O   UNL     1       2.340   8.145  17.610  0.00  0.00    +0.000 OA
BRANCH  17  21
ATOM     19  C   UNL     1       0.886  11.337  19.516  0.00  0.00    +0.000 A 
ATOM     20  C   UNL     1       1.312  10.148  18.894  0.00  0.00    +0.000 A 
ATOM     21  C   UNL     1       1.521   8.910  19.575  0.00  0.00    +0.000 A 
ATOM     22  C   UNL     1       1.327   8.917  20.943  0.00  0.00    +0.000 A 
ATOM     23  C   UNL     1       0.950  10.125  21.606  0.00  0.00    +0.000 A 
ATOM     24  C   UNL     1       0.733  11.347  20.910  0.00  0.00    +0.000 A 
BRANCH  19  26
ATOM     25  C   UNL     1      -0.619  12.724  18.294  0.00  0.00    +0.000 C 
ATOM     26  O   UNL     1       0.690  12.492  18.813  0.00  0.00    +0.000 OA
ENDBRANCH  19  26
BRANCH  23  27
ATOM     27  O   UNL     1       0.822   9.917  22.967  0.00  0.00    +0.000 OA
ATOM     28  C   UNL     1      -0.427   9.486  23.494  0.00  0.00    +0.000 C 
ENDBRANCH  23  27
BRANCH  24  29
ATOM     29  O   UNL     1       0.425  12.444  21.662  0.00  0.00    +0.000 OA
ATOM     30  C   UNL     1      -0.904  12.828  21.977  0.00  0.00    +0.000 C 
ENDBRANCH  24  29
ENDBRANCH  17  21
ENDBRANCH   1  17
TORSDOF 6
ENDMDL
MODEL 9
REMARK VINA RESULT:      -7.5      2.850      7.761
REMARK  Name = 
REMARK  9 active torsions:
REMARK  status: ('A' for Active; 'I' for Inactive)
REMARK    1  A    between atoms: C_1  and  O_2
REMARK    2  A    between atoms: O_2  and  C_3
REMARK    3  A    between atoms: C_5  and  C_6
REMARK    4  A    between atoms: C_6  and  C_8
REMARK    5  A    between atoms: C_9  and  C_10
REMARK    6  A    between atoms: C_24  and  O_25
REMARK    7  A    between atoms: O_25  and  C_26
REMARK    8  A    between atoms: C_27  and  O_28
REMARK    9  A    between atoms: O_28  and  C_29
REMARK                            x       y       z     vdW  Elec       q    Type
REMARK                         _______ _______ _______ _____ _____    ______ ____
ROOT
ATOM      1  C   UNL     1       3.560   6.721  18.188  0.00  0.00    +0.000 A 
ATOM      2  C   UNL     1       3.555   5.682  19.166  0.00  0.00    +0.000 A 
ATOM      3  N   UNL     1       4.864   5.867  19.609  0.00  0.00    +0.000 N 
ATOM      4  C   UNL     1       5.596   5.769  18.436  0.00  0.00    +0.000 A 
ATOM      5  C   UNL     1       6.848   5.182  18.257  0.00  0.00    +0.000 A 
ATOM      6  C   UNL     1       7.054   4.618  17.005  0.00  0.00    +0.000 A 
ATOM      7  C   UNL     1       6.085   4.751  16.006  0.00  0.00    +0.000 A 
ATOM      8  C   UNL     1       4.923   5.570  16.159  0.00  0.00    +0.000 A 
ATOM      9  C   UNL     1       4.660   6.128  17.434  0.00  0.00    +0.000 A 
ATOM     10  H   UNL     1       5.123   6.528  20.326  0.00  0.00    +0.000 HD
ENDROOT
BRANCH   2  11
ATOM     11  C   UNL     1       2.954   4.336  18.825  0.00  0.00    +0.000 A 
ATOM     12  C   UNL     1       1.589   4.148  18.604  0.00  0.00    +0.000 A 
ATOM     13  C   UNL     1       1.067   2.852  18.494  0.00  0.00    +0.000 A 
ATOM     14  C   UNL     1       1.893   1.732  18.615  0.00  0.00    +0.000 A 
ATOM     15  C   UNL     1       3.250   1.899  18.847  0.00  0.00    +0.000 A 
ATOM     16  C   UNL     1       3.770   3.186  18.939  0.00  0.00    +0.000 A 
ENDBRANCH   2  11
BRANCH   1  17
ATOM     17  C   UNL     1       2.332   7.541  18.258  0.00  0.00    +0.000 C 
ATOM     18  O   UNL     1       1.454   7.241  17.432  0.00  0.00    +0.000 OA
BRANCH  17  21
ATOM     19  C   UNL     1       1.183  11.059  19.193  0.00  0.00    +0.000 A 
ATOM     20  C   UNL     1       1.657   9.911  18.530  0.00  0.00    +0.000 A 
ATOM     21  C   UNL     1       1.868   8.644  19.157  0.00  0.00    +0.000 A 
ATOM     22  C   UNL     1       1.625   8.580  20.515  0.00  0.00    +0.000 A 
ATOM     23  C   UNL     1       1.198   9.746  21.223  0.00  0.00    +0.000 A 
ATOM     24  C   UNL     1       0.980  10.996  20.579  0.00  0.00    +0.000 A 
BRANCH  19  26
ATOM     25  C   UNL     1       2.139  13.052  18.303  0.00  0.00    +0.000 C 
ATOM     26  O   UNL     1       0.987  12.243  18.541  0.00  0.00    +0.000 OA
ENDBRANCH  19  26
BRANCH  23  27
ATOM     27  O   UNL     1       1.026   9.469  22.566  0.00  0.00    +0.000 OA
ATOM     28  C   UNL     1      -0.287   9.261  23.074  0.00  0.00    +0.000 C 
ENDBRANCH  23  27
BRANCH  24  29
ATOM     29  O   UNL     1       0.621  12.049  21.373  0.00  0.00    +0.000 OA
ATOM     30  C   UNL     1      -0.710  12.529  21.479  0.00  0.00    +0.000 C 
ENDBRANCH  24  29
ENDBRANCH  17  21
ENDBRANCH   1  17
TORSDOF 6
ENDMDL
