MODEL 1
REMARK VINA RESULT:      -6.8      0.000      0.000
REMARK  Name = 
REMARK  8 active torsions:
REMARK  status: ('A' for Active; 'I' for Inactive)
REMARK    1  A    between atoms: C_1  and  C_2
REMARK    2  A    between atoms: C_2  and  O_3
REMARK    3  A    between atoms: O_3  and  C_4
REMARK    4  A    between atoms: C_4  and  C_6
REMARK    5  A    between atoms: N_8  and  C_9
REMARK    6  A    between atoms: C_9  and  C_10
REMARK    7  A    between atoms: C_15  and  C_16
REMARK    8  A    between atoms: C_16  and  C_17
REMARK                            x       y       z     vdW  Elec       q    Type
REMARK                         _______ _______ _______ _____ _____    ______ ____
ROOT
ATOM      1  C   UNL     1       4.136   3.752  17.548  0.00  0.00    +0.000 C 
ATOM      2  C   UNL     1       4.722   3.850  16.347  0.00  0.00    +0.000 C 
ATOM      3  N   UNL     1       6.092   4.190  16.231  0.00  0.00    +0.000 N 
ATOM      4  S   UNL     1       6.956   4.777  17.529  0.00  0.00    +0.000 S 
ATOM      5  O   UNL     1       6.730   6.201  17.652  0.00  0.00    +0.000 OA
ATOM      6  O   UNL     1       8.295   4.237  17.490  0.00  0.00    +0.000 OA
ATOM      7  N   UNL     1       6.210   4.047  18.815  0.00  0.00    +0.000 NA
ATOM      8  C   UNL     1       4.744   4.011  18.892  0.00  0.00    +0.000 C 
ATOM      9  H   UNL     1       6.669   4.339  19.681  0.00  0.00    +0.000 HD
ENDROOT
BRANCH   1  10
ATOM     10  C   UNL     1       2.733   3.252  17.475  0.00  0.00    +0.000 C 
ATOM     11  O   UNL     1       1.919   3.622  16.642  0.00  0.00    +0.000 OA
BRANCH  10  12
ATOM     12  O   UNL     1       2.510   2.315  18.426  0.00  0.00    +0.000 OA
BRANCH  12  14
ATOM     13  C   UNL     1       1.173   3.032  20.320  0.00  0.00    +0.000 C 
ATOM     14  C   UNL     1       1.187   2.311  18.988  0.00  0.00    +0.000 C 
ENDBRANCH  12  14
ENDBRANCH  10  12
ENDBRANCH   1  10
BRANCH   3  15
ATOM     15  C   UNL     1       6.677   4.362  14.879  0.00  0.00    +0.000 C 
ATOM     16  C   UNL     1       5.737   3.896  13.780  0.00  0.00    +0.000 C 
ENDBRANCH   3  15
BRANCH   8  17
ATOM     17  C   UNL     1       4.154   5.254  19.588  0.00  0.00    +0.000 C 
ATOM     18  C   UNL     1       3.459   6.214  18.627  0.00  0.00    +0.000 C 
ENDBRANCH   8  17
TORSDOF 5
ENDMDL
MODEL 2
REMARK VINA RESULT:      -6.7      2.681      5.056
REMARK  Name = 
REMARK  8 active torsions:
REMARK  status: ('A' for Active; 'I' for Inactive)
REMARK    1  A    between atoms: C_1  and  C_2
REMARK    2  A    between atoms: C_2  and  O_3
REMARK    3  A    between atoms: O_3  and  C_4
REMARK    4  A    between atoms: C_4  and  C_6
REMARK    5  A    between atoms: N_8  and  C_9
REMARK    6  A    between atoms: C_9  and  C_10
REMARK    7  A    between atoms: C_15  and  C_16
REMARK    8  A    between atoms: C_16  and  C_17
REMARK                            x       y       z     vdW  Elec       q    Type
REMARK                         _______ _______ _______ _____ _____    ______ ____
ROOT
ATOM      1  C   UNL     1       5.780   5.120  15.887  0.00  0.00    +0.000 C 
ATOM      2  C   UNL     1       4.857   4.180  16.134  0.00  0.00    +0.000 C 
ATOM      3  N   UNL     1       3.853   4.387  17.111  0.00  0.00    +0.000 N 
ATOM      4  S   UNL     1       3.942   5.646  18.199  0.00  0.00    +0.000 S 
ATOM      5  O   UNL     1       4.784   5.261  19.311  0.00  0.00    +0.000 OA
ATOM      6  O   UNL     1       2.617   6.176  18.418  0.00  0.00    +0.000 OA
ATOM      7  N   UNL     1       4.758   6.803  17.340  0.00  0.00    +0.000 NA
ATOM      8  C   UNL     1       5.954   6.442  16.569  0.00  0.00    +0.000 C 
ATOM      9  H   UNL     1       4.868   7.638  17.921  0.00  0.00    +0.000 HD
ENDROOT
BRANCH   1  10
ATOM     10  C   UNL     1       6.665   4.781  14.735  0.00  0.00    +0.000 C 
ATOM     11  O   UNL     1       7.670   5.411  14.438  0.00  0.00    +0.000 OA
BRANCH  10  12
ATOM     12  O   UNL     1       6.222   3.670  14.102  0.00  0.00    +0.000 OA
BRANCH  12  14
ATOM     13  C   UNL     1       5.108   3.254  11.986  0.00  0.00    +0.000 C 
ATOM     14  C   UNL     1       6.393   3.665  12.675  0.00  0.00    +0.000 C 
ENDBRANCH  12  14
ENDBRANCH  10  12
ENDBRANCH   1  10
BRANCH   3  15
ATOM     15  C   UNL     1       2.900   3.289  17.404  0.00  0.00    +0.000 C 
ATOM     16  C   UNL     1       3.544   2.163  18.197  0.00  0.00    +0.000 C 
ENDBRANCH   3  15
BRANCH   8  17
ATOM     17  C   UNL     1       7.247   6.521  17.404  0.00  0.00    +0.000 C 
ATOM     18  C   UNL     1       7.744   7.948  17.620  0.00  0.00    +0.000 C 
ENDBRANCH   8  17
TORSDOF 5
ENDMDL
MODEL 3
REMARK VINA RESULT:      -6.5      1.376      1.672
REMARK  Name = 
REMARK  8 active torsions:
REMARK  status: ('A' for Active; 'I' for Inactive)
REMARK    1  A    between atoms: C_1  and  C_2
REMARK    2  A    between atoms: C_2  and  O_3
REMARK    3  A    between atoms: O_3  and  C_4
REMARK    4  A    between atoms: C_4  and  C_6
REMARK    5  A    between atoms: N_8  and  C_9
REMARK    6  A    between atoms: C_9  and  C_10
REMARK    7  A    between atoms: C_15  and  C_16
REMARK    8  A    between atoms: C_16  and  C_17
REMARK                            x       y       z     vdW  Elec       q    Type
REMARK                         _______ _______ _______ _____ _____    ______ ____
ROOT
ATOM      1  C   UNL     1       3.893   4.178  17.562  0.00  0.00    +0.000 C 
ATOM      2  C   UNL     1       4.743   3.741  16.623  0.00  0.00    +0.000 C 
ATOM      3  N   UNL     1       5.786   4.571  16.143  0.00  0.00    +0.000 N 
ATOM      4  S   UNL     1       5.827   6.201  16.481  0.00  0.00    +0.000 S 
ATOM      5  O   UNL     1       4.986   6.908  15.540  0.00  0.00    +0.000 OA
ATOM      6  O   UNL     1       7.196   6.604  16.705  0.00  0.00    +0.000 OA
ATOM      7  N   UNL     1       5.085   6.278  17.961  0.00  0.00    +0.000 NA
ATOM      8  C   UNL     1       3.844   5.532  18.201  0.00  0.00    +0.000 C 
ATOM      9  H   UNL     1       5.058   7.252  18.273  0.00  0.00    +0.000 HD
ENDROOT
BRANCH   1  10
ATOM     10  C   UNL     1       2.953   3.122  18.038  0.00  0.00    +0.000 C 
ATOM     11  O   UNL     1       2.202   2.496  17.305  0.00  0.00    +0.000 OA
BRANCH  10  12
ATOM     12  O   UNL     1       3.082   2.934  19.371  0.00  0.00    +0.000 OA
BRANCH  12  14
ATOM     13  C   UNL     1       1.061   3.876  20.331  0.00  0.00    +0.000 C 
ATOM     14  C   UNL     1       1.865   2.619  20.068  0.00  0.00    +0.000 C 
ENDBRANCH  12  14
ENDBRANCH  10  12
ENDBRANCH   1  10
BRANCH   3  15
ATOM     15  C   UNL     1       6.655   4.071  15.049  0.00  0.00    +0.000 C 
ATOM     16  C   UNL     1       5.909   3.952  13.730  0.00  0.00    +0.000 C 
ENDBRANCH   3  15
BRANCH   8  17
ATOM     17  C   UNL     1       2.584   6.332  17.817  0.00  0.00    +0.000 C 
ATOM     18  C   UNL     1       2.686   7.819  18.147  0.00  0.00    +0.000 C 
ENDBRANCH   8  17
TORSDOF 5
ENDMDL
MODEL 4
REMARK VINA RESULT:      -6.5      2.292      4.972
REMARK  Name = 
REMARK  8 active torsions:
REMARK  status: ('A' for Active; 'I' for Inactive)
REMARK    1  A    between atoms: C_1  and  C_2
REMARK    2  A    between atoms: C_2  and  O_3
REMARK    3  A    between atoms: O_3  and  C_4
REMARK    4  A    between atoms: C_4  and  C_6
REMARK    5  A    between atoms: N_8  and  C_9
REMARK    6  A    between atoms: C_9  and  C_10
REMARK    7  A    between atoms: C_15  and  C_16
REMARK    8  A    between atoms: C_16  and  C_17
REMARK                            x       y       z     vdW  Elec       q    Type
REMARK                         _______ _______ _______ _____ _____    ______ ____
ROOT
ATOM      1  C   UNL     1       3.929   5.144  18.557  0.00  0.00    +0.000 C 
ATOM      2  C   UNL     1       3.117   4.841  19.579  0.00  0.00    +0.000 C 
ATOM      3  N   UNL     1       3.301   3.652  20.327  0.00  0.00    +0.000 N 
ATOM      4  S   UNL     1       4.315   2.440  19.799  0.00  0.00    +0.000 S 
ATOM      5  O   UNL     1       3.611   1.602  18.854  0.00  0.00    +0.000 OA
ATOM      6  O   UNL     1       4.999   1.868  20.935  0.00  0.00    +0.000 OA
ATOM      7  N   UNL     1       5.465   3.280  18.953  0.00  0.00    +0.000 NA
ATOM      8  C   UNL     1       5.064   4.333  18.012  0.00  0.00    +0.000 C 
ATOM      9  H   UNL     1       6.154   2.622  18.580  0.00  0.00    +0.000 HD
ENDROOT
BRANCH   1  10
ATOM     10  C   UNL     1       3.667   6.495  17.982  0.00  0.00    +0.000 C 
ATOM     11  O   UNL     1       4.505   7.159  17.389  0.00  0.00    +0.000 OA
BRANCH  10  12
ATOM     12  O   UNL     1       2.377   6.855  18.175  0.00  0.00    +0.000 OA
BRANCH  12  14
ATOM     13  C   UNL     1       1.567   9.108  17.773  0.00  0.00    +0.000 C 
ATOM     14  C   UNL     1       2.182   8.148  18.771  0.00  0.00    +0.000 C 
ENDBRANCH  12  14
ENDBRANCH  10  12
ENDBRANCH   1  10
BRANCH   3  15
ATOM     15  C   UNL     1       2.331   3.322  21.399  0.00  0.00    +0.000 C 
ATOM     16  C   UNL     1       0.955   2.985  20.848  0.00  0.00    +0.000 C 
ENDBRANCH   3  15
BRANCH   8  17
ATOM     17  C   UNL     1       4.788   3.792  16.595  0.00  0.00    +0.000 C 
ATOM     18  C   UNL     1       5.898   4.112  15.597  0.00  0.00    +0.000 C 
ENDBRANCH   8  17
TORSDOF 5
ENDMDL
MODEL 5
REMARK VINA RESULT:      -6.4      2.499      5.652
REMARK  Name = 
REMARK  8 active torsions:
REMARK  status: ('A' for Active; 'I' for Inactive)
REMARK    1  A    between atoms: C_1  and  C_2
REMARK    2  A    between atoms: C_2  and  O_3
REMARK    3  A    between atoms: O_3  and  C_4
REMARK    4  A    between atoms: C_4  and  C_6
REMARK    5  A    between atoms: N_8  and  C_9
REMARK    6  A    between atoms: C_9  and  C_10
REMARK    7  A    between atoms: C_15  and  C_16
REMARK    8  A    between atoms: C_16  and  C_17
REMARK                            x       y       z     vdW  Elec       q    Type
REMARK                         _______ _______ _______ _____ _____    ______ ____
ROOT
ATOM      1  C   UNL     1       4.882   4.647  18.664  0.00  0.00    +0.000 C 
ATOM      2  C   UNL     1       3.894   4.889  19.536  0.00  0.00    +0.000 C 
ATOM      3  N   UNL     1       2.730   4.081  19.560  0.00  0.00    +0.000 N 
ATOM      4  S   UNL     1       2.392   3.006  18.333  0.00  0.00    +0.000 S 
ATOM      5  O   UNL     1       1.745   3.706  17.245  0.00  0.00    +0.000 OA
ATOM      6  O   UNL     1       1.810   1.811  18.899  0.00  0.00    +0.000 OA
ATOM      7  N   UNL     1       3.903   2.571  17.812  0.00  0.00    +0.000 NA
ATOM      8  C   UNL     1       4.931   3.597  17.596  0.00  0.00    +0.000 C 
ATOM      9  H   UNL     1       3.814   1.898  17.048  0.00  0.00    +0.000 HD
ENDROOT
BRANCH   1  10
ATOM     10  C   UNL     1       6.078   5.511  18.881  0.00  0.00    +0.000 C 
ATOM     11  O   UNL     1       6.915   5.312  19.750  0.00  0.00    +0.000 OA
BRANCH  10  12
ATOM     12  O   UNL     1       6.122   6.506  17.965  0.00  0.00    +0.000 OA
BRANCH  12  14
ATOM     13  C   UNL     1       7.841   8.194  17.666  0.00  0.00    +0.000 C 
ATOM     14  C   UNL     1       7.417   6.763  17.399  0.00  0.00    +0.000 C 
ENDBRANCH  12  14
ENDBRANCH  10  12
ENDBRANCH   1  10
BRANCH   3  15
ATOM     15  C   UNL     1       1.630   4.435  20.489  0.00  0.00    +0.000 C 
ATOM     16  C   UNL     1       1.560   5.929  20.759  0.00  0.00    +0.000 C 
ENDBRANCH   3  15
BRANCH   8  17
ATOM     17  C   UNL     1       4.893   4.188  16.173  0.00  0.00    +0.000 C 
ATOM     18  C   UNL     1       6.140   3.870  15.352  0.00  0.00    +0.000 C 
ENDBRANCH   8  17
TORSDOF 5
ENDMDL
MODEL 6
REMARK VINA RESULT:      -6.4      0.964      1.060
REMARK  Name = 
REMARK  8 active torsions:
REMARK  status: ('A' for Active; 'I' for Inactive)
REMARK    1  A    between atoms: C_1  and  C_2
REMARK    2  A    between atoms: C_2  and  O_3
REMARK    3  A    between atoms: O_3  and  C_4
REMARK    4  A    between atoms: C_4  and  C_6
REMARK    5  A    between atoms: N_8  and  C_9
REMARK    6  A    between atoms: C_9  and  C_10
REMARK    7  A    between atoms: C_15  and  C_16
REMARK    8  A    between atoms: C_16  and  C_17
REMARK                            x       y       z     vdW  Elec       q    Type
REMARK                         _______ _______ _______ _____ _____    ______ ____
ROOT
ATOM      1  C   UNL     1       3.365   4.134  18.038  0.00  0.00    +0.000 C 
ATOM      2  C   UNL     1       4.047   3.800  16.934  0.00  0.00    +0.000 C 
ATOM      3  N   UNL     1       5.437   4.055  16.832  0.00  0.00    +0.000 N 
ATOM      4  S   UNL     1       6.224   5.038  17.922  0.00  0.00    +0.000 S 
ATOM      5  O   UNL     1       6.058   6.420  17.530  0.00  0.00    +0.000 OA
ATOM      6  O   UNL     1       7.534   4.492  18.190  0.00  0.00    +0.000 OA
ATOM      7  N   UNL     1       5.346   4.809  19.308  0.00  0.00    +0.000 NA
ATOM      8  C   UNL     1       3.878   4.829  19.262  0.00  0.00    +0.000 C 
ATOM      9  H   UNL     1       5.750   5.373  20.059  0.00  0.00    +0.000 HD
ENDROOT
BRANCH   1  10
ATOM     10  C   UNL     1       1.950   3.664  18.016  0.00  0.00    +0.000 C 
ATOM     11  O   UNL     1       1.105   4.081  17.237  0.00  0.00    +0.000 OA
BRANCH  10  12
ATOM     12  O   UNL     1       1.752   2.697  18.941  0.00  0.00    +0.000 OA
BRANCH  12  14
ATOM     13  C   UNL     1       1.466   2.819  21.349  0.00  0.00    +0.000 C 
ATOM     14  C   UNL     1       0.828   3.030  19.991  0.00  0.00    +0.000 C 
ENDBRANCH  12  14
ENDBRANCH  10  12
ENDBRANCH   1  10
BRANCH   3  15
ATOM     15  C   UNL     1       6.133   3.739  15.561  0.00  0.00    +0.000 C 
ATOM     16  C   UNL     1       5.658   4.612  14.411  0.00  0.00    +0.000 C 
ENDBRANCH   3  15
BRANCH   8  17
ATOM     17  C   UNL     1       3.296   6.246  19.435  0.00  0.00    +0.000 C 
ATOM     18  C   UNL     1       2.935   6.919  18.114  0.00  0.00    +0.000 C 
ENDBRANCH   8  17
TORSDOF 5
ENDMDL
MODEL 7
REMARK VINA RESULT:      -6.4      2.543      4.916
REMARK  Name = 
REMARK  8 active torsions:
REMARK  status: ('A' for Active; 'I' for Inactive)
REMARK    1  A    between atoms: C_1  and  C_2
REMARK    2  A    between atoms: C_2  and  O_3
REMARK    3  A    between atoms: O_3  and  C_4
REMARK    4  A    between atoms: C_4  and  C_6
REMARK    5  A    between atoms: N_8  and  C_9
REMARK    6  A    between atoms: C_9  and  C_10
REMARK    7  A    between atoms: C_15  and  C_16
REMARK    8  A    between atoms: C_16  and  C_17
REMARK                            x       y       z     vdW  Elec       q    Type
REMARK                         _______ _______ _______ _____ _____    ______ ____
ROOT
ATOM      1  C   UNL     1       5.683   4.811  16.343  0.00  0.00    +0.000 C 
ATOM      2  C   UNL     1       4.622   3.994  16.383  0.00  0.00    +0.000 C 
ATOM      3  N   UNL     1       3.821   3.897  17.548  0.00  0.00    +0.000 N 
ATOM      4  S   UNL     1       4.319   4.539  19.002  0.00  0.00    +0.000 S 
ATOM      5  O   UNL     1       5.198   3.601  19.666  0.00  0.00    +0.000 OA
ATOM      6  O   UNL     1       3.178   5.101  19.686  0.00  0.00    +0.000 OA
ATOM      7  N   UNL     1       5.243   5.829  18.526  0.00  0.00    +0.000 NA
ATOM      8  C   UNL     1       6.223   5.673  17.443  0.00  0.00    +0.000 C 
ATOM      9  H   UNL     1       5.604   6.308  19.354  0.00  0.00    +0.000 HD
ENDROOT
BRANCH   1  10
ATOM     10  C   UNL     1       6.317   4.882  14.995  0.00  0.00    +0.000 C 
ATOM     11  O   UNL     1       7.415   5.373  14.782  0.00  0.00    +0.000 OA
BRANCH  10  12
ATOM     12  O   UNL     1       5.527   4.297  14.065  0.00  0.00    +0.000 OA
BRANCH  12  14
ATOM     13  C   UNL     1       5.245   3.179  11.929  0.00  0.00    +0.000 C 
ATOM     14  C   UNL     1       6.223   3.653  12.984  0.00  0.00    +0.000 C 
ENDBRANCH  12  14
ENDBRANCH  10  12
ENDBRANCH   1  10
BRANCH   3  15
ATOM     15  C   UNL     1       2.704   2.922  17.571  0.00  0.00    +0.000 C 
ATOM     16  C   UNL     1       3.095   1.611  18.233  0.00  0.00    +0.000 C 
ENDBRANCH   3  15
BRANCH   8  17
ATOM     17  C   UNL     1       7.601   5.204  17.951  0.00  0.00    +0.000 C 
ATOM     18  C   UNL     1       7.987   5.806  19.300  0.00  0.00    +0.000 C 
ENDBRANCH   8  17
TORSDOF 5
ENDMDL
MODEL 8
REMARK VINA RESULT:      -6.4      2.416      4.885
REMARK  Name = 
REMARK  8 active torsions:
REMARK  status: ('A' for Active; 'I' for Inactive)
REMARK    1  A    between atoms: C_1  and  C_2
REMARK    2  A    between atoms: C_2  and  O_3
REMARK    3  A    between atoms: O_3  and  C_4
REMARK    4  A    between atoms: C_4  and  C_6
REMARK    5  A    between atoms: N_8  and  C_9
REMARK    6  A    between atoms: C_9  and  C_10
REMARK    7  A    between atoms: C_15  and  C_16
REMARK    8  A    between atoms: C_16  and  C_17
REMARK                            x       y       z     vdW  Elec       q    Type
REMARK                         _______ _______ _______ _____ _____    ______ ____
ROOT
ATOM      1  C   UNL     1       4.860   4.823  16.961  0.00  0.00    +0.000 C 
ATOM      2  C   UNL     1       3.949   3.840  16.934  0.00  0.00    +0.000 C 
ATOM      3  N   UNL     1       3.374   3.347  18.132  0.00  0.00    +0.000 N 
ATOM      4  S   UNL     1       4.007   3.733  19.624  0.00  0.00    +0.000 S 
ATOM      5  O   UNL     1       5.109   2.845  19.922  0.00  0.00    +0.000 OA
ATOM      6  O   UNL     1       2.925   3.917  20.563  0.00  0.00    +0.000 OA
ATOM      7  N   UNL     1       4.643   5.240  19.364  0.00  0.00    +0.000 NA
ATOM      8  C   UNL     1       5.443   5.504  18.161  0.00  0.00    +0.000 C 
ATOM      9  H   UNL     1       5.063   5.582  20.232  0.00  0.00    +0.000 HD
ENDROOT
BRANCH   1  10
ATOM     10  C   UNL     1       5.245   5.301  15.602  0.00  0.00    +0.000 C 
ATOM     11  O   UNL     1       5.499   6.466  15.336  0.00  0.00    +0.000 OA
BRANCH  10  12
ATOM     12  O   UNL     1       5.309   4.267  14.732  0.00  0.00    +0.000 OA
BRANCH  12  14
ATOM     13  C   UNL     1       6.197   3.535  12.594  0.00  0.00    +0.000 C 
ATOM     14  C   UNL     1       6.488   4.226  13.911  0.00  0.00    +0.000 C 
ENDBRANCH  12  14
ENDBRANCH  10  12
ENDBRANCH   1  10
BRANCH   3  15
ATOM     15  C   UNL     1       2.428   2.208  18.057  0.00  0.00    +0.000 C 
ATOM     16  C   UNL     1       1.032   2.585  18.524  0.00  0.00    +0.000 C 
ENDBRANCH   3  15
BRANCH   8  17
ATOM     17  C   UNL     1       6.939   5.191  18.361  0.00  0.00    +0.000 C 
ATOM     18  C   UNL     1       7.802   6.438  18.529  0.00  0.00    +0.000 C 
ENDBRANCH   8  17
TORSDOF 5
ENDMDL
MODEL 9
REMARK VINA RESULT:      -6.3      2.262      2.990
REMARK  Name = 
REMARK  8 active torsions:
REMARK  status: ('A' for Active; 'I' for Inactive)
REMARK    1  A    between atoms: C_1  and  C_2
REMARK    2  A    between atoms: C_2  and  O_3
REMARK    3  A    between atoms: O_3  and  C_4
REMARK    4  A    between atoms: C_4  and  C_6
REMARK    5  A    between atoms: N_8  and  C_9
REMARK    6  A    between atoms: C_9  and  C_10
REMARK    7  A    between atoms: C_15  and  C_16
REMARK    8  A    between atoms: C_16  and  C_17
REMARK                            x       y       z     vdW  Elec       q    Type
REMARK                         _______ _______ _______ _____ _____    ______ ____
ROOT
ATOM      1  C   UNL     1       3.997   5.125  17.826  0.00  0.00    +0.000 C 
ATOM      2  C   UNL     1       4.749   6.232  17.748  0.00  0.00    +0.000 C 
ATOM      3  N   UNL     1       6.069   6.180  17.238  0.00  0.00    +0.000 N 
ATOM      4  S   UNL     1       6.855   4.730  17.001  0.00  0.00    +0.000 S 
ATOM      5  O   UNL     1       7.441   4.292  18.249  0.00  0.00    +0.000 OA
ATOM      6  O   UNL     1       7.646   4.812  15.795  0.00  0.00    +0.000 OA
ATOM      7  N   UNL     1       5.605   3.699  16.655  0.00  0.00    +0.000 NA
ATOM      8  C   UNL     1       4.384   3.723  17.469  0.00  0.00    +0.000 C 
ATOM      9  H   UNL     1       5.980   2.762  16.485  0.00  0.00    +0.000 HD
ENDROOT
BRANCH   1  10
ATOM     10  C   UNL     1       2.596   5.399  18.256  0.00  0.00    +0.000 C 
ATOM     11  O   UNL     1       1.608   4.983  17.669  0.00  0.00    +0.000 OA
BRANCH  10  12
ATOM     12  O   UNL     1       2.580   6.129  19.395  0.00  0.00    +0.000 OA
BRANCH  12  14
ATOM     13  C   UNL     1       2.290   4.463  21.136  0.00  0.00    +0.000 C 
ATOM     14  C   UNL     1       1.689   5.654  20.418  0.00  0.00    +0.000 C 
ENDBRANCH  12  14
ENDBRANCH  10  12
ENDBRANCH   1  10
BRANCH   3  15
ATOM     15  C   UNL     1       6.890   7.416  17.243  0.00  0.00    +0.000 C 
ATOM     16  C   UNL     1       8.001   7.365  18.278  0.00  0.00    +0.000 C 
ENDBRANCH   3  15
BRANCH   8  17
ATOM     17  C   UNL     1       4.468   2.793  18.696  0.00  0.00    +0.000 C 
ATOM     18  C   UNL     1       3.497   1.617  18.633  0.00  0.00    +0.000 C 
ENDBRANCH   8  17
TORSDOF 5
ENDMDL
