MODEL 1
REMARK VINA RESULT:      -8.3      0.000      0.000
REMARK  Name = 
REMARK  9 active torsions:
REMARK  status: ('A' for Active; 'I' for Inactive)
REMARK    1  A    between atoms: C_1  and  C_2
REMARK    2  A    between atoms: C_6  and  C_8
REMARK    3  A    between atoms: C_8  and  C_9
REMARK    4  A    between atoms: C_9  and  C_10
REMARK    5  A    between atoms: N_12  and  C_13
REMARK    6  A    between atoms: N_12  and  C_19
REMARK    7  A    between atoms: C_19  and  C_20
REMARK    8  A    between atoms: C_19  and  C_28
REMARK    9  A    between atoms: N_22  and  C_23
REMARK                            x       y       z     vdW  Elec       q    Type
REMARK                         _______ _______ _______ _____ _____    ______ ____
ROOT
ATOM      1  C   UNL     1       2.699   6.750  17.811  0.00  0.00    +0.000 C 
ATOM      2  O   UNL     1       1.547   6.420  17.524  0.00  0.00    +0.000 OA
ATOM      3  N   UNL     1       3.804   5.889  17.658  0.00  0.00    +0.000 N 
ENDROOT
BRANCH   3   4
ATOM      4  C   UNL     1       5.134   6.307  17.978  0.00  0.00    +0.000 A 
ATOM      5  C   UNL     1       5.825   7.201  17.157  0.00  0.00    +0.000 A 
ATOM      6  C   UNL     1       7.206   7.363  17.306  0.00  0.00    +0.000 A 
ATOM      7  C   UNL     1       7.897   6.679  18.304  0.00  0.00    +0.000 A 
ATOM      8  C   UNL     1       7.200   5.871  19.194  0.00  0.00    +0.000 A 
ATOM      9  C   UNL     1       5.823   5.709  19.047  0.00  0.00    +0.000 A 
ENDBRANCH   3   4
BRANCH   1  10
ATOM     10  C   UNL     1       2.965   8.157  18.375  0.00  0.00    +0.000 C 
BRANCH  10  11
ATOM     11  C   UNL     1       1.799   9.129  18.296  0.00  0.00    +0.000 C 
BRANCH  11  17
ATOM     12  C   UNL     1      -1.306  13.531  23.335  0.00  0.00    +0.000 C 
ATOM     13  C   UNL     1      -0.676  12.527  22.467  0.00  0.00    +0.000 A 
ATOM     14  C   UNL     1      -0.225  12.499  21.171  0.00  0.00    +0.000 A 
ATOM     15  C   UNL     1       0.279  11.190  20.996  0.00  0.00    +0.000 A 
ATOM     16  N   UNL     1       0.833  10.712  19.828  0.00  0.00    +0.000 N 
ATOM     17  C   UNL     1       1.328   9.430  19.696  0.00  0.00    +0.000 C 
ATOM     18  O   UNL     1       1.357   8.551  20.549  0.00  0.00    +0.000 OA
ATOM     19  N   UNL     1       0.127  10.478  22.119  0.00  0.00    +0.000 NA
ATOM     20  O   UNL     1      -0.472  11.310  23.031  0.00  0.00    +0.000 OA
ATOM     21  H   UNL     1       0.805  11.321  19.018  0.00  0.00    +0.000 HD
ENDBRANCH  11  17
ENDBRANCH  10  11
ENDBRANCH   1  10
BRANCH   3  22
ATOM     22  C   UNL     1       3.564   4.465  17.249  0.00  0.00    +0.000 C 
BRANCH  22  23
ATOM     23  C   UNL     1       2.969   3.526  18.312  0.00  0.00    +0.000 A 
ATOM     24  C   UNL     1       3.554   3.299  19.561  0.00  0.00    +0.000 A 
ATOM     25  C   UNL     1       2.864   2.561  20.517  0.00  0.00    +0.000 A 
ATOM     26  N   UNL     1       1.632   2.045  20.332  0.00  0.00    +0.000 NA
ATOM     27  C   UNL     1       1.088   2.225  19.114  0.00  0.00    +0.000 A 
ATOM     28  C   UNL     1       1.711   2.924  18.086  0.00  0.00    +0.000 A 
ENDBRANCH  22  23
BRANCH  22  29
ATOM     29  C   UNL     1       4.768   3.863  16.451  0.00  0.00    +0.000 C 
ATOM     30  O   UNL     1       5.429   2.896  16.842  0.00  0.00    +0.000 OA
ATOM     31  N   UNL     1       5.013   4.459  15.220  0.00  0.00    +0.000 N 
ATOM     32  H   UNL     1       4.298   5.072  14.842  0.00  0.00    +0.000 HD
BRANCH  31  33
ATOM     33  C   UNL     1       6.066   3.998  14.327  0.00  0.00    +0.000 C 
ATOM     34  C   UNL     1       5.522   3.581  12.962  0.00  0.00    +0.000 C 
ATOM     35  C   UNL     1       6.726   3.629  12.031  0.00  0.00    +0.000 C 
ATOM     36  C   UNL     1       7.671   4.672  12.619  0.00  0.00    +0.000 C 
ATOM     37  C   UNL     1       7.082   5.085  13.966  0.00  0.00    +0.000 C 
ENDBRANCH  31  33
ENDBRANCH  22  29
ENDBRANCH   3  22
TORSDOF 8
ENDMDL
MODEL 2
REMARK VINA RESULT:      -8.0      1.026      1.085
REMARK  Name = 
REMARK  9 active torsions:
REMARK  status: ('A' for Active; 'I' for Inactive)
REMARK    1  A    between atoms: C_1  and  C_2
REMARK    2  A    between atoms: C_6  and  C_8
REMARK    3  A    between atoms: C_8  and  C_9
REMARK    4  A    between atoms: C_9  and  C_10
REMARK    5  A    between atoms: N_12  and  C_13
REMARK    6  A    between atoms: N_12  and  C_19
REMARK    7  A    between atoms: C_19  and  C_20
REMARK    8  A    between atoms: C_19  and  C_28
REMARK    9  A    between atoms: N_22  and  C_23
REMARK                            x       y       z     vdW  Elec       q    Type
REMARK                         _______ _______ _______ _____ _____    ______ ____
ROOT
ATOM      1  C   UNL     1       2.676   6.703  17.853  0.00  0.00    +0.000 C 
ATOM      2  O   UNL     1       1.525   6.365  17.573  0.00  0.00    +0.000 OA
ATOM      3  N   UNL     1       3.787   5.852  17.685  0.00  0.00    +0.000 N 
ENDROOT
BRANCH   3   4
ATOM      4  C   UNL     1       5.116   6.279  17.997  0.00  0.00    +0.000 A 
ATOM      5  C   UNL     1       5.806   7.157  17.158  0.00  0.00    +0.000 A 
ATOM      6  C   UNL     1       7.186   7.325  17.304  0.00  0.00    +0.000 A 
ATOM      7  C   UNL     1       7.878   6.663  18.316  0.00  0.00    +0.000 A 
ATOM      8  C   UNL     1       7.182   5.872  19.222  0.00  0.00    +0.000 A 
ATOM      9  C   UNL     1       5.805   5.705  19.078  0.00  0.00    +0.000 A 
ENDBRANCH   3   4
BRANCH   1  10
ATOM     10  C   UNL     1       2.935   8.108  18.426  0.00  0.00    +0.000 C 
BRANCH  10  11
ATOM     11  C   UNL     1       2.502   9.268  17.544  0.00  0.00    +0.000 C 
BRANCH  11  17
ATOM     12  C   UNL     1      -1.646  11.421  23.250  0.00  0.00    +0.000 C 
ATOM     13  C   UNL     1      -0.787  11.173  22.084  0.00  0.00    +0.000 A 
ATOM     14  C   UNL     1      -0.408  10.066  21.366  0.00  0.00    +0.000 A 
ATOM     15  C   UNL     1       0.442  10.571  20.356  0.00  0.00    +0.000 A 
ATOM     16  N   UNL     1       1.063   9.800  19.396  0.00  0.00    +0.000 N 
ATOM     17  C   UNL     1       1.877  10.327  18.414  0.00  0.00    +0.000 C 
ATOM     18  O   UNL     1       2.168  11.506  18.240  0.00  0.00    +0.000 OA
ATOM     19  N   UNL     1       0.570  11.897  20.472  0.00  0.00    +0.000 NA
ATOM     20  O   UNL     1      -0.191  12.270  21.552  0.00  0.00    +0.000 OA
ATOM     21  H   UNL     1       0.962   8.794  19.471  0.00  0.00    +0.000 HD
ENDBRANCH  11  17
ENDBRANCH  10  11
ENDBRANCH   1  10
BRANCH   3  22
ATOM     22  C   UNL     1       3.556   4.429  17.268  0.00  0.00    +0.000 C 
BRANCH  22  23
ATOM     23  C   UNL     1       2.967   3.480  18.325  0.00  0.00    +0.000 A 
ATOM     24  C   UNL     1       3.495   3.330  19.611  0.00  0.00    +0.000 A 
ATOM     25  C   UNL     1       2.804   2.571  20.551  0.00  0.00    +0.000 A 
ATOM     26  N   UNL     1       1.622   1.965  20.315  0.00  0.00    +0.000 NA
ATOM     27  C   UNL     1       1.138   2.073  19.064  0.00  0.00    +0.000 A 
ATOM     28  C   UNL     1       1.769   2.785  18.050  0.00  0.00    +0.000 A 
ENDBRANCH  22  23
BRANCH  22  29
ATOM     29  C   UNL     1       4.763   3.839  16.465  0.00  0.00    +0.000 C 
ATOM     30  O   UNL     1       5.458   2.904  16.871  0.00  0.00    +0.000 OA
ATOM     31  N   UNL     1       4.969   4.407  15.213  0.00  0.00    +0.000 N 
ATOM     32  H   UNL     1       4.230   4.988  14.832  0.00  0.00    +0.000 HD
BRANCH  31  33
ATOM     33  C   UNL     1       6.019   3.951  14.315  0.00  0.00    +0.000 C 
ATOM     34  C   UNL     1       5.481   3.601  12.930  0.00  0.00    +0.000 C 
ATOM     35  C   UNL     1       6.696   3.651  12.014  0.00  0.00    +0.000 C 
ATOM     36  C   UNL     1       7.662   4.645  12.652  0.00  0.00    +0.000 C 
ATOM     37  C   UNL     1       7.068   5.023  14.006  0.00  0.00    +0.000 C 
ENDBRANCH  31  33
ENDBRANCH  22  29
ENDBRANCH   3  22
TORSDOF 8
ENDMDL
MODEL 3
REMARK VINA RESULT:      -7.8      1.817      4.194
REMARK  Name = 
REMARK  9 active torsions:
REMARK  status: ('A' for Active; 'I' for Inactive)
REMARK    1  A    between atoms: C_1  and  C_2
REMARK    2  A    between atoms: C_6  and  C_8
REMARK    3  A    between atoms: C_8  and  C_9
REMARK    4  A    between atoms: C_9  and  C_10
REMARK    5  A    between atoms: N_12  and  C_13
REMARK    6  A    between atoms: N_12  and  C_19
REMARK    7  A    between atoms: C_19  and  C_20
REMARK    8  A    between atoms: C_19  and  C_28
REMARK    9  A    between atoms: N_22  and  C_23
REMARK                            x       y       z     vdW  Elec       q    Type
REMARK                         _______ _______ _______ _____ _____    ______ ____
ROOT
ATOM      1  C   UNL     1       3.771   6.440  17.872  0.00  0.00    +0.000 C 
ATOM      2  O   UNL     1       4.207   7.546  17.548  0.00  0.00    +0.000 OA
ATOM      3  N   UNL     1       4.498   5.247  17.687  0.00  0.00    +0.000 N 
ENDROOT
BRANCH   3   4
ATOM      4  C   UNL     1       3.977   3.978  18.094  0.00  0.00    +0.000 A 
ATOM      5  C   UNL     1       3.080   3.275  17.286  0.00  0.00    +0.000 A 
ATOM      6  C   UNL     1       2.353   2.205  17.816  0.00  0.00    +0.000 A 
ATOM      7  C   UNL     1       2.552   1.794  19.132  0.00  0.00    +0.000 A 
ATOM      8  C   UNL     1       3.520   2.419  19.909  0.00  0.00    +0.000 A 
ATOM      9  C   UNL     1       4.247   3.486  19.382  0.00  0.00    +0.000 A 
ENDBRANCH   3   4
BRANCH   1  10
ATOM     10  C   UNL     1       2.369   6.331  18.495  0.00  0.00    +0.000 C 
BRANCH  10  11
ATOM     11  C   UNL     1       2.254   6.782  19.942  0.00  0.00    +0.000 C 
BRANCH  11  17
ATOM     12  C   UNL     1      -1.765  11.942  23.353  0.00  0.00    +0.000 C 
ATOM     13  C   UNL     1      -0.961  11.029  22.528  0.00  0.00    +0.000 A 
ATOM     14  C   UNL     1      -0.469   9.756  22.673  0.00  0.00    +0.000 A 
ATOM     15  C   UNL     1       0.221   9.501  21.466  0.00  0.00    +0.000 A 
ATOM     16  N   UNL     1       0.884   8.328  21.174  0.00  0.00    +0.000 N 
ATOM     17  C   UNL     1       1.537   8.107  19.978  0.00  0.00    +0.000 C 
ATOM     18  O   UNL     1       1.630   8.874  19.026  0.00  0.00    +0.000 OA
ATOM     19  N   UNL     1       0.151  10.563  20.654  0.00  0.00    +0.000 NA
ATOM     20  O   UNL     1      -0.580  11.515  21.319  0.00  0.00    +0.000 OA
ATOM     21  H   UNL     1       0.944   7.633  21.909  0.00  0.00    +0.000 HD
ENDBRANCH  11  17
ENDBRANCH  10  11
ENDBRANCH   1  10
BRANCH   3  22
ATOM     22  C   UNL     1       5.805   5.298  16.951  0.00  0.00    +0.000 C 
BRANCH  22  23
ATOM     23  C   UNL     1       6.877   6.254  17.501  0.00  0.00    +0.000 A 
ATOM     24  C   UNL     1       7.142   7.515  16.958  0.00  0.00    +0.000 A 
ATOM     25  C   UNL     1       8.016   8.374  17.617  0.00  0.00    +0.000 A 
ATOM     26  N   UNL     1       8.632   8.083  18.780  0.00  0.00    +0.000 NA
ATOM     27  C   UNL     1       8.411   6.852  19.279  0.00  0.00    +0.000 A 
ATOM     28  C   UNL     1       7.578   5.915  18.678  0.00  0.00    +0.000 A 
ENDBRANCH  22  23
BRANCH  22  29
ATOM     29  C   UNL     1       5.613   5.360  15.399  0.00  0.00    +0.000 C 
ATOM     30  O   UNL     1       5.241   6.373  14.799  0.00  0.00    +0.000 OA
ATOM     31  N   UNL     1       5.953   4.197  14.718  0.00  0.00    +0.000 N 
ATOM     32  H   UNL     1       6.480   3.492  15.224  0.00  0.00    +0.000 HD
BRANCH  31  33
ATOM     33  C   UNL     1       5.877   4.093  13.269  0.00  0.00    +0.000 C 
ATOM     34  C   UNL     1       6.838   3.044  12.715  0.00  0.00    +0.000 C 
ATOM     35  C   UNL     1       6.292   2.701  11.336  0.00  0.00    +0.000 C 
ATOM     36  C   UNL     1       4.789   2.957  11.405  0.00  0.00    +0.000 C 
ATOM     37  C   UNL     1       4.518   3.603  12.761  0.00  0.00    +0.000 C 
ENDBRANCH  31  33
ENDBRANCH  22  29
ENDBRANCH   3  22
TORSDOF 8
ENDMDL
MODEL 4
REMARK VINA RESULT:      -7.7      1.521      3.834
REMARK  Name = 
REMARK  9 active torsions:
REMARK  status: ('A' for Active; 'I' for Inactive)
REMARK    1  A    between atoms: C_1  and  C_2
REMARK    2  A    between atoms: C_6  and  C_8
REMARK    3  A    between atoms: C_8  and  C_9
REMARK    4  A    between atoms: C_9  and  C_10
REMARK    5  A    between atoms: N_12  and  C_13
REMARK    6  A    between atoms: N_12  and  C_19
REMARK    7  A    between atoms: C_19  and  C_20
REMARK    8  A    between atoms: C_19  and  C_28
REMARK    9  A    between atoms: N_22  and  C_23
REMARK                            x       y       z     vdW  Elec       q    Type
REMARK                         _______ _______ _______ _____ _____    ______ ____
ROOT
ATOM      1  C   UNL     1       3.194   7.357  17.723  0.00  0.00    +0.000 C 
ATOM      2  O   UNL     1       3.993   8.197  17.307  0.00  0.00    +0.000 OA
ATOM      3  N   UNL     1       3.521   5.993  17.867  0.00  0.00    +0.000 N 
ENDROOT
BRANCH   3   4
ATOM      4  C   UNL     1       2.580   5.043  18.375  0.00  0.00    +0.000 A 
ATOM      5  C   UNL     1       2.193   5.060  19.716  0.00  0.00    +0.000 A 
ATOM      6  C   UNL     1       1.523   3.961  20.265  0.00  0.00    +0.000 A 
ATOM      7  C   UNL     1       1.189   2.866  19.471  0.00  0.00    +0.000 A 
ATOM      8  C   UNL     1       1.475   2.888  18.111  0.00  0.00    +0.000 A 
ATOM      9  C   UNL     1       2.142   3.983  17.564  0.00  0.00    +0.000 A 
ENDBRANCH   3   4
BRANCH   1  10
ATOM     10  C   UNL     1       1.765   7.790  18.096  0.00  0.00    +0.000 C 
BRANCH  10  11
ATOM     11  C   UNL     1       1.545   9.288  18.228  0.00  0.00    +0.000 C 
BRANCH  11  17
ATOM     12  C   UNL     1      -1.370  13.647  23.416  0.00  0.00    +0.000 C 
ATOM     13  C   UNL     1      -0.762  12.654  22.518  0.00  0.00    +0.000 A 
ATOM     14  C   UNL     1      -0.405  12.623  21.194  0.00  0.00    +0.000 A 
ATOM     15  C   UNL     1       0.139  11.332  21.002  0.00  0.00    +0.000 A 
ATOM     16  N   UNL     1       0.627  10.857  19.803  0.00  0.00    +0.000 N 
ATOM     17  C   UNL     1       1.164   9.594  19.654  0.00  0.00    +0.000 C 
ATOM     18  O   UNL     1       1.291   8.731  20.515  0.00  0.00    +0.000 OA
ATOM     19  N   UNL     1       0.099  10.634  22.142  0.00  0.00    +0.000 NA
ATOM     20  O   UNL     1      -0.467  11.457  23.084  0.00  0.00    +0.000 OA
ATOM     21  H   UNL     1       0.515  11.449  18.988  0.00  0.00    +0.000 HD
ENDBRANCH  11  17
ENDBRANCH  10  11
ENDBRANCH   1  10
BRANCH   3  22
ATOM     22  C   UNL     1       4.855   5.510  17.377  0.00  0.00    +0.000 C 
BRANCH  22  23
ATOM     23  C   UNL     1       6.091   5.932  18.190  0.00  0.00    +0.000 A 
ATOM     24  C   UNL     1       6.509   5.283  19.355  0.00  0.00    +0.000 A 
ATOM     25  C   UNL     1       7.725   5.631  19.934  0.00  0.00    +0.000 A 
ATOM     26  N   UNL     1       8.564   6.562  19.434  0.00  0.00    +0.000 NA
ATOM     27  C   UNL     1       8.139   7.217  18.337  0.00  0.00    +0.000 A 
ATOM     28  C   UNL     1       6.928   6.960  17.705  0.00  0.00    +0.000 A 
ENDBRANCH  22  23
BRANCH  22  29
ATOM     29  C   UNL     1       5.013   5.665  15.827  0.00  0.00    +0.000 C 
ATOM     30  O   UNL     1       4.944   6.750  15.241  0.00  0.00    +0.000 OA
ATOM     31  N   UNL     1       5.301   4.489  15.146  0.00  0.00    +0.000 N 
ATOM     32  H   UNL     1       5.589   3.685  15.694  0.00  0.00    +0.000 HD
BRANCH  31  33
ATOM     33  C   UNL     1       5.522   4.456  13.708  0.00  0.00    +0.000 C 
ATOM     34  C   UNL     1       6.984   4.195  13.355  0.00  0.00    +0.000 C 
ATOM     35  C   UNL     1       6.956   3.691  11.918  0.00  0.00    +0.000 C 
ATOM     36  C   UNL     1       5.596   3.027  11.733  0.00  0.00    +0.000 C 
ATOM     37  C   UNL     1       4.797   3.305  13.003  0.00  0.00    +0.000 C 
ENDBRANCH  31  33
ENDBRANCH  22  29
ENDBRANCH   3  22
TORSDOF 8
ENDMDL
MODEL 5
REMARK VINA RESULT:      -7.7      2.054      4.329
REMARK  Name = 
REMARK  9 active torsions:
REMARK  status: ('A' for Active; 'I' for Inactive)
REMARK    1  A    between atoms: C_1  and  C_2
REMARK    2  A    between atoms: C_6  and  C_8
REMARK    3  A    between atoms: C_8  and  C_9
REMARK    4  A    between atoms: C_9  and  C_10
REMARK    5  A    between atoms: N_12  and  C_13
REMARK    6  A    between atoms: N_12  and  C_19
REMARK    7  A    between atoms: C_19  and  C_20
REMARK    8  A    between atoms: C_19  and  C_28
REMARK    9  A    between atoms: N_22  and  C_23
REMARK                            x       y       z     vdW  Elec       q    Type
REMARK                         _______ _______ _______ _____ _____    ______ ____
ROOT
ATOM      1  C   UNL     1       3.743   6.489  17.923  0.00  0.00    +0.000 C 
ATOM      2  O   UNL     1       4.184   7.596  17.610  0.00  0.00    +0.000 OA
ATOM      3  N   UNL     1       4.460   5.293  17.720  0.00  0.00    +0.000 N 
ENDROOT
BRANCH   3   4
ATOM      4  C   UNL     1       3.933   4.023  18.114  0.00  0.00    +0.000 A 
ATOM      5  C   UNL     1       3.015   3.344  17.310  0.00  0.00    +0.000 A 
ATOM      6  C   UNL     1       2.285   2.272  17.834  0.00  0.00    +0.000 A 
ATOM      7  C   UNL     1       2.503   1.837  19.140  0.00  0.00    +0.000 A 
ATOM      8  C   UNL     1       3.491   2.438  19.911  0.00  0.00    +0.000 A 
ATOM      9  C   UNL     1       4.219   3.506  19.389  0.00  0.00    +0.000 A 
ENDBRANCH   3   4
BRANCH   1  10
ATOM     10  C   UNL     1       2.343   6.382  18.552  0.00  0.00    +0.000 C 
BRANCH  10  11
ATOM     11  C   UNL     1       2.285   6.547  20.061  0.00  0.00    +0.000 C 
BRANCH  11  17
ATOM     12  C   UNL     1      -0.144  13.317  18.421  0.00  0.00    +0.000 C 
ATOM     13  C   UNL     1       0.241  11.983  18.905  0.00  0.00    +0.000 A 
ATOM     14  C   UNL     1       1.084  10.991  18.471  0.00  0.00    +0.000 A 
ATOM     15  C   UNL     1       0.965   9.971  19.442  0.00  0.00    +0.000 A 
ATOM     16  N   UNL     1       1.639   8.770  19.405  0.00  0.00    +0.000 N 
ATOM     17  C   UNL     1       1.510   7.800  20.379  0.00  0.00    +0.000 C 
ATOM     18  O   UNL     1       0.812   7.843  21.386  0.00  0.00    +0.000 OA
ATOM     19  N   UNL     1       0.095  10.331  20.393  0.00  0.00    +0.000 NA
ATOM     20  O   UNL     1      -0.358  11.582  20.054  0.00  0.00    +0.000 OA
ATOM     21  H   UNL     1       2.199   8.576  18.582  0.00  0.00    +0.000 HD
ENDBRANCH  11  17
ENDBRANCH  10  11
ENDBRANCH   1  10
BRANCH   3  22
ATOM     22  C   UNL     1       5.764   5.345  16.978  0.00  0.00    +0.000 C 
BRANCH  22  23
ATOM     23  C   UNL     1       6.848   6.281  17.538  0.00  0.00    +0.000 A 
ATOM     24  C   UNL     1       7.112   7.555  17.025  0.00  0.00    +0.000 A 
ATOM     25  C   UNL     1       7.998   8.393  17.694  0.00  0.00    +0.000 A 
ATOM     26  N   UNL     1       8.629   8.068  18.841  0.00  0.00    +0.000 NA
ATOM     27  C   UNL     1       8.409   6.825  19.310  0.00  0.00    +0.000 A 
ATOM     28  C   UNL     1       7.563   5.908  18.697  0.00  0.00    +0.000 A 
ENDBRANCH  22  23
BRANCH  22  29
ATOM     29  C   UNL     1       5.565   5.434  15.428  0.00  0.00    +0.000 C 
ATOM     30  O   UNL     1       5.232   6.470  14.843  0.00  0.00    +0.000 OA
ATOM     31  N   UNL     1       5.851   4.267  14.731  0.00  0.00    +0.000 N 
ATOM     32  H   UNL     1       6.352   3.534  15.224  0.00  0.00    +0.000 HD
BRANCH  31  33
ATOM     33  C   UNL     1       5.762   4.184  13.281  0.00  0.00    +0.000 C 
ATOM     34  C   UNL     1       7.012   3.565  12.661  0.00  0.00    +0.000 C 
ATOM     35  C   UNL     1       6.571   3.089  11.283  0.00  0.00    +0.000 C 
ATOM     36  C   UNL     1       5.080   2.788  11.401  0.00  0.00    +0.000 C 
ATOM     37  C   UNL     1       4.648   3.255  12.789  0.00  0.00    +0.000 C 
ENDBRANCH  31  33
ENDBRANCH  22  29
ENDBRANCH   3  22
TORSDOF 8
ENDMDL
MODEL 6
REMARK VINA RESULT:      -7.6      1.974      2.385
REMARK  Name = 
REMARK  9 active torsions:
REMARK  status: ('A' for Active; 'I' for Inactive)
REMARK    1  A    between atoms: C_1  and  C_2
REMARK    2  A    between atoms: C_6  and  C_8
REMARK    3  A    between atoms: C_8  and  C_9
REMARK    4  A    between atoms: C_9  and  C_10
REMARK    5  A    between atoms: N_12  and  C_13
REMARK    6  A    between atoms: N_12  and  C_19
REMARK    7  A    between atoms: C_19  and  C_20
REMARK    8  A    between atoms: C_19  and  C_28
REMARK    9  A    between atoms: N_22  and  C_23
REMARK                            x       y       z     vdW  Elec       q    Type
REMARK                         _______ _______ _______ _____ _____    ______ ____
ROOT
ATOM      1  C   UNL     1       2.474   6.796  17.794  0.00  0.00    +0.000 C 
ATOM      2  O   UNL     1       1.320   6.456  17.529  0.00  0.00    +0.000 OA
ATOM      3  N   UNL     1       3.577   5.928  17.664  0.00  0.00    +0.000 N 
ENDROOT
BRANCH   3   4
ATOM      4  C   UNL     1       4.910   6.356  17.957  0.00  0.00    +0.000 A 
ATOM      5  C   UNL     1       5.588   7.234  17.107  0.00  0.00    +0.000 A 
ATOM      6  C   UNL     1       6.970   7.402  17.234  0.00  0.00    +0.000 A 
ATOM      7  C   UNL     1       7.676   6.742  18.237  0.00  0.00    +0.000 A 
ATOM      8  C   UNL     1       6.993   5.951  19.154  0.00  0.00    +0.000 A 
ATOM      9  C   UNL     1       5.615   5.783  19.029  0.00  0.00    +0.000 A 
ENDBRANCH   3   4
BRANCH   1  10
ATOM     10  C   UNL     1       2.746   8.222  18.304  0.00  0.00    +0.000 C 
BRANCH  10  11
ATOM     11  C   UNL     1       2.086   8.585  19.623  0.00  0.00    +0.000 C 
BRANCH  11  17
ATOM     12  C   UNL     1      -3.787  11.287  16.070  0.00  0.00    +0.000 C 
ATOM     13  C   UNL     1      -2.622  10.904  16.880  0.00  0.00    +0.000 A 
ATOM     14  C   UNL     1      -1.727   9.864  16.876  0.00  0.00    +0.000 A 
ATOM     15  C   UNL     1      -0.851  10.142  17.950  0.00  0.00    +0.000 A 
ATOM     16  N   UNL     1       0.212   9.348  18.321  0.00  0.00    +0.000 N 
ATOM     17  C   UNL     1       1.057   9.657  19.368  0.00  0.00    +0.000 C 
ATOM     18  O   UNL     1       1.007  10.637  20.102  0.00  0.00    +0.000 OA
ATOM     19  N   UNL     1      -1.209  11.276  18.563  0.00  0.00    +0.000 NA
ATOM     20  O   UNL     1      -2.315  11.746  17.899  0.00  0.00    +0.000 OA
ATOM     21  H   UNL     1       0.323   8.464  17.837  0.00  0.00    +0.000 HD
ENDBRANCH  11  17
ENDBRANCH  10  11
ENDBRANCH   1  10
BRANCH   3  22
ATOM     22  C   UNL     1       3.333   4.490  17.310  0.00  0.00    +0.000 C 
BRANCH  22  23
ATOM     23  C   UNL     1       2.753   3.589  18.413  0.00  0.00    +0.000 A 
ATOM     24  C   UNL     1       3.322   3.458  19.684  0.00  0.00    +0.000 A 
ATOM     25  C   UNL     1       2.642   2.748  20.668  0.00  0.00    +0.000 A 
ATOM     26  N   UNL     1       1.435   2.172  20.492  0.00  0.00    +0.000 NA
ATOM     27  C   UNL     1       0.910   2.261  19.255  0.00  0.00    +0.000 A 
ATOM     28  C   UNL     1       1.526   2.925  18.200  0.00  0.00    +0.000 A 
ENDBRANCH  22  23
BRANCH  22  29
ATOM     29  C   UNL     1       4.526   3.860  16.516  0.00  0.00    +0.000 C 
ATOM     30  O   UNL     1       5.177   2.892  16.921  0.00  0.00    +0.000 OA
ATOM     31  N   UNL     1       4.771   4.432  15.273  0.00  0.00    +0.000 N 
ATOM     32  H   UNL     1       4.062   5.047  14.889  0.00  0.00    +0.000 HD
BRANCH  31  33
ATOM     33  C   UNL     1       5.814   3.943  14.384  0.00  0.00    +0.000 C 
ATOM     34  C   UNL     1       5.286   3.653  12.981  0.00  0.00    +0.000 C 
ATOM     35  C   UNL     1       6.520   3.661  12.089  0.00  0.00    +0.000 C 
ATOM     36  C   UNL     1       7.523   4.590  12.768  0.00  0.00    +0.000 C 
ATOM     37  C   UNL     1       6.923   4.966  14.120  0.00  0.00    +0.000 C 
ENDBRANCH  31  33
ENDBRANCH  22  29
ENDBRANCH   3  22
TORSDOF 8
ENDMDL
MODEL 7
REMARK VINA RESULT:      -7.6      3.963     10.501
REMARK  Name = 
REMARK  9 active torsions:
REMARK  status: ('A' for Active; 'I' for Inactive)
REMARK    1  A    between atoms: C_1  and  C_2
REMARK    2  A    between atoms: C_6  and  C_8
REMARK    3  A    between atoms: C_8  and  C_9
REMARK    4  A    between atoms: C_9  and  C_10
REMARK    5  A    between atoms: N_12  and  C_13
REMARK    6  A    between atoms: N_12  and  C_19
REMARK    7  A    between atoms: C_19  and  C_20
REMARK    8  A    between atoms: C_19  and  C_28
REMARK    9  A    between atoms: N_22  and  C_23
REMARK                            x       y       z     vdW  Elec       q    Type
REMARK                         _______ _______ _______ _____ _____    ______ ____
ROOT
ATOM      1  C   UNL     1       0.185  10.174  19.774  0.00  0.00    +0.000 C 
ATOM      2  O   UNL     1      -0.621   9.256  19.933  0.00  0.00    +0.000 OA
ATOM      3  N   UNL     1      -0.182  11.534  19.827  0.00  0.00    +0.000 N 
ENDROOT
BRANCH   3   4
ATOM      4  C   UNL     1       0.779  12.580  19.661  0.00  0.00    +0.000 A 
ATOM      5  C   UNL     1       1.072  13.095  18.396  0.00  0.00    +0.000 A 
ATOM      6  C   UNL     1       2.210  13.886  18.210  0.00  0.00    +0.000 A 
ATOM      7  C   UNL     1       3.031  14.212  19.287  0.00  0.00    +0.000 A 
ATOM      8  C   UNL     1       2.688  13.793  20.567  0.00  0.00    +0.000 A 
ATOM      9  C   UNL     1       1.552  13.005  20.754  0.00  0.00    +0.000 A 
ENDBRANCH   3   4
BRANCH   1  10
ATOM     10  C   UNL     1       1.662   9.846  19.491  0.00  0.00    +0.000 C 
BRANCH  10  11
ATOM     11  C   UNL     1       1.955   9.273  18.114  0.00  0.00    +0.000 C 
BRANCH  11  17
ATOM     12  C   UNL     1       2.439   2.738  21.501  0.00  0.00    +0.000 C 
ATOM     13  C   UNL     1       2.472   3.976  20.709  0.00  0.00    +0.000 A 
ATOM     14  C   UNL     1       1.881   5.211  20.799  0.00  0.00    +0.000 A 
ATOM     15  C   UNL     1       2.374   5.925  19.684  0.00  0.00    +0.000 A 
ATOM     16  N   UNL     1       2.037   7.225  19.372  0.00  0.00    +0.000 N 
ATOM     17  C   UNL     1       2.548   7.898  18.281  0.00  0.00    +0.000 C 
ATOM     18  O   UNL     1       3.346   7.476  17.452  0.00  0.00    +0.000 OA
ATOM     19  N   UNL     1       3.202   5.157  18.966  0.00  0.00    +0.000 NA
ATOM     20  O   UNL     1       3.258   3.942  19.603  0.00  0.00    +0.000 OA
ATOM     21  H   UNL     1       1.325   7.669  19.942  0.00  0.00    +0.000 HD
ENDBRANCH  11  17
ENDBRANCH  10  11
ENDBRANCH   1  10
BRANCH   3  22
ATOM     22  C   UNL     1      -1.635  11.889  19.955  0.00  0.00    +0.000 C 
BRANCH  22  23
ATOM     23  C   UNL     1      -2.497  11.770  18.687  0.00  0.00    +0.000 A 
ATOM     24  C   UNL     1      -1.985  11.427  17.432  0.00  0.00    +0.000 A 
ATOM     25  C   UNL     1      -2.860  11.186  16.378  0.00  0.00    +0.000 A 
ATOM     26  N   UNL     1      -4.204  11.245  16.480  0.00  0.00    +0.000 NA
ATOM     27  C   UNL     1      -4.694  11.620  17.677  0.00  0.00    +0.000 A 
ATOM     28  C   UNL     1      -3.899  11.908  18.780  0.00  0.00    +0.000 A 
ENDBRANCH  22  23
BRANCH  22  29
ATOM     29  C   UNL     1      -1.856  13.207  20.771  0.00  0.00    +0.000 C 
ATOM     30  O   UNL     1      -1.892  14.329  20.255  0.00  0.00    +0.000 OA
ATOM     31  N   UNL     1      -2.075  13.027  22.131  0.00  0.00    +0.000 N 
ATOM     32  H   UNL     1      -2.280  12.087  22.455  0.00  0.00    +0.000 HD
BRANCH  31  33
ATOM     33  C   UNL     1      -2.341  14.139  23.030  0.00  0.00    +0.000 C 
ATOM     34  C   UNL     1      -3.274  13.745  24.174  0.00  0.00    +0.000 C 
ATOM     35  C   UNL     1      -3.040  14.798  25.249  0.00  0.00    +0.000 C 
ATOM     36  C   UNL     1      -1.608  15.288  25.054  0.00  0.00    +0.000 C 
ATOM     37  C   UNL     1      -1.097  14.639  23.770  0.00  0.00    +0.000 C 
ENDBRANCH  31  33
ENDBRANCH  22  29
ENDBRANCH   3  22
TORSDOF 8
ENDMDL
MODEL 8
REMARK VINA RESULT:      -7.6      3.361     11.025
REMARK  Name = 
REMARK  9 active torsions:
REMARK  status: ('A' for Active; 'I' for Inactive)
REMARK    1  A    between atoms: C_1  and  C_2
REMARK    2  A    between atoms: C_6  and  C_8
REMARK    3  A    between atoms: C_8  and  C_9
REMARK    4  A    between atoms: C_9  and  C_10
REMARK    5  A    between atoms: N_12  and  C_13
REMARK    6  A    between atoms: N_12  and  C_19
REMARK    7  A    between atoms: C_19  and  C_20
REMARK    8  A    between atoms: C_19  and  C_28
REMARK    9  A    between atoms: N_22  and  C_23
REMARK                            x       y       z     vdW  Elec       q    Type
REMARK                         _______ _______ _______ _____ _____    ______ ____
ROOT
ATOM      1  C   UNL     1      -0.631  10.296  22.473  0.00  0.00    +0.000 C 
ATOM      2  O   UNL     1      -0.754  10.100  23.683  0.00  0.00    +0.000 OA
ATOM      3  N   UNL     1      -0.913  11.535  21.865  0.00  0.00    +0.000 N 
ENDROOT
BRANCH   3   4
ATOM      4  C   UNL     1      -0.739  11.741  20.460  0.00  0.00    +0.000 A 
ATOM      5  C   UNL     1       0.471  12.212  19.945  0.00  0.00    +0.000 A 
ATOM      6  C   UNL     1       0.533  12.694  18.634  0.00  0.00    +0.000 A 
ATOM      7  C   UNL     1      -0.592  12.660  17.812  0.00  0.00    +0.000 A 
ATOM      8  C   UNL     1      -1.772  12.094  18.281  0.00  0.00    +0.000 A 
ATOM      9  C   UNL     1      -1.834  11.613  19.589  0.00  0.00    +0.000 A 
ENDBRANCH   3   4
BRANCH   1  10
ATOM     10  C   UNL     1      -0.165   9.145  21.563  0.00  0.00    +0.000 C 
BRANCH  10  11
ATOM     11  C   UNL     1       1.297   8.752  21.698  0.00  0.00    +0.000 C 
BRANCH  11  17
ATOM     12  C   UNL     1       3.810   2.949  17.899  0.00  0.00    +0.000 C 
ATOM     13  C   UNL     1       3.301   4.194  18.493  0.00  0.00    +0.000 A 
ATOM     14  C   UNL     1       3.053   4.640  19.767  0.00  0.00    +0.000 A 
ATOM     15  C   UNL     1       2.571   5.958  19.595  0.00  0.00    +0.000 A 
ATOM     16  N   UNL     1       2.188   6.793  20.623  0.00  0.00    +0.000 N 
ATOM     17  C   UNL     1       1.734   8.081  20.421  0.00  0.00    +0.000 C 
ATOM     18  O   UNL     1       1.605   8.667  19.352  0.00  0.00    +0.000 OA
ATOM     19  N   UNL     1       2.527   6.274  18.296  0.00  0.00    +0.000 NA
ATOM     20  O   UNL     1       2.977   5.173  17.611  0.00  0.00    +0.000 OA
ATOM     21  H   UNL     1       2.178   6.404  21.559  0.00  0.00    +0.000 HD
ENDBRANCH  11  17
ENDBRANCH  10  11
ENDBRANCH   1  10
BRANCH   3  22
ATOM     22  C   UNL     1      -1.508  12.634  22.696  0.00  0.00    +0.000 C 
BRANCH  22  23
ATOM     23  C   UNL     1      -3.020  12.562  22.967  0.00  0.00    +0.000 A 
ATOM     24  C   UNL     1      -3.574  12.469  24.247  0.00  0.00    +0.000 A 
ATOM     25  C   UNL     1      -4.953  12.571  24.405  0.00  0.00    +0.000 A 
ATOM     26  N   UNL     1      -5.820  12.775  23.392  0.00  0.00    +0.000 NA
ATOM     27  C   UNL     1      -5.289  12.819  22.155  0.00  0.00    +0.000 A 
ATOM     28  C   UNL     1      -3.929  12.699  21.895  0.00  0.00    +0.000 A 
ENDBRANCH  22  23
BRANCH  22  29
ATOM     29  C   UNL     1      -0.990  14.049  22.274  0.00  0.00    +0.000 C 
ATOM     30  O   UNL     1       0.085  14.522  22.656  0.00  0.00    +0.000 OA
ATOM     31  N   UNL     1      -1.804  14.729  21.376  0.00  0.00    +0.000 N 
ATOM     32  H   UNL     1      -2.535  14.202  20.910  0.00  0.00    +0.000 HD
BRANCH  31  33
ATOM     33  C   UNL     1      -1.453  16.038  20.845  0.00  0.00    +0.000 C 
ATOM     34  C   UNL     1      -0.716  15.940  19.511  0.00  0.00    +0.000 C 
ATOM     35  C   UNL     1      -0.884  17.312  18.870  0.00  0.00    +0.000 C 
ATOM     36  C   UNL     1      -2.191  17.875  19.420  0.00  0.00    +0.000 C 
ATOM     37  C   UNL     1      -2.669  16.901  20.493  0.00  0.00    +0.000 C 
ENDBRANCH  31  33
ENDBRANCH  22  29
ENDBRANCH   3  22
TORSDOF 8
ENDMDL
MODEL 9
REMARK VINA RESULT:      -7.6      3.948     10.006
REMARK  Name = 
REMARK  9 active torsions:
REMARK  status: ('A' for Active; 'I' for Inactive)
REMARK    1  A    between atoms: C_1  and  C_2
REMARK    2  A    between atoms: C_6  and  C_8
REMARK    3  A    between atoms: C_8  and  C_9
REMARK    4  A    between atoms: C_9  and  C_10
REMARK    5  A    between atoms: N_12  and  C_13
REMARK    6  A    between atoms: N_12  and  C_19
REMARK    7  A    between atoms: C_19  and  C_20
REMARK    8  A    between atoms: C_19  and  C_28
REMARK    9  A    between atoms: N_22  and  C_23
REMARK                            x       y       z     vdW  Elec       q    Type
REMARK                         _______ _______ _______ _____ _____    ______ ____
ROOT
ATOM      1  C   UNL     1       0.653  10.692  19.492  0.00  0.00    +0.000 C 
ATOM      2  O   UNL     1       1.580  10.971  20.255  0.00  0.00    +0.000 OA
ATOM      3  N   UNL     1      -0.519  11.469  19.395  0.00  0.00    +0.000 N 
ENDROOT
BRANCH   3   4
ATOM      4  C   UNL     1      -1.570  11.135  18.484  0.00  0.00    +0.000 A 
ATOM      5  C   UNL     1      -2.377  10.014  18.695  0.00  0.00    +0.000 A 
ATOM      6  C   UNL     1      -3.184   9.529  17.661  0.00  0.00    +0.000 A 
ATOM      7  C   UNL     1      -3.233  10.184  16.433  0.00  0.00    +0.000 A 
ATOM      8  C   UNL     1      -2.517  11.361  16.250  0.00  0.00    +0.000 A 
ATOM      9  C   UNL     1      -1.712  11.846  17.281  0.00  0.00    +0.000 A 
ENDBRANCH   3   4
BRANCH   1  10
ATOM     10  C   UNL     1       0.752   9.437  18.607  0.00  0.00    +0.000 C 
BRANCH  10  11
ATOM     11  C   UNL     1       2.036   9.295  17.808  0.00  0.00    +0.000 C 
BRANCH  11  17
ATOM     12  C   UNL     1       2.325   2.977  21.604  0.00  0.00    +0.000 C 
ATOM     13  C   UNL     1       2.420   4.176  20.759  0.00  0.00    +0.000 A 
ATOM     14  C   UNL     1       1.742   5.366  20.670  0.00  0.00    +0.000 A 
ATOM     15  C   UNL     1       2.382   6.063  19.621  0.00  0.00    +0.000 A 
ATOM     16  N   UNL     1       2.022   7.318  19.178  0.00  0.00    +0.000 N 
ATOM     17  C   UNL     1       2.678   7.978  18.159  0.00  0.00    +0.000 C 
ATOM     18  O   UNL     1       3.641   7.580  17.512  0.00  0.00    +0.000 OA
ATOM     19  N   UNL     1       3.377   5.329  19.109  0.00  0.00    +0.000 NA
ATOM     20  O   UNL     1       3.395   4.152  19.815  0.00  0.00    +0.000 OA
ATOM     21  H   UNL     1       1.190   7.733  19.584  0.00  0.00    +0.000 HD
ENDBRANCH  11  17
ENDBRANCH  10  11
ENDBRANCH   1  10
BRANCH   3  22
ATOM     22  C   UNL     1      -0.713  12.614  20.345  0.00  0.00    +0.000 C 
BRANCH  22  23
ATOM     23  C   UNL     1      -2.062  12.691  21.079  0.00  0.00    +0.000 A 
ATOM     24  C   UNL     1      -3.284  12.904  20.433  0.00  0.00    +0.000 A 
ATOM     25  C   UNL     1      -4.468  12.798  21.156  0.00  0.00    +0.000 A 
ATOM     26  N   UNL     1      -4.531  12.482  22.465  0.00  0.00    +0.000 NA
ATOM     27  C   UNL     1      -3.352  12.322  23.096  0.00  0.00    +0.000 A 
ATOM     28  C   UNL     1      -2.118  12.435  22.466  0.00  0.00    +0.000 A 
ENDBRANCH  22  23
BRANCH  22  29
ATOM     29  C   UNL     1      -0.219  13.975  19.748  0.00  0.00    +0.000 C 
ATOM     30  O   UNL     1      -0.958  14.948  19.571  0.00  0.00    +0.000 OA
ATOM     31  N   UNL     1       1.142  14.039  19.479  0.00  0.00    +0.000 N 
ATOM     32  H   UNL     1       1.734  13.312  19.868  0.00  0.00    +0.000 HD
BRANCH  31  33
ATOM     33  C   UNL     1       1.778  15.241  18.961  0.00  0.00    +0.000 C 
ATOM     34  C   UNL     1       2.467  16.047  20.060  0.00  0.00    +0.000 C 
ATOM     35  C   UNL     1       3.470  16.929  19.328  0.00  0.00    +0.000 C 
ATOM     36  C   UNL     1       3.841  16.175  18.054  0.00  0.00    +0.000 C 
ATOM     37  C   UNL     1       2.924  14.956  17.986  0.00  0.00    +0.000 C 
ENDBRANCH  31  33
ENDBRANCH  22  29
ENDBRANCH   3  22
TORSDOF 8
ENDMDL
