MODEL 1
REMARK VINA RESULT:      -7.7      0.000      0.000
REMARK  Name = 
REMARK  6 active torsions:
REMARK  status: ('A' for Active; 'I' for Inactive)
REMARK    1  A    between atoms: C_1  and  C_2
REMARK    2  A    between atoms: C_2  and  C_3
REMARK    3  A    between atoms: C_2  and  N_9
REMARK    4  A    between atoms: C_3  and  C_4
REMARK    5  A    between atoms: N_9  and  S_10
REMARK    6  A    between atoms: S_10  and  C_13
REMARK                            x       y       z     vdW  Elec       q    Type
REMARK                         _______ _______ _______ _____ _____    ______ ____
ROOT
ATOM      1  S   UNL     1       4.748   4.283  18.409  0.00  0.00    +0.000 S 
ATOM      2  O   UNL     1       5.762   3.797  19.321  0.00  0.00    +0.000 OA
ATOM      3  O   UNL     1       3.560   3.507  18.129  0.00  0.00    +0.000 OA
ENDROOT
BRANCH   1   4
ATOM      4  C   UNL     1       5.539   4.639  16.861  0.00  0.00    +0.000 A 
ATOM      5  C   UNL     1       6.714   5.392  16.836  0.00  0.00    +0.000 A 
ATOM      6  C   UNL     1       7.414   5.518  15.635  0.00  0.00    +0.000 A 
ATOM      7  C   UNL     1       6.954   4.888  14.467  0.00  0.00    +0.000 A 
ATOM      8  C   UNL     1       7.674   4.965  13.266  0.00  0.00    +0.000 A 
ATOM      9  C   UNL     1       7.219   4.309  12.117  0.00  0.00    +0.000 A 
ATOM     10  C   UNL     1       6.039   3.572  12.160  0.00  0.00    +0.000 A 
ATOM     11  C   UNL     1       5.305   3.492  13.344  0.00  0.00    +0.000 A 
ATOM     12  C   UNL     1       5.750   4.143  14.503  0.00  0.00    +0.000 A 
ATOM     13  C   UNL     1       5.036   4.043  15.703  0.00  0.00    +0.000 A 
ENDBRANCH   1   4
BRANCH   1  14
ATOM     14  N   UNL     1       4.252   5.819  18.955  0.00  0.00    +0.000 NA
ATOM     15  H   UNL     1       4.420   5.828  19.976  0.00  0.00    +0.000 HD
BRANCH  14  17
ATOM     16  C   UNL     1       2.812   7.619  18.097  0.00  0.00    +0.000 C 
ATOM     17  C   UNL     1       2.824   6.231  18.744  0.00  0.00    +0.000 C 
BRANCH  17  18
ATOM     18  C   UNL     1       1.970   6.176  20.020  0.00  0.00    +0.000 C 
BRANCH  18  19
ATOM     19  C   UNL     1       1.719   4.811  20.564  0.00  0.00    +0.000 A 
ATOM     20  C   UNL     1       0.732   3.923  20.197  0.00  0.00    +0.000 A 
ATOM     21  N   UNL     1       0.937   2.815  20.971  0.00  0.00    +0.000 N 
ATOM     22  C   UNL     1       2.028   3.057  21.754  0.00  0.00    +0.000 A 
ATOM     23  N   UNL     1       2.516   4.257  21.545  0.00  0.00    +0.000 NA
ATOM     24  H   UNL     1       0.390   1.964  20.961  0.00  0.00    +0.000 HD
ENDBRANCH  18  19
ENDBRANCH  17  18
ENDBRANCH  14  17
ENDBRANCH   1  14
TORSDOF 5
ENDMDL
MODEL 2
REMARK VINA RESULT:      -7.4      3.184      7.721
REMARK  Name = 
REMARK  6 active torsions:
REMARK  status: ('A' for Active; 'I' for Inactive)
REMARK    1  A    between atoms: C_1  and  C_2
REMARK    2  A    between atoms: C_2  and  C_3
REMARK    3  A    between atoms: C_2  and  N_9
REMARK    4  A    between atoms: C_3  and  C_4
REMARK    5  A    between atoms: N_9  and  S_10
REMARK    6  A    between atoms: S_10  and  C_13
REMARK                            x       y       z     vdW  Elec       q    Type
REMARK                         _______ _______ _______ _____ _____    ______ ____
ROOT
ATOM      1  S   UNL     1       2.799   6.562  18.545  0.00  0.00    +0.000 S 
ATOM      2  O   UNL     1       4.021   6.998  17.904  0.00  0.00    +0.000 OA
ATOM      3  O   UNL     1       1.803   5.804  17.821  0.00  0.00    +0.000 OA
ENDROOT
BRANCH   1   4
ATOM      4  C   UNL     1       2.001   7.997  19.220  0.00  0.00    +0.000 A 
ATOM      5  C   UNL     1       1.622   9.044  18.378  0.00  0.00    +0.000 A 
ATOM      6  C   UNL     1       0.847  10.083  18.895  0.00  0.00    +0.000 A 
ATOM      7  C   UNL     1       0.440  10.075  20.240  0.00  0.00    +0.000 A 
ATOM      8  C   UNL     1      -0.380  11.087  20.759  0.00  0.00    +0.000 A 
ATOM      9  C   UNL     1      -0.801  11.051  22.092  0.00  0.00    +0.000 A 
ATOM     10  C   UNL     1      -0.402  10.004  22.919  0.00  0.00    +0.000 A 
ATOM     11  C   UNL     1       0.422   8.994  22.422  0.00  0.00    +0.000 A 
ATOM     12  C   UNL     1       0.850   9.016  21.087  0.00  0.00    +0.000 A 
ATOM     13  C   UNL     1       1.651   7.990  20.572  0.00  0.00    +0.000 A 
ENDBRANCH   1   4
BRANCH   1  14
ATOM     14  N   UNL     1       3.230   5.669  19.931  0.00  0.00    +0.000 NA
ATOM     15  H   UNL     1       4.265   5.662  19.956  0.00  0.00    +0.000 HD
BRANCH  14  17
ATOM     16  C   UNL     1       2.192   4.019  21.432  0.00  0.00    +0.000 C 
ATOM     17  C   UNL     1       2.781   4.241  20.036  0.00  0.00    +0.000 C 
BRANCH  17  18
ATOM     18  C   UNL     1       3.881   3.221  19.699  0.00  0.00    +0.000 C 
BRANCH  18  19
ATOM     19  C   UNL     1       4.879   3.667  18.686  0.00  0.00    +0.000 A 
ATOM     20  C   UNL     1       4.817   3.522  17.317  0.00  0.00    +0.000 A 
ATOM     21  N   UNL     1       5.956   4.107  16.840  0.00  0.00    +0.000 N 
ATOM     22  C   UNL     1       6.650   4.592  17.911  0.00  0.00    +0.000 A 
ATOM     23  N   UNL     1       6.035   4.332  19.041  0.00  0.00    +0.000 NA
ATOM     24  H   UNL     1       6.235   4.181  15.870  0.00  0.00    +0.000 HD
ENDBRANCH  18  19
ENDBRANCH  17  18
ENDBRANCH  14  17
ENDBRANCH   1  14
TORSDOF 5
ENDMDL
MODEL 3
REMARK VINA RESULT:      -7.4      2.838      7.659
REMARK  Name = 
REMARK  6 active torsions:
REMARK  status: ('A' for Active; 'I' for Inactive)
REMARK    1  A    between atoms: C_1  and  C_2
REMARK    2  A    between atoms: C_2  and  C_3
REMARK    3  A    between atoms: C_2  and  N_9
REMARK    4  A    between atoms: C_3  and  C_4
REMARK    5  A    between atoms: N_9  and  S_10
REMARK    6  A    between atoms: S_10  and  C_13
REMARK                            x       y       z     vdW  Elec       q    Type
REMARK                         _______ _______ _______ _____ _____    ______ ____
ROOT
ATOM      1  S   UNL     1       3.385   5.548  18.365  0.00  0.00    +0.000 S 
ATOM      2  O   UNL     1       2.387   4.771  17.662  0.00  0.00    +0.000 OA
ATOM      3  O   UNL     1       4.018   5.044  19.564  0.00  0.00    +0.000 OA
ENDROOT
BRANCH   1   4
ATOM      4  C   UNL     1       2.669   7.124  18.753  0.00  0.00    +0.000 A 
ATOM      5  C   UNL     1       2.616   8.124  17.780  0.00  0.00    +0.000 A 
ATOM      6  C   UNL     1       1.899   9.292  18.045  0.00  0.00    +0.000 A 
ATOM      7  C   UNL     1       1.228   9.460  19.268  0.00  0.00    +0.000 A 
ATOM      8  C   UNL     1       0.464  10.607  19.528  0.00  0.00    +0.000 A 
ATOM      9  C   UNL     1      -0.222  10.749  20.738  0.00  0.00    +0.000 A 
ATOM     10  C   UNL     1      -0.146   9.746  21.701  0.00  0.00    +0.000 A 
ATOM     11  C   UNL     1       0.617   8.603  21.463  0.00  0.00    +0.000 A 
ATOM     12  C   UNL     1       1.308   8.446  20.254  0.00  0.00    +0.000 A 
ATOM     13  C   UNL     1       2.051   7.289  19.995  0.00  0.00    +0.000 A 
ENDBRANCH   1   4
BRANCH   1  14
ATOM     14  N   UNL     1       4.615   5.943  17.253  0.00  0.00    +0.000 NA
ATOM     15  H   UNL     1       4.598   5.199  16.532  0.00  0.00    +0.000 HD
BRANCH  14  17
ATOM     16  C   UNL     1       6.582   7.416  17.364  0.00  0.00    +0.000 C 
ATOM     17  C   UNL     1       6.029   6.040  17.746  0.00  0.00    +0.000 C 
BRANCH  17  18
ATOM     18  C   UNL     1       6.932   4.894  17.263  0.00  0.00    +0.000 C 
BRANCH  18  19
ATOM     19  C   UNL     1       6.845   4.581  15.808  0.00  0.00    +0.000 A 
ATOM     20  C   UNL     1       6.088   3.606  15.196  0.00  0.00    +0.000 A 
ATOM     21  N   UNL     1       6.342   3.736  13.860  0.00  0.00    +0.000 N 
ATOM     22  C   UNL     1       7.215   4.774  13.706  0.00  0.00    +0.000 A 
ATOM     23  N   UNL     1       7.550   5.298  14.863  0.00  0.00    +0.000 NA
ATOM     24  H   UNL     1       5.950   3.175  13.115  0.00  0.00    +0.000 HD
ENDBRANCH  18  19
ENDBRANCH  17  18
ENDBRANCH  14  17
ENDBRANCH   1  14
TORSDOF 5
ENDMDL
MODEL 4
REMARK VINA RESULT:      -7.3      0.943      1.042
REMARK  Name = 
REMARK  6 active torsions:
REMARK  status: ('A' for Active; 'I' for Inactive)
REMARK    1  A    between atoms: C_1  and  C_2
REMARK    2  A    between atoms: C_2  and  C_3
REMARK    3  A    between atoms: C_2  and  N_9
REMARK    4  A    between atoms: C_3  and  C_4
REMARK    5  A    between atoms: N_9  and  S_10
REMARK    6  A    between atoms: S_10  and  C_13
REMARK                            x       y       z     vdW  Elec       q    Type
REMARK                         _______ _______ _______ _____ _____    ______ ____
ROOT
ATOM      1  S   UNL     1       5.384   4.442  18.863  0.00  0.00    +0.000 S 
ATOM      2  O   UNL     1       6.467   4.798  19.753  0.00  0.00    +0.000 OA
ATOM      3  O   UNL     1       4.805   3.117  18.882  0.00  0.00    +0.000 OA
ENDROOT
BRANCH   1   4
ATOM      4  C   UNL     1       5.916   4.776  17.203  0.00  0.00    +0.000 A 
ATOM      5  C   UNL     1       6.969   5.663  16.974  0.00  0.00    +0.000 A 
ATOM      6  C   UNL     1       7.486   5.784  15.683  0.00  0.00    +0.000 A 
ATOM      7  C   UNL     1       6.967   5.017  14.627  0.00  0.00    +0.000 A 
ATOM      8  C   UNL     1       7.510   5.092  13.337  0.00  0.00    +0.000 A 
ATOM      9  C   UNL     1       7.001   4.302  12.301  0.00  0.00    +0.000 A 
ATOM     10  C   UNL     1       5.943   3.432  12.547  0.00  0.00    +0.000 A 
ATOM     11  C   UNL     1       5.384   3.351  13.822  0.00  0.00    +0.000 A 
ATOM     12  C   UNL     1       5.885   4.136  14.871  0.00  0.00    +0.000 A 
ATOM     13  C   UNL     1       5.350   4.038  16.160  0.00  0.00    +0.000 A 
ENDBRANCH   1   4
BRANCH   1  14
ATOM     14  N   UNL     1       4.124   5.565  19.100  0.00  0.00    +0.000 NA
ATOM     15  H   UNL     1       3.507   5.153  19.822  0.00  0.00    +0.000 HD
BRANCH  14  17
ATOM     16  C   UNL     1       2.917   7.418  18.023  0.00  0.00    +0.000 C 
ATOM     17  C   UNL     1       3.251   5.926  17.935  0.00  0.00    +0.000 C 
BRANCH  17  18
ATOM     18  C   UNL     1       1.992   5.053  17.812  0.00  0.00    +0.000 C 
BRANCH  18  19
ATOM     19  C   UNL     1       1.690   4.195  18.992  0.00  0.00    +0.000 A 
ATOM     20  C   UNL     1       1.457   2.837  19.013  0.00  0.00    +0.000 A 
ATOM     21  N   UNL     1       1.249   2.526  20.328  0.00  0.00    +0.000 N 
ATOM     22  C   UNL     1       1.375   3.679  21.048  0.00  0.00    +0.000 A 
ATOM     23  N   UNL     1       1.628   4.707  20.272  0.00  0.00    +0.000 NA
ATOM     24  H   UNL     1       1.048   1.610  20.705  0.00  0.00    +0.000 HD
ENDBRANCH  18  19
ENDBRANCH  17  18
ENDBRANCH  14  17
ENDBRANCH   1  14
TORSDOF 5
ENDMDL
MODEL 5
REMARK VINA RESULT:      -7.3      2.925      6.707
REMARK  Name = 
REMARK  6 active torsions:
REMARK  status: ('A' for Active; 'I' for Inactive)
REMARK    1  A    between atoms: C_1  and  C_2
REMARK    2  A    between atoms: C_2  and  C_3
REMARK    3  A    between atoms: C_2  and  N_9
REMARK    4  A    between atoms: C_3  and  C_4
REMARK    5  A    between atoms: N_9  and  S_10
REMARK    6  A    between atoms: S_10  and  C_13
REMARK                            x       y       z     vdW  Elec       q    Type
REMARK                         _______ _______ _______ _____ _____    ______ ____
ROOT
ATOM      1  S   UNL     1       4.727   6.978  16.973  0.00  0.00    +0.000 S 
ATOM      2  O   UNL     1       4.248   8.197  17.587  0.00  0.00    +0.000 OA
ATOM      3  O   UNL     1       4.751   6.824  15.535  0.00  0.00    +0.000 OA
ENDROOT
BRANCH   1   4
ATOM      4  C   UNL     1       3.792   5.629  17.646  0.00  0.00    +0.000 A 
ATOM      5  C   UNL     1       3.648   4.448  16.917  0.00  0.00    +0.000 A 
ATOM      6  C   UNL     1       3.058   3.340  17.528  0.00  0.00    +0.000 A 
ATOM      7  C   UNL     1       2.623   3.404  18.862  0.00  0.00    +0.000 A 
ATOM      8  C   UNL     1       2.075   2.284  19.504  0.00  0.00    +0.000 A 
ATOM      9  C   UNL     1       1.673   2.353  20.842  0.00  0.00    +0.000 A 
ATOM     10  C   UNL     1       1.814   3.544  21.548  0.00  0.00    +0.000 A 
ATOM     11  C   UNL     1       2.349   4.671  20.924  0.00  0.00    +0.000 A 
ATOM     12  C   UNL     1       2.758   4.615  19.584  0.00  0.00    +0.000 A 
ATOM     13  C   UNL     1       3.324   5.732  18.959  0.00  0.00    +0.000 A 
ENDBRANCH   1   4
BRANCH   1  14
ATOM     14  N   UNL     1       6.302   6.688  17.554  0.00  0.00    +0.000 NA
ATOM     15  H   UNL     1       6.932   6.790  16.739  0.00  0.00    +0.000 HD
BRANCH  14  17
ATOM     16  C   UNL     1       7.205   5.595  19.565  0.00  0.00    +0.000 C 
ATOM     17  C   UNL     1       6.607   5.356  18.175  0.00  0.00    +0.000 C 
BRANCH  17  18
ATOM     18  C   UNL     1       7.498   4.457  17.304  0.00  0.00    +0.000 C 
BRANCH  18  19
ATOM     19  C   UNL     1       7.149   4.420  15.855  0.00  0.00    +0.000 A 
ATOM     20  C   UNL     1       6.279   3.564  15.216  0.00  0.00    +0.000 A 
ATOM     21  N   UNL     1       6.293   3.947  13.904  0.00  0.00    +0.000 N 
ATOM     22  C   UNL     1       7.142   5.011  13.796  0.00  0.00    +0.000 A 
ATOM     23  N   UNL     1       7.686   5.314  14.951  0.00  0.00    +0.000 NA
ATOM     24  H   UNL     1       5.766   3.530  13.149  0.00  0.00    +0.000 HD
ENDBRANCH  18  19
ENDBRANCH  17  18
ENDBRANCH  14  17
ENDBRANCH   1  14
TORSDOF 5
ENDMDL
MODEL 6
REMARK VINA RESULT:      -7.2      2.452      6.500
REMARK  Name = 
REMARK  6 active torsions:
REMARK  status: ('A' for Active; 'I' for Inactive)
REMARK    1  A    between atoms: C_1  and  C_2
REMARK    2  A    between atoms: C_2  and  C_3
REMARK    3  A    between atoms: C_2  and  N_9
REMARK    4  A    between atoms: C_3  and  C_4
REMARK    5  A    between atoms: N_9  and  S_10
REMARK    6  A    between atoms: S_10  and  C_13
REMARK                            x       y       z     vdW  Elec       q    Type
REMARK                         _______ _______ _______ _____ _____    ______ ____
ROOT
ATOM      1  S   UNL     1       4.089   3.102  18.820  0.00  0.00    +0.000 S 
ATOM      2  O   UNL     1       3.175   1.981  18.836  0.00  0.00    +0.000 OA
ATOM      3  O   UNL     1       5.254   3.130  19.676  0.00  0.00    +0.000 OA
ENDROOT
BRANCH   1   4
ATOM      4  C   UNL     1       3.148   4.572  19.138  0.00  0.00    +0.000 A 
ATOM      5  C   UNL     1       2.521   4.744  20.373  0.00  0.00    +0.000 A 
ATOM      6  C   UNL     1       1.930   5.974  20.669  0.00  0.00    +0.000 A 
ATOM      7  C   UNL     1       1.973   7.032  19.745  0.00  0.00    +0.000 A 
ATOM      8  C   UNL     1       1.428   8.287  20.049  0.00  0.00    +0.000 A 
ATOM      9  C   UNL     1       1.503   9.340  19.131  0.00  0.00    +0.000 A 
ATOM     10  C   UNL     1       2.122   9.144  17.900  0.00  0.00    +0.000 A 
ATOM     11  C   UNL     1       2.662   7.899  17.576  0.00  0.00    +0.000 A 
ATOM     12  C   UNL     1       2.595   6.835  18.488  0.00  0.00    +0.000 A 
ATOM     13  C   UNL     1       3.161   5.592  18.183  0.00  0.00    +0.000 A 
ENDBRANCH   1   4
BRANCH   1  14
ATOM     14  N   UNL     1       4.617   3.319  17.214  0.00  0.00    +0.000 NA
ATOM     15  H   UNL     1       5.243   2.520  17.008  0.00  0.00    +0.000 HD
BRANCH  14  17
ATOM     16  C   UNL     1       5.244   4.809  15.360  0.00  0.00    +0.000 C 
ATOM     17  C   UNL     1       5.375   4.566  16.866  0.00  0.00    +0.000 C 
BRANCH  17  18
ATOM     18  C   UNL     1       6.840   4.548  17.328  0.00  0.00    +0.000 C 
BRANCH  18  19
ATOM     19  C   UNL     1       7.387   5.862  17.772  0.00  0.00    +0.000 A 
ATOM     20  C   UNL     1       8.061   6.147  18.940  0.00  0.00    +0.000 A 
ATOM     21  N   UNL     1       8.365   7.477  18.867  0.00  0.00    +0.000 N 
ATOM     22  C   UNL     1       7.890   7.943  17.676  0.00  0.00    +0.000 A 
ATOM     23  N   UNL     1       7.282   6.998  16.996  0.00  0.00    +0.000 NA
ATOM     24  H   UNL     1       8.861   8.020  19.562  0.00  0.00    +0.000 HD
ENDBRANCH  18  19
ENDBRANCH  17  18
ENDBRANCH  14  17
ENDBRANCH   1  14
TORSDOF 5
ENDMDL
MODEL 7
REMARK VINA RESULT:      -7.2      2.787      7.193
REMARK  Name = 
REMARK  6 active torsions:
REMARK  status: ('A' for Active; 'I' for Inactive)
REMARK    1  A    between atoms: C_1  and  C_2
REMARK    2  A    between atoms: C_2  and  C_3
REMARK    3  A    between atoms: C_2  and  N_9
REMARK    4  A    between atoms: C_3  and  C_4
REMARK    5  A    between atoms: N_9  and  S_10
REMARK    6  A    between atoms: S_10  and  C_13
REMARK                            x       y       z     vdW  Elec       q    Type
REMARK                         _______ _______ _______ _____ _____    ______ ____
ROOT
ATOM      1  S   UNL     1       2.137   4.700  20.137  0.00  0.00    +0.000 S 
ATOM      2  O   UNL     1       0.992   4.068  19.520  0.00  0.00    +0.000 OA
ATOM      3  O   UNL     1       2.396   4.562  21.553  0.00  0.00    +0.000 OA
ENDROOT
BRANCH   1   4
ATOM      4  C   UNL     1       2.060   6.434  19.768  0.00  0.00    +0.000 A 
ATOM      5  C   UNL     1       2.432   6.895  18.504  0.00  0.00    +0.000 A 
ATOM      6  C   UNL     1       2.205   8.233  18.175  0.00  0.00    +0.000 A 
ATOM      7  C   UNL     1       1.599   9.105  19.095  0.00  0.00    +0.000 A 
ATOM      8  C   UNL     1       1.320  10.437  18.759  0.00  0.00    +0.000 A 
ATOM      9  C   UNL     1       0.690  11.287  19.675  0.00  0.00    +0.000 A 
ATOM     10  C   UNL     1       0.338  10.812  20.935  0.00  0.00    +0.000 A 
ATOM     11  C   UNL     1       0.617   9.492  21.289  0.00  0.00    +0.000 A 
ATOM     12  C   UNL     1       1.246   8.628  20.381  0.00  0.00    +0.000 A 
ATOM     13  C   UNL     1       1.501   7.294  20.717  0.00  0.00    +0.000 A 
ENDBRANCH   1   4
BRANCH   1  14
ATOM     14  N   UNL     1       3.529   4.186  19.299  0.00  0.00    +0.000 NA
ATOM     15  H   UNL     1       4.102   5.035  19.149  0.00  0.00    +0.000 HD
BRANCH  14  17
ATOM     16  C   UNL     1       3.777   2.060  18.086  0.00  0.00    +0.000 C 
ATOM     17  C   UNL     1       3.363   3.530  17.960  0.00  0.00    +0.000 C 
BRANCH  17  18
ATOM     18  C   UNL     1       4.105   4.248  16.823  0.00  0.00    +0.000 C 
BRANCH  18  19
ATOM     19  C   UNL     1       5.584   4.344  16.984  0.00  0.00    +0.000 A 
ATOM     20  C   UNL     1       6.556   4.095  16.039  0.00  0.00    +0.000 A 
ATOM     21  N   UNL     1       7.744   4.340  16.669  0.00  0.00    +0.000 N 
ATOM     22  C   UNL     1       7.459   4.736  17.944  0.00  0.00    +0.000 A 
ATOM     23  N   UNL     1       6.166   4.737  18.172  0.00  0.00    +0.000 NA
ATOM     24  H   UNL     1       8.667   4.255  16.266  0.00  0.00    +0.000 HD
ENDBRANCH  18  19
ENDBRANCH  17  18
ENDBRANCH  14  17
ENDBRANCH   1  14
TORSDOF 5
ENDMDL
MODEL 8
REMARK VINA RESULT:      -7.2      2.509      7.286
REMARK  Name = 
REMARK  6 active torsions:
REMARK  status: ('A' for Active; 'I' for Inactive)
REMARK    1  A    between atoms: C_1  and  C_2
REMARK    2  A    between atoms: C_2  and  C_3
REMARK    3  A    between atoms: C_2  and  N_9
REMARK    4  A    between atoms: C_3  and  C_4
REMARK    5  A    between atoms: N_9  and  S_10
REMARK    6  A    between atoms: S_10  and  C_13
REMARK                            x       y       z     vdW  Elec       q    Type
REMARK                         _______ _______ _______ _____ _____    ______ ____
ROOT
ATOM      1  S   UNL     1       4.337   3.867  18.372  0.00  0.00    +0.000 S 
ATOM      2  O   UNL     1       3.615   2.617  18.273  0.00  0.00    +0.000 OA
ATOM      3  O   UNL     1       5.582   3.956  19.102  0.00  0.00    +0.000 OA
ENDROOT
BRANCH   1   4
ATOM      4  C   UNL     1       3.229   5.080  19.043  0.00  0.00    +0.000 A 
ATOM      5  C   UNL     1       2.741   4.935  20.343  0.00  0.00    +0.000 A 
ATOM      6  C   UNL     1       2.011   5.979  20.915  0.00  0.00    +0.000 A 
ATOM      7  C   UNL     1       1.777   7.166  20.201  0.00  0.00    +0.000 A 
ATOM      8  C   UNL     1       1.088   8.240  20.781  0.00  0.00    +0.000 A 
ATOM      9  C   UNL     1       0.887   9.428  20.069  0.00  0.00    +0.000 A 
ATOM     10  C   UNL     1       1.371   9.548  18.769  0.00  0.00    +0.000 A 
ATOM     11  C   UNL     1       2.050   8.485  18.172  0.00  0.00    +0.000 A 
ATOM     12  C   UNL     1       2.261   7.290  18.875  0.00  0.00    +0.000 A 
ATOM     13  C   UNL     1       2.968   6.231  18.295  0.00  0.00    +0.000 A 
ENDBRANCH   1   4
BRANCH   1  14
ATOM     14  N   UNL     1       4.619   4.432  16.789  0.00  0.00    +0.000 NA
ATOM     15  H   UNL     1       4.839   3.594  16.222  0.00  0.00    +0.000 HD
BRANCH  14  17
ATOM     16  C   UNL     1       5.203   6.540  15.665  0.00  0.00    +0.000 C 
ATOM     17  C   UNL     1       5.729   5.416  16.562  0.00  0.00    +0.000 C 
BRANCH  17  18
ATOM     18  C   UNL     1       7.014   4.782  16.009  0.00  0.00    +0.000 C 
BRANCH  18  19
ATOM     19  C   UNL     1       7.082   4.664  14.524  0.00  0.00    +0.000 A 
ATOM     20  C   UNL     1       6.353   3.827  13.707  0.00  0.00    +0.000 A 
ATOM     21  N   UNL     1       6.768   4.111  12.436  0.00  0.00    +0.000 N 
ATOM     22  C   UNL     1       7.703   5.102  12.521  0.00  0.00    +0.000 A 
ATOM     23  N   UNL     1       7.927   5.449  13.767  0.00  0.00    +0.000 NA
ATOM     24  H   UNL     1       6.437   3.678  11.585  0.00  0.00    +0.000 HD
ENDBRANCH  18  19
ENDBRANCH  17  18
ENDBRANCH  14  17
ENDBRANCH   1  14
TORSDOF 5
ENDMDL
MODEL 9
REMARK VINA RESULT:      -7.2      3.555      7.251
REMARK  Name = 
REMARK  6 active torsions:
REMARK  status: ('A' for Active; 'I' for Inactive)
REMARK    1  A    between atoms: C_1  and  C_2
REMARK    2  A    between atoms: C_2  and  C_3
REMARK    3  A    between atoms: C_2  and  N_9
REMARK    4  A    between atoms: C_3  and  C_4
REMARK    5  A    between atoms: N_9  and  S_10
REMARK    6  A    between atoms: S_10  and  C_13
REMARK                            x       y       z     vdW  Elec       q    Type
REMARK                         _______ _______ _______ _____ _____    ______ ____
ROOT
ATOM      1  S   UNL     1       6.916   5.613  16.385  0.00  0.00    +0.000 S 
ATOM      2  O   UNL     1       7.765   4.446  16.488  0.00  0.00    +0.000 OA
ATOM      3  O   UNL     1       7.369   6.910  16.838  0.00  0.00    +0.000 OA
ENDROOT
BRANCH   1   4
ATOM      4  C   UNL     1       5.394   5.249  17.222  0.00  0.00    +0.000 A 
ATOM      5  C   UNL     1       4.565   6.290  17.645  0.00  0.00    +0.000 A 
ATOM      6  C   UNL     1       3.297   5.987  18.145  0.00  0.00    +0.000 A 
ATOM      7  C   UNL     1       2.851   4.657  18.213  0.00  0.00    +0.000 A 
ATOM      8  C   UNL     1       1.562   4.343  18.666  0.00  0.00    +0.000 A 
ATOM      9  C   UNL     1       1.120   3.016  18.702  0.00  0.00    +0.000 A 
ATOM     10  C   UNL     1       1.967   1.992  18.287  0.00  0.00    +0.000 A 
ATOM     11  C   UNL     1       3.256   2.284  17.842  0.00  0.00    +0.000 A 
ATOM     12  C   UNL     1       3.711   3.610  17.799  0.00  0.00    +0.000 A 
ATOM     13  C   UNL     1       4.992   3.915  17.325  0.00  0.00    +0.000 A 
ENDBRANCH   1   4
BRANCH   1  14
ATOM     14  N   UNL     1       6.438   5.766  14.757  0.00  0.00    +0.000 NA
ATOM     15  H   UNL     1       5.404   5.715  14.756  0.00  0.00    +0.000 HD
BRANCH  14  17
ATOM     16  C   UNL     1       8.007   5.402  12.898  0.00  0.00    +0.000 C 
ATOM     17  C   UNL     1       6.925   4.751  13.764  0.00  0.00    +0.000 C 
BRANCH  17  18
ATOM     18  C   UNL     1       5.804   4.122  12.922  0.00  0.00    +0.000 C 
BRANCH  18  19
ATOM     19  C   UNL     1       6.201   2.936  12.112  0.00  0.00    +0.000 A 
ATOM     20  C   UNL     1       7.470   2.558  11.730  0.00  0.00    +0.000 A 
ATOM     21  N   UNL     1       7.306   1.402  11.021  0.00  0.00    +0.000 N 
ATOM     22  C   UNL     1       5.971   1.113  11.009  0.00  0.00    +0.000 A 
ATOM     23  N   UNL     1       5.275   2.026  11.646  0.00  0.00    +0.000 NA
ATOM     24  H   UNL     1       8.036   0.850  10.591  0.00  0.00    +0.000 HD
ENDBRANCH  18  19
ENDBRANCH  17  18
ENDBRANCH  14  17
ENDBRANCH   1  14
TORSDOF 5
ENDMDL
