MODEL 1
REMARK VINA RESULT:      -7.0      0.000      0.000
REMARK  Name = 
REMARK  5 active torsions:
REMARK  status: ('A' for Active; 'I' for Inactive)
REMARK    1  A    between atoms: C_1  and  O_2
REMARK    2  A    between atoms: O_2  and  C_3
REMARK    3  A    between atoms: C_6  and  N_7
REMARK    4  A    between atoms: C_8  and  C_10
REMARK    5  A    between atoms: C_11  and  C_12
REMARK                            x       y       z     vdW  Elec       q    Type
REMARK                         _______ _______ _______ _____ _____    ______ ____
ROOT
ATOM      1  N   UNL     1       2.599   5.772  20.437  0.00  0.00    +0.000 N 
ATOM      2  C   UNL     1       1.793   4.656  20.567  0.00  0.00    +0.000 C 
ATOM      3  O   UNL     1       0.601   4.559  20.315  0.00  0.00    +0.000 OA
ATOM      4  H   UNL     1       3.593   5.648  20.558  0.00  0.00    +0.000 HD
ENDROOT
BRANCH   1   8
ATOM      5  C   UNL     1       1.213   9.484  18.954  0.00  0.00    +0.000 A 
ATOM      6  C   UNL     1       0.981   9.133  20.281  0.00  0.00    +0.000 A 
ATOM      7  C   UNL     1       1.461   7.928  20.793  0.00  0.00    +0.000 A 
ATOM      8  C   UNL     1       2.160   7.037  19.982  0.00  0.00    +0.000 A 
ATOM      9  C   UNL     1       2.425   7.401  18.655  0.00  0.00    +0.000 A 
ATOM     10  C   UNL     1       1.942   8.617  18.141  0.00  0.00    +0.000 A 
BRANCH   5  12
ATOM     11  C   UNL     1       0.655  11.709  19.530  0.00  0.00    +0.000 C 
ATOM     12  O   UNL     1       0.641  10.663  18.571  0.00  0.00    +0.000 OA
ENDBRANCH   5  12
ENDBRANCH   1   8
BRANCH   2  13
ATOM     13  C   UNL     1       2.528   3.477  21.083  0.00  0.00    +0.000 C 
ATOM     14  C   UNL     1       3.484   2.847  20.381  0.00  0.00    +0.000 C 
BRANCH  14  15
ATOM     15  C   UNL     1       4.057   3.298  19.109  0.00  0.00    +0.000 A 
ATOM     16  C   UNL     1       3.377   3.014  17.919  0.00  0.00    +0.000 A 
ATOM     17  C   UNL     1       3.874   3.473  16.695  0.00  0.00    +0.000 A 
ATOM     18  C   UNL     1       5.051   4.216  16.661  0.00  0.00    +0.000 A 
ATOM     19 CL   UNL     1       5.644   4.806  15.158  0.00  0.00    +0.000 Cl
ATOM     20  C   UNL     1       5.748   4.488  17.838  0.00  0.00    +0.000 A 
ATOM     21  C   UNL     1       5.250   4.029  19.063  0.00  0.00    +0.000 A 
ENDBRANCH  14  15
ENDBRANCH   2  13
TORSDOF 4
ENDMDL
MODEL 2
REMARK VINA RESULT:      -6.9      0.542      1.206
REMARK  Name = 
REMARK  5 active torsions:
REMARK  status: ('A' for Active; 'I' for Inactive)
REMARK    1  A    between atoms: C_1  and  O_2
REMARK    2  A    between atoms: O_2  and  C_3
REMARK    3  A    between atoms: C_6  and  N_7
REMARK    4  A    between atoms: C_8  and  C_10
REMARK    5  A    between atoms: C_11  and  C_12
REMARK                            x       y       z     vdW  Elec       q    Type
REMARK                         _______ _______ _______ _____ _____    ______ ____
ROOT
ATOM      1  N   UNL     1       2.729   5.842  20.303  0.00  0.00    +0.000 N 
ATOM      2  C   UNL     1       2.011   4.660  20.294  0.00  0.00    +0.000 C 
ATOM      3  O   UNL     1       0.851   4.491  19.948  0.00  0.00    +0.000 OA
ATOM      4  H   UNL     1       3.719   5.786  20.489  0.00  0.00    +0.000 HD
ENDROOT
BRANCH   1   8
ATOM      5  C   UNL     1       1.134   9.534  18.990  0.00  0.00    +0.000 A 
ATOM      6  C   UNL     1       0.943   9.121  20.306  0.00  0.00    +0.000 A 
ATOM      7  C   UNL     1       1.491   7.923  20.761  0.00  0.00    +0.000 A 
ATOM      8  C   UNL     1       2.219   7.101  19.905  0.00  0.00    +0.000 A 
ATOM      9  C   UNL     1       2.443   7.529  18.590  0.00  0.00    +0.000 A 
ATOM     10  C   UNL     1       1.891   8.738  18.132  0.00  0.00    +0.000 A 
BRANCH   5  12
ATOM     11  C   UNL     1      -0.656  11.019  19.425  0.00  0.00    +0.000 C 
ATOM     12  O   UNL     1       0.498  10.697  18.662  0.00  0.00    +0.000 OA
ENDBRANCH   5  12
ENDBRANCH   1   8
BRANCH   2  13
ATOM     13  C   UNL     1       2.803   3.507  20.781  0.00  0.00    +0.000 C 
ATOM     14  C   UNL     1       3.825   2.979  20.089  0.00  0.00    +0.000 C 
BRANCH  14  15
ATOM     15  C   UNL     1       4.415   3.533  18.867  0.00  0.00    +0.000 A 
ATOM     16  C   UNL     1       5.570   4.319  18.965  0.00  0.00    +0.000 A 
ATOM     17  C   UNL     1       6.182   4.822  17.813  0.00  0.00    +0.000 A 
ATOM     18  C   UNL     1       5.640   4.539  16.562  0.00  0.00    +0.000 A 
ATOM     19 CL   UNL     1       6.413   5.132  15.144  0.00  0.00    +0.000 Cl
ATOM     20  C   UNL     1       4.480   3.773  16.452  0.00  0.00    +0.000 A 
ATOM     21  C   UNL     1       3.867   3.271  17.605  0.00  0.00    +0.000 A 
ENDBRANCH  14  15
ENDBRANCH   2  13
TORSDOF 4
ENDMDL
MODEL 3
REMARK VINA RESULT:      -6.8      0.252      1.101
REMARK  Name = 
REMARK  5 active torsions:
REMARK  status: ('A' for Active; 'I' for Inactive)
REMARK    1  A    between atoms: C_1  and  O_2
REMARK    2  A    between atoms: O_2  and  C_3
REMARK    3  A    between atoms: C_6  and  N_7
REMARK    4  A    between atoms: C_8  and  C_10
REMARK    5  A    between atoms: C_11  and  C_12
REMARK                            x       y       z     vdW  Elec       q    Type
REMARK                         _______ _______ _______ _____ _____    ______ ____
ROOT
ATOM      1  N   UNL     1       2.635   5.760  20.392  0.00  0.00    +0.000 N 
ATOM      2  C   UNL     1       1.889   4.601  20.502  0.00  0.00    +0.000 C 
ATOM      3  O   UNL     1       0.702   4.448  20.249  0.00  0.00    +0.000 OA
ATOM      4  H   UNL     1       3.635   5.685  20.510  0.00  0.00    +0.000 HD
ENDROOT
BRANCH   1   8
ATOM      5  C   UNL     1       1.194   9.562  19.225  0.00  0.00    +0.000 A 
ATOM      6  C   UNL     1       1.898   8.775  18.318  0.00  0.00    +0.000 A 
ATOM      7  C   UNL     1       2.350   7.506  18.678  0.00  0.00    +0.000 A 
ATOM      8  C   UNL     1       2.131   7.009  19.960  0.00  0.00    +0.000 A 
ATOM      9  C   UNL     1       1.393   7.783  20.865  0.00  0.00    +0.000 A 
ATOM     10  C   UNL     1       0.937   9.062  20.501  0.00  0.00    +0.000 A 
BRANCH   5  12
ATOM     11  C   UNL     1       0.067  11.603  19.625  0.00  0.00    +0.000 C 
ATOM     12  O   UNL     1       0.859  10.802  18.761  0.00  0.00    +0.000 OA
ENDBRANCH   5  12
ENDBRANCH   1   8
BRANCH   2  13
ATOM     13  C   UNL     1       2.684   3.453  20.996  0.00  0.00    +0.000 C 
ATOM     14  C   UNL     1       3.677   2.892  20.287  0.00  0.00    +0.000 C 
BRANCH  14  15
ATOM     15  C   UNL     1       4.231   3.403  19.029  0.00  0.00    +0.000 A 
ATOM     16  C   UNL     1       3.570   3.117  17.829  0.00  0.00    +0.000 A 
ATOM     17  C   UNL     1       4.047   3.631  16.619  0.00  0.00    +0.000 A 
ATOM     18  C   UNL     1       5.187   4.430  16.609  0.00  0.00    +0.000 A 
ATOM     19 CL   UNL     1       5.755   5.086  15.124  0.00  0.00    +0.000 Cl
ATOM     20  C   UNL     1       5.866   4.706  17.796  0.00  0.00    +0.000 A 
ATOM     21  C   UNL     1       5.388   4.192  19.006  0.00  0.00    +0.000 A 
ENDBRANCH  14  15
ENDBRANCH   2  13
TORSDOF 4
ENDMDL
MODEL 4
REMARK VINA RESULT:      -6.8      0.746      1.711
REMARK  Name = 
REMARK  5 active torsions:
REMARK  status: ('A' for Active; 'I' for Inactive)
REMARK    1  A    between atoms: C_1  and  O_2
REMARK    2  A    between atoms: O_2  and  C_3
REMARK    3  A    between atoms: C_6  and  N_7
REMARK    4  A    between atoms: C_8  and  C_10
REMARK    5  A    between atoms: C_11  and  C_12
REMARK                            x       y       z     vdW  Elec       q    Type
REMARK                         _______ _______ _______ _____ _____    ______ ____
ROOT
ATOM      1  N   UNL     1       2.751   5.930  20.136  0.00  0.00    +0.000 N 
ATOM      2  C   UNL     1       2.165   4.695  19.925  0.00  0.00    +0.000 C 
ATOM      3  O   UNL     1       1.108   4.455  19.358  0.00  0.00    +0.000 OA
ATOM      4  H   UNL     1       3.692   5.944  20.500  0.00  0.00    +0.000 HD
ENDROOT
BRANCH   1   8
ATOM      5  C   UNL     1       1.181   9.698  19.026  0.00  0.00    +0.000 A 
ATOM      6  C   UNL     1       1.867   8.926  18.092  0.00  0.00    +0.000 A 
ATOM      7  C   UNL     1       2.361   7.668  18.435  0.00  0.00    +0.000 A 
ATOM      8  C   UNL     1       2.202   7.167  19.724  0.00  0.00    +0.000 A 
ATOM      9  C   UNL     1       1.483   7.925  20.657  0.00  0.00    +0.000 A 
ATOM     10  C   UNL     1       0.984   9.193  20.310  0.00  0.00    +0.000 A 
BRANCH   5  12
ATOM     11  C   UNL     1       1.772  11.961  18.673  0.00  0.00    +0.000 C 
ATOM     12  O   UNL     1       0.801  10.930  18.575  0.00  0.00    +0.000 OA
ENDBRANCH   5  12
ENDBRANCH   1   8
BRANCH   2  13
ATOM     13  C   UNL     1       2.963   3.580  20.482  0.00  0.00    +0.000 C 
ATOM     14  C   UNL     1       4.038   3.067  19.861  0.00  0.00    +0.000 C 
BRANCH  14  15
ATOM     15  C   UNL     1       4.676   3.611  18.658  0.00  0.00    +0.000 A 
ATOM     16  C   UNL     1       5.824   4.401  18.795  0.00  0.00    +0.000 A 
ATOM     17  C   UNL     1       6.483   4.892  17.664  0.00  0.00    +0.000 A 
ATOM     18  C   UNL     1       5.993   4.596  16.394  0.00  0.00    +0.000 A 
ATOM     19 CL   UNL     1       6.822   5.176  15.004  0.00  0.00    +0.000 Cl
ATOM     20  C   UNL     1       4.839   3.827  16.246  0.00  0.00    +0.000 A 
ATOM     21  C   UNL     1       4.180   3.334  17.378  0.00  0.00    +0.000 A 
ENDBRANCH  14  15
ENDBRANCH   2  13
TORSDOF 4
ENDMDL
MODEL 5
REMARK VINA RESULT:      -6.8      2.586      3.694
REMARK  Name = 
REMARK  5 active torsions:
REMARK  status: ('A' for Active; 'I' for Inactive)
REMARK    1  A    between atoms: C_1  and  O_2
REMARK    2  A    between atoms: O_2  and  C_3
REMARK    3  A    between atoms: C_6  and  N_7
REMARK    4  A    between atoms: C_8  and  C_10
REMARK    5  A    between atoms: C_11  and  C_12
REMARK                            x       y       z     vdW  Elec       q    Type
REMARK                         _______ _______ _______ _____ _____    ______ ____
ROOT
ATOM      1  N   UNL     1       3.162   6.205  17.588  0.00  0.00    +0.000 N 
ATOM      2  C   UNL     1       4.493   6.181  17.214  0.00  0.00    +0.000 C 
ATOM      3  O   UNL     1       5.358   7.008  17.468  0.00  0.00    +0.000 OA
ATOM      4  H   UNL     1       2.612   5.377  17.413  0.00  0.00    +0.000 HD
ENDROOT
BRANCH   1   8
ATOM      5  C   UNL     1       1.228   9.278  19.760  0.00  0.00    +0.000 A 
ATOM      6  C   UNL     1       1.617   8.108  20.405  0.00  0.00    +0.000 A 
ATOM      7  C   UNL     1       2.286   7.100  19.709  0.00  0.00    +0.000 A 
ATOM      8  C   UNL     1       2.555   7.231  18.349  0.00  0.00    +0.000 A 
ATOM      9  C   UNL     1       2.195   8.421  17.704  0.00  0.00    +0.000 A 
ATOM     10  C   UNL     1       1.523   9.437  18.407  0.00  0.00    +0.000 A 
BRANCH   5  12
ATOM     11  C   UNL     1       0.512   9.870  21.935  0.00  0.00    +0.000 C 
ATOM     12  O   UNL     1       0.535  10.155  20.544  0.00  0.00    +0.000 OA
ENDBRANCH   5  12
ENDBRANCH   1   8
BRANCH   2  13
ATOM     13  C   UNL     1       4.839   4.989  16.406  0.00  0.00    +0.000 C 
ATOM     14  C   UNL     1       4.570   3.734  16.803  0.00  0.00    +0.000 C 
BRANCH  14  15
ATOM     15  C   UNL     1       3.773   3.354  17.974  0.00  0.00    +0.000 A 
ATOM     16  C   UNL     1       4.408   3.224  19.216  0.00  0.00    +0.000 A 
ATOM     17  C   UNL     1       3.667   2.911  20.359  0.00  0.00    +0.000 A 
ATOM     18  C   UNL     1       2.290   2.725  20.261  0.00  0.00    +0.000 A 
ATOM     19 CL   UNL     1       1.375   2.369  21.674  0.00  0.00    +0.000 Cl
ATOM     20  C   UNL     1       1.649   2.832  19.027  0.00  0.00    +0.000 A 
ATOM     21  C   UNL     1       2.391   3.146  17.883  0.00  0.00    +0.000 A 
ENDBRANCH  14  15
ENDBRANCH   2  13
TORSDOF 4
ENDMDL
MODEL 6
REMARK VINA RESULT:      -6.7      2.564      3.738
REMARK  Name = 
REMARK  5 active torsions:
REMARK  status: ('A' for Active; 'I' for Inactive)
REMARK    1  A    between atoms: C_1  and  O_2
REMARK    2  A    between atoms: O_2  and  C_3
REMARK    3  A    between atoms: C_6  and  N_7
REMARK    4  A    between atoms: C_8  and  C_10
REMARK    5  A    between atoms: C_11  and  C_12
REMARK                            x       y       z     vdW  Elec       q    Type
REMARK                         _______ _______ _______ _____ _____    ______ ____
ROOT
ATOM      1  N   UNL     1       3.122   6.200  17.581  0.00  0.00    +0.000 N 
ATOM      2  C   UNL     1       4.457   6.217  17.220  0.00  0.00    +0.000 C 
ATOM      3  O   UNL     1       5.288   7.079  17.466  0.00  0.00    +0.000 OA
ATOM      4  H   UNL     1       2.605   5.349  17.419  0.00  0.00    +0.000 HD
ENDROOT
BRANCH   1   8
ATOM      5  C   UNL     1       1.291   9.244  19.879  0.00  0.00    +0.000 A 
ATOM      6  C   UNL     1       1.487   9.424  18.513  0.00  0.00    +0.000 A 
ATOM      7  C   UNL     1       2.059   8.417  17.737  0.00  0.00    +0.000 A 
ATOM      8  C   UNL     1       2.470   7.218  18.315  0.00  0.00    +0.000 A 
ATOM      9  C   UNL     1       2.243   7.019  19.683  0.00  0.00    +0.000 A 
ATOM     10  C   UNL     1       1.665   8.035  20.464  0.00  0.00    +0.000 A 
BRANCH   5  12
ATOM     11  C   UNL     1      -0.516  10.752  20.111  0.00  0.00    +0.000 C 
ATOM     12  O   UNL     1       0.774  10.329  20.526  0.00  0.00    +0.000 OA
ENDBRANCH   5  12
ENDBRANCH   1   8
BRANCH   2  13
ATOM     13  C   UNL     1       4.854   5.021  16.442  0.00  0.00    +0.000 C 
ATOM     14  C   UNL     1       4.614   3.766  16.856  0.00  0.00    +0.000 C 
BRANCH  14  15
ATOM     15  C   UNL     1       3.803   3.383  18.016  0.00  0.00    +0.000 A 
ATOM     16  C   UNL     1       4.412   3.299  19.273  0.00  0.00    +0.000 A 
ATOM     17  C   UNL     1       3.656   2.984  20.406  0.00  0.00    +0.000 A 
ATOM     18  C   UNL     1       2.288   2.750  20.281  0.00  0.00    +0.000 A 
ATOM     19 CL   UNL     1       1.354   2.392  21.680  0.00  0.00    +0.000 Cl
ATOM     20  C   UNL     1       1.674   2.812  19.031  0.00  0.00    +0.000 A 
ATOM     21  C   UNL     1       2.431   3.128  17.898  0.00  0.00    +0.000 A 
ENDBRANCH  14  15
ENDBRANCH   2  13
TORSDOF 4
ENDMDL
MODEL 7
REMARK VINA RESULT:      -6.7      4.659      7.625
REMARK  Name = 
REMARK  5 active torsions:
REMARK  status: ('A' for Active; 'I' for Inactive)
REMARK    1  A    between atoms: C_1  and  O_2
REMARK    2  A    between atoms: O_2  and  C_3
REMARK    3  A    between atoms: C_6  and  N_7
REMARK    4  A    between atoms: C_8  and  C_10
REMARK    5  A    between atoms: C_11  and  C_12
REMARK                            x       y       z     vdW  Elec       q    Type
REMARK                         _______ _______ _______ _____ _____    ______ ____
ROOT
ATOM      1  N   UNL     1       6.530   5.671  15.540  0.00  0.00    +0.000 N 
ATOM      2  C   UNL     1       7.218   5.326  16.689  0.00  0.00    +0.000 C 
ATOM      3  O   UNL     1       7.925   4.346  16.873  0.00  0.00    +0.000 OA
ATOM      4  H   UNL     1       6.102   6.584  15.508  0.00  0.00    +0.000 HD
ENDROOT
BRANCH   1   8
ATOM      5  C   UNL     1       6.661   3.368  11.994  0.00  0.00    +0.000 A 
ATOM      6  C   UNL     1       5.630   3.179  12.910  0.00  0.00    +0.000 A 
ATOM      7  C   UNL     1       5.556   3.954  14.067  0.00  0.00    +0.000 A 
ATOM      8  C   UNL     1       6.524   4.915  14.345  0.00  0.00    +0.000 A 
ATOM      9  C   UNL     1       7.543   5.133  13.409  0.00  0.00    +0.000 A 
ATOM     10  C   UNL     1       7.617   4.352  12.242  0.00  0.00    +0.000 A 
BRANCH   5  12
ATOM     11  C   UNL     1       5.995   1.262  11.148  0.00  0.00    +0.000 C 
ATOM     12  O   UNL     1       6.645   2.506  10.935  0.00  0.00    +0.000 OA
ENDBRANCH   5  12
ENDBRANCH   1   8
BRANCH   2  13
ATOM     13  C   UNL     1       7.023   6.302  17.787  0.00  0.00    +0.000 C 
ATOM     14  C   UNL     1       5.903   6.358  18.526  0.00  0.00    +0.000 C 
BRANCH  14  15
ATOM     15  C   UNL     1       4.797   5.396  18.485  0.00  0.00    +0.000 A 
ATOM     16  C   UNL     1       4.907   4.203  19.210  0.00  0.00    +0.000 A 
ATOM     17  C   UNL     1       3.849   3.289  19.230  0.00  0.00    +0.000 A 
ATOM     18  C   UNL     1       2.681   3.566  18.524  0.00  0.00    +0.000 A 
ATOM     19 CL   UNL     1       1.370   2.454  18.575  0.00  0.00    +0.000 Cl
ATOM     20  C   UNL     1       2.568   4.742  17.783  0.00  0.00    +0.000 A 
ATOM     21  C   UNL     1       3.626   5.657  17.763  0.00  0.00    +0.000 A 
ENDBRANCH  14  15
ENDBRANCH   2  13
TORSDOF 4
ENDMDL
MODEL 8
REMARK VINA RESULT:      -6.6      4.714      7.686
REMARK  Name = 
REMARK  5 active torsions:
REMARK  status: ('A' for Active; 'I' for Inactive)
REMARK    1  A    between atoms: C_1  and  O_2
REMARK    2  A    between atoms: O_2  and  C_3
REMARK    3  A    between atoms: C_6  and  N_7
REMARK    4  A    between atoms: C_8  and  C_10
REMARK    5  A    between atoms: C_11  and  C_12
REMARK                            x       y       z     vdW  Elec       q    Type
REMARK                         _______ _______ _______ _____ _____    ______ ____
ROOT
ATOM      1  N   UNL     1       6.587   5.693  15.321  0.00  0.00    +0.000 N 
ATOM      2  C   UNL     1       7.260   5.358  16.482  0.00  0.00    +0.000 C 
ATOM      3  O   UNL     1       7.913   4.348  16.705  0.00  0.00    +0.000 OA
ATOM      4  H   UNL     1       6.211   6.627  15.252  0.00  0.00    +0.000 HD
ENDROOT
BRANCH   1   8
ATOM      5  C   UNL     1       6.576   3.246  11.870  0.00  0.00    +0.000 A 
ATOM      6  C   UNL     1       5.564   3.119  12.818  0.00  0.00    +0.000 A 
ATOM      7  C   UNL     1       5.537   3.942  13.943  0.00  0.00    +0.000 A 
ATOM      8  C   UNL     1       6.534   4.890  14.158  0.00  0.00    +0.000 A 
ATOM      9  C   UNL     1       7.534   5.045  13.190  0.00  0.00    +0.000 A 
ATOM     10  C   UNL     1       7.560   4.216  12.054  0.00  0.00    +0.000 A 
BRANCH   5  12
ATOM     11  C   UNL     1       6.153   1.017  11.203  0.00  0.00    +0.000 C 
ATOM     12  O   UNL     1       6.513   2.343  10.848  0.00  0.00    +0.000 OA
ENDBRANCH   5  12
ENDBRANCH   1   8
BRANCH   2  13
ATOM     13  C   UNL     1       7.125   6.388  17.538  0.00  0.00    +0.000 C 
ATOM     14  C   UNL     1       6.059   6.466  18.351  0.00  0.00    +0.000 C 
BRANCH  14  15
ATOM     15  C   UNL     1       4.970   5.488  18.439  0.00  0.00    +0.000 A 
ATOM     16  C   UNL     1       3.763   5.753  17.781  0.00  0.00    +0.000 A 
ATOM     17  C   UNL     1       2.725   4.817  17.807  0.00  0.00    +0.000 A 
ATOM     18  C   UNL     1       2.892   3.616  18.493  0.00  0.00    +0.000 A 
ATOM     19 CL   UNL     1       1.624   2.454  18.498  0.00  0.00    +0.000 Cl
ATOM     20  C   UNL     1       4.082   3.350  19.168  0.00  0.00    +0.000 A 
ATOM     21  C   UNL     1       5.122   4.286  19.142  0.00  0.00    +0.000 A 
ENDBRANCH  14  15
ENDBRANCH   2  13
TORSDOF 4
ENDMDL
MODEL 9
REMARK VINA RESULT:      -6.6      1.865      2.330
REMARK  Name = 
REMARK  5 active torsions:
REMARK  status: ('A' for Active; 'I' for Inactive)
REMARK    1  A    between atoms: C_1  and  O_2
REMARK    2  A    between atoms: O_2  and  C_3
REMARK    3  A    between atoms: C_6  and  N_7
REMARK    4  A    between atoms: C_8  and  C_10
REMARK    5  A    between atoms: C_11  and  C_12
REMARK                            x       y       z     vdW  Elec       q    Type
REMARK                         _______ _______ _______ _____ _____    ______ ____
ROOT
ATOM      1  N   UNL     1       2.762   5.245  18.894  0.00  0.00    +0.000 N 
ATOM      2  C   UNL     1       2.134   4.382  18.015  0.00  0.00    +0.000 C 
ATOM      3  O   UNL     1       1.087   4.560  17.409  0.00  0.00    +0.000 OA
ATOM      4  H   UNL     1       3.691   5.002  19.204  0.00  0.00    +0.000 HD
ENDROOT
BRANCH   1   8
ATOM      5  C   UNL     1       1.214   9.062  19.857  0.00  0.00    +0.000 A 
ATOM      6  C   UNL     1       1.201   8.045  20.807  0.00  0.00    +0.000 A 
ATOM      7  C   UNL     1       1.738   6.792  20.515  0.00  0.00    +0.000 A 
ATOM      8  C   UNL     1       2.275   6.522  19.259  0.00  0.00    +0.000 A 
ATOM      9  C   UNL     1       2.321   7.553  18.311  0.00  0.00    +0.000 A 
ATOM     10  C   UNL     1       1.780   8.816  18.608  0.00  0.00    +0.000 A 
BRANCH   5  12
ATOM     11  C   UNL     1       0.358  10.350  21.647  0.00  0.00    +0.000 C 
ATOM     12  O   UNL     1       0.607  10.219  20.256  0.00  0.00    +0.000 OA
ENDBRANCH   5  12
ENDBRANCH   1   8
BRANCH   2  13
ATOM     13  C   UNL     1       2.870   3.109  17.839  0.00  0.00    +0.000 C 
ATOM     14  C   UNL     1       4.180   3.056  17.545  0.00  0.00    +0.000 C 
BRANCH  14  15
ATOM     15  C   UNL     1       5.101   4.196  17.515  0.00  0.00    +0.000 A 
ATOM     16  C   UNL     1       5.149   5.002  16.371  0.00  0.00    +0.000 A 
ATOM     17  C   UNL     1       5.982   6.124  16.331  0.00  0.00    +0.000 A 
ATOM     18  C   UNL     1       6.770   6.441  17.435  0.00  0.00    +0.000 A 
ATOM     19 CL   UNL     1       7.771   7.839  17.395  0.00  0.00    +0.000 Cl
ATOM     20  C   UNL     1       6.745   5.635  18.573  0.00  0.00    +0.000 A 
ATOM     21  C   UNL     1       5.911   4.512  18.613  0.00  0.00    +0.000 A 
ENDBRANCH  14  15
ENDBRANCH   2  13
TORSDOF 4
ENDMDL
