MODEL 1
REMARK VINA RESULT:      -8.5      0.000      0.000
REMARK  Name = 
REMARK  4 active torsions:
REMARK  status: ('A' for Active; 'I' for Inactive)
REMARK    1  A    between atoms: C_1  and  C_2
REMARK    2  A    between atoms: C_6  and  C_7
REMARK    3  A    between atoms: C_7  and  C_8
REMARK    4  A    between atoms: C_12  and  O_13
REMARK                            x       y       z     vdW  Elec       q    Type
REMARK                         _______ _______ _______ _____ _____    ______ ____
ROOT
ATOM      1  C   UNL     1       5.395   4.521  16.767  0.00  0.00    +0.000 A 
ATOM      2  C   UNL     1       5.068   5.413  15.757  0.00  0.00    +0.000 A 
ATOM      3  N   UNL     1       5.824   6.546  15.913  0.00  0.00    +0.000 N 
ATOM      4  C   UNL     1       6.620   6.427  17.024  0.00  0.00    +0.000 A 
ATOM      5  C   UNL     1       7.517   7.261  17.655  0.00  0.00    +0.000 A 
ATOM      6  N   UNL     1       8.116   6.849  18.780  0.00  0.00    +0.000 NA
ATOM      7  C   UNL     1       7.808   5.637  19.255  0.00  0.00    +0.000 A 
ATOM      8  N   UNL     1       8.436   5.268  20.431  0.00  0.00    +0.000 N 
ATOM      9  N   UNL     1       6.982   4.747  18.700  0.00  0.00    +0.000 NA
ATOM     10  C   UNL     1       6.377   5.173  17.569  0.00  0.00    +0.000 A 
ATOM     11  H   UNL     1       5.760   7.363  15.320  0.00  0.00    +0.000 HD
ATOM     12  H   UNL     1       9.277   5.817  20.545  0.00  0.00    +0.000 HD
ATOM     13  H   UNL     1       8.520   4.264  20.478  0.00  0.00    +0.000 HD
ENDROOT
BRANCH   5  14
ATOM     14  O   UNL     1       7.844   8.522  17.232  0.00  0.00    +0.000 OA
ATOM     15  H   UNL     1       8.162   8.462  16.324  0.00  0.00    +0.000 HD
ENDBRANCH   5  14
BRANCH   1  16
ATOM     16  C   UNL     1       4.750   3.205  17.047  0.00  0.00    +0.000 C 
BRANCH  16  22
ATOM     17  C   UNL     1       2.504   2.825  21.557  0.00  0.00    +0.000 C 
ATOM     18  C   UNL     1       2.446   3.216  20.108  0.00  0.00    +0.000 A 
ATOM     19  C   UNL     1       1.243   3.632  19.530  0.00  0.00    +0.000 A 
ATOM     20  C   UNL     1       1.190   3.961  18.176  0.00  0.00    +0.000 A 
ATOM     21  C   UNL     1       2.336   3.866  17.385  0.00  0.00    +0.000 A 
ATOM     22  C   UNL     1       3.551   3.433  17.937  0.00  0.00    +0.000 A 
ATOM     23  C   UNL     1       3.597   3.129  19.308  0.00  0.00    +0.000 A 
ENDBRANCH  16  22
ENDBRANCH   1  16
TORSDOF 3
ENDMDL
MODEL 2
REMARK VINA RESULT:      -8.2      0.920      1.038
REMARK  Name = 
REMARK  4 active torsions:
REMARK  status: ('A' for Active; 'I' for Inactive)
REMARK    1  A    between atoms: C_1  and  C_2
REMARK    2  A    between atoms: C_6  and  C_7
REMARK    3  A    between atoms: C_7  and  C_8
REMARK    4  A    between atoms: C_12  and  O_13
REMARK                            x       y       z     vdW  Elec       q    Type
REMARK                         _______ _______ _______ _____ _____    ______ ____
ROOT
ATOM      1  C   UNL     1       5.215   4.366  16.965  0.00  0.00    +0.000 A 
ATOM      2  C   UNL     1       4.837   5.212  15.933  0.00  0.00    +0.000 A 
ATOM      3  N   UNL     1       5.605   6.347  15.995  0.00  0.00    +0.000 N 
ATOM      4  C   UNL     1       6.459   6.274  17.065  0.00  0.00    +0.000 A 
ATOM      5  C   UNL     1       7.393   7.130  17.608  0.00  0.00    +0.000 A 
ATOM      6  N   UNL     1       8.051   6.768  18.716  0.00  0.00    +0.000 NA
ATOM      7  C   UNL     1       7.765   5.580  19.263  0.00  0.00    +0.000 A 
ATOM      8  N   UNL     1       8.455   5.263  20.419  0.00  0.00    +0.000 N 
ATOM      9  N   UNL     1       6.907   4.671  18.795  0.00  0.00    +0.000 NA
ATOM     10  C   UNL     1       6.242   5.048  17.681  0.00  0.00    +0.000 A 
ATOM     11  H   UNL     1       5.511   7.135  15.370  0.00  0.00    +0.000 HD
ATOM     12  H   UNL     1       9.303   5.811  20.461  0.00  0.00    +0.000 HD
ATOM     13  H   UNL     1       8.538   4.261  20.508  0.00  0.00    +0.000 HD
ENDROOT
BRANCH   5  14
ATOM     14  O   UNL     1       7.701   8.369  17.109  0.00  0.00    +0.000 OA
ATOM     15  H   UNL     1       6.901   8.908  17.126  0.00  0.00    +0.000 HD
ENDBRANCH   5  14
BRANCH   1  16
ATOM     16  C   UNL     1       4.582   3.068  17.341  0.00  0.00    +0.000 C 
BRANCH  16  22
ATOM     17  C   UNL     1       1.865   5.837  20.576  0.00  0.00    +0.000 C 
ATOM     18  C   UNL     1       1.970   4.667  19.642  0.00  0.00    +0.000 A 
ATOM     19  C   UNL     1       0.930   3.737  19.544  0.00  0.00    +0.000 A 
ATOM     20  C   UNL     1       1.049   2.635  18.699  0.00  0.00    +0.000 A 
ATOM     21  C   UNL     1       2.213   2.444  17.953  0.00  0.00    +0.000 A 
ATOM     22  C   UNL     1       3.278   3.352  18.047  0.00  0.00    +0.000 A 
ATOM     23  C   UNL     1       3.136   4.473  18.883  0.00  0.00    +0.000 A 
ENDBRANCH  16  22
ENDBRANCH   1  16
TORSDOF 3
ENDMDL
MODEL 3
REMARK VINA RESULT:      -7.7      3.338      6.081
REMARK  Name = 
REMARK  4 active torsions:
REMARK  status: ('A' for Active; 'I' for Inactive)
REMARK    1  A    between atoms: C_1  and  C_2
REMARK    2  A    between atoms: C_6  and  C_7
REMARK    3  A    between atoms: C_7  and  C_8
REMARK    4  A    between atoms: C_12  and  O_13
REMARK                            x       y       z     vdW  Elec       q    Type
REMARK                         _______ _______ _______ _____ _____    ______ ____
ROOT
ATOM      1  C   UNL     1       3.725   5.342  17.543  0.00  0.00    +0.000 A 
ATOM      2  C   UNL     1       2.714   6.206  17.935  0.00  0.00    +0.000 A 
ATOM      3  N   UNL     1       1.810   5.507  18.693  0.00  0.00    +0.000 N 
ATOM      4  C   UNL     1       2.194   4.193  18.783  0.00  0.00    +0.000 A 
ATOM      5  C   UNL     1       1.648   3.072  19.368  0.00  0.00    +0.000 A 
ATOM      6  N   UNL     1       2.268   1.893  19.233  0.00  0.00    +0.000 NA
ATOM      7  C   UNL     1       3.400   1.849  18.521  0.00  0.00    +0.000 A 
ATOM      8  N   UNL     1       3.989   0.604  18.392  0.00  0.00    +0.000 N 
ATOM      9  N   UNL     1       4.023   2.882  17.948  0.00  0.00    +0.000 NA
ATOM     10  C   UNL     1       3.387   4.066  18.082  0.00  0.00    +0.000 A 
ATOM     11  H   UNL     1       0.964   5.900  19.081  0.00  0.00    +0.000 HD
ATOM     12  H   UNL     1       3.669   0.007  19.141  0.00  0.00    +0.000 HD
ATOM     13  H   UNL     1       4.985   0.706  18.264  0.00  0.00    +0.000 HD
ENDROOT
BRANCH   5  14
ATOM     14  O   UNL     1       0.477   3.053  20.078  0.00  0.00    +0.000 OA
ATOM     15  H   UNL     1       0.218   3.964  20.257  0.00  0.00    +0.000 HD
ENDBRANCH   5  14
BRANCH   1  16
ATOM     16  C   UNL     1       4.863   5.646  16.627  0.00  0.00    +0.000 C 
BRANCH  16  22
ATOM     17  C   UNL     1       8.241   9.239  17.722  0.00  0.00    +0.000 C 
ATOM     18  C   UNL     1       7.690   7.863  17.958  0.00  0.00    +0.000 A 
ATOM     19  C   UNL     1       8.346   6.969  18.809  0.00  0.00    +0.000 A 
ATOM     20  C   UNL     1       7.847   5.680  18.997  0.00  0.00    +0.000 A 
ATOM     21  C   UNL     1       6.695   5.269  18.325  0.00  0.00    +0.000 A 
ATOM     22  C   UNL     1       6.028   6.141  17.450  0.00  0.00    +0.000 A 
ATOM     23  C   UNL     1       6.527   7.445  17.289  0.00  0.00    +0.000 A 
ENDBRANCH  16  22
ENDBRANCH   1  16
TORSDOF 3
ENDMDL
MODEL 4
REMARK VINA RESULT:      -7.7      3.406      5.917
REMARK  Name = 
REMARK  4 active torsions:
REMARK  status: ('A' for Active; 'I' for Inactive)
REMARK    1  A    between atoms: C_1  and  C_2
REMARK    2  A    between atoms: C_6  and  C_7
REMARK    3  A    between atoms: C_7  and  C_8
REMARK    4  A    between atoms: C_12  and  O_13
REMARK                            x       y       z     vdW  Elec       q    Type
REMARK                         _______ _______ _______ _____ _____    ______ ____
ROOT
ATOM      1  C   UNL     1       3.839   4.254  17.461  0.00  0.00    +0.000 A 
ATOM      2  C   UNL     1       3.660   2.880  17.524  0.00  0.00    +0.000 A 
ATOM      3  N   UNL     1       2.799   2.599  18.554  0.00  0.00    +0.000 N 
ATOM      4  C   UNL     1       2.432   3.759  19.186  0.00  0.00    +0.000 A 
ATOM      5  C   UNL     1       1.645   4.049  20.279  0.00  0.00    +0.000 A 
ATOM      6  N   UNL     1       1.519   5.321  20.678  0.00  0.00    +0.000 NA
ATOM      7  C   UNL     1       2.177   6.268  19.999  0.00  0.00    +0.000 A 
ATOM      8  N   UNL     1       2.033   7.561  20.466  0.00  0.00    +0.000 N 
ATOM      9  N   UNL     1       2.932   6.091  18.912  0.00  0.00    +0.000 NA
ATOM     10  C   UNL     1       3.060   4.805  18.521  0.00  0.00    +0.000 A 
ATOM     11  H   UNL     1       2.522   1.667  18.829  0.00  0.00    +0.000 HD
ATOM     12  H   UNL     1       1.186   7.625  21.013  0.00  0.00    +0.000 HD
ATOM     13  H   UNL     1       2.153   8.217  19.708  0.00  0.00    +0.000 HD
ENDROOT
BRANCH   5  14
ATOM     14  O   UNL     1       0.976   3.119  21.030  0.00  0.00    +0.000 OA
ATOM     15  H   UNL     1       0.229   3.555  21.455  0.00  0.00    +0.000 HD
ENDBRANCH   5  14
BRANCH   1  16
ATOM     16  C   UNL     1       4.768   4.998  16.562  0.00  0.00    +0.000 C 
BRANCH  16  22
ATOM     17  C   UNL     1       7.916   8.802  17.629  0.00  0.00    +0.000 C 
ATOM     18  C   UNL     1       7.438   7.403  17.890  0.00  0.00    +0.000 A 
ATOM     19  C   UNL     1       8.125   6.569  18.777  0.00  0.00    +0.000 A 
ATOM     20  C   UNL     1       7.694   5.260  18.988  0.00  0.00    +0.000 A 
ATOM     21  C   UNL     1       6.582   4.768  18.304  0.00  0.00    +0.000 A 
ATOM     22  C   UNL     1       5.886   5.578  17.394  0.00  0.00    +0.000 A 
ATOM     23  C   UNL     1       6.315   6.904  17.210  0.00  0.00    +0.000 A 
ENDBRANCH  16  22
ENDBRANCH   1  16
TORSDOF 3
ENDMDL
MODEL 5
REMARK VINA RESULT:      -7.7      3.314      4.258
REMARK  Name = 
REMARK  4 active torsions:
REMARK  status: ('A' for Active; 'I' for Inactive)
REMARK    1  A    between atoms: C_1  and  C_2
REMARK    2  A    between atoms: C_6  and  C_7
REMARK    3  A    between atoms: C_7  and  C_8
REMARK    4  A    between atoms: C_12  and  O_13
REMARK                            x       y       z     vdW  Elec       q    Type
REMARK                         _______ _______ _______ _____ _____    ______ ____
ROOT
ATOM      1  C   UNL     1       4.051   5.266  18.252  0.00  0.00    +0.000 A 
ATOM      2  C   UNL     1       4.527   4.857  19.488  0.00  0.00    +0.000 A 
ATOM      3  N   UNL     1       5.855   4.538  19.361  0.00  0.00    +0.000 N 
ATOM      4  C   UNL     1       6.252   4.703  18.059  0.00  0.00    +0.000 A 
ATOM      5  C   UNL     1       7.433   4.491  17.381  0.00  0.00    +0.000 A 
ATOM      6  N   UNL     1       7.483   4.716  16.062  0.00  0.00    +0.000 NA
ATOM      7  C   UNL     1       6.370   5.133  15.447  0.00  0.00    +0.000 A 
ATOM      8  N   UNL     1       6.468   5.329  14.082  0.00  0.00    +0.000 N 
ATOM      9  N   UNL     1       5.193   5.400  16.020  0.00  0.00    +0.000 NA
ATOM     10  C   UNL     1       5.150   5.163  17.349  0.00  0.00    +0.000 A 
ATOM     11  H   UNL     1       6.433   4.186  20.112  0.00  0.00    +0.000 HD
ATOM     12  H   UNL     1       7.437   5.468  13.835  0.00  0.00    +0.000 HD
ATOM     13  H   UNL     1       5.802   6.027  13.785  0.00  0.00    +0.000 HD
ENDROOT
BRANCH   5  14
ATOM     14  O   UNL     1       8.591   4.033  17.953  0.00  0.00    +0.000 OA
ATOM     15  H   UNL     1       9.127   4.796  18.199  0.00  0.00    +0.000 HD
ENDBRANCH   5  14
BRANCH   1  16
ATOM     16  C   UNL     1       2.642   5.609  17.900  0.00  0.00    +0.000 C 
BRANCH  16  22
ATOM     17  C   UNL     1       1.127   8.623  21.661  0.00  0.00    +0.000 C 
ATOM     18  C   UNL     1       1.564   8.449  20.236  0.00  0.00    +0.000 A 
ATOM     19  C   UNL     1       1.528   9.524  19.343  0.00  0.00    +0.000 A 
ATOM     20  C   UNL     1       1.904   9.346  18.012  0.00  0.00    +0.000 A 
ATOM     21  C   UNL     1       2.307   8.089  17.558  0.00  0.00    +0.000 A 
ATOM     22  C   UNL     1       2.334   6.990  18.429  0.00  0.00    +0.000 A 
ATOM     23  C   UNL     1       1.977   7.188  19.774  0.00  0.00    +0.000 A 
ENDBRANCH  16  22
ENDBRANCH   1  16
TORSDOF 3
ENDMDL
MODEL 6
REMARK VINA RESULT:      -7.6      3.449      5.867
REMARK  Name = 
REMARK  4 active torsions:
REMARK  status: ('A' for Active; 'I' for Inactive)
REMARK    1  A    between atoms: C_1  and  C_2
REMARK    2  A    between atoms: C_6  and  C_7
REMARK    3  A    between atoms: C_7  and  C_8
REMARK    4  A    between atoms: C_12  and  O_13
REMARK                            x       y       z     vdW  Elec       q    Type
REMARK                         _______ _______ _______ _____ _____    ______ ____
ROOT
ATOM      1  C   UNL     1       3.154   6.006  18.789  0.00  0.00    +0.000 A 
ATOM      2  C   UNL     1       2.605   6.680  19.869  0.00  0.00    +0.000 A 
ATOM      3  N   UNL     1       2.296   5.765  20.843  0.00  0.00    +0.000 N 
ATOM      4  C   UNL     1       2.604   4.501  20.411  0.00  0.00    +0.000 A 
ATOM      5  C   UNL     1       2.462   3.241  20.951  0.00  0.00    +0.000 A 
ATOM      6  N   UNL     1       2.834   2.173  20.233  0.00  0.00    +0.000 NA
ATOM      7  C   UNL     1       3.324   2.375  19.004  0.00  0.00    +0.000 A 
ATOM      8  N   UNL     1       3.671   1.239  18.295  0.00  0.00    +0.000 N 
ATOM      9  N   UNL     1       3.531   3.552  18.410  0.00  0.00    +0.000 NA
ATOM     10  C   UNL     1       3.146   4.623  19.138  0.00  0.00    +0.000 A 
ATOM     11  H   UNL     1       1.859   5.995  21.725  0.00  0.00    +0.000 HD
ATOM     12  H   UNL     1       3.831   0.480  18.942  0.00  0.00    +0.000 HD
ATOM     13  H   UNL     1       4.402   1.455  17.634  0.00  0.00    +0.000 HD
ENDROOT
BRANCH   5  14
ATOM     14  O   UNL     1       1.937   2.975  22.188  0.00  0.00    +0.000 OA
ATOM     15  H   UNL     1       2.662   2.945  22.823  0.00  0.00    +0.000 HD
ENDBRANCH   5  14
BRANCH   1  16
ATOM     16  C   UNL     1       3.542   6.586  17.471  0.00  0.00    +0.000 C 
BRANCH  16  22
ATOM     17  C   UNL     1       6.407   3.969  14.237  0.00  0.00    +0.000 C 
ATOM     18  C   UNL     1       6.268   4.724  15.526  0.00  0.00    +0.000 A 
ATOM     19  C   UNL     1       7.322   4.770  16.444  0.00  0.00    +0.000 A 
ATOM     20  C   UNL     1       7.173   5.445  17.654  0.00  0.00    +0.000 A 
ATOM     21  C   UNL     1       5.964   6.070  17.965  0.00  0.00    +0.000 A 
ATOM     22  C   UNL     1       4.885   6.023  17.070  0.00  0.00    +0.000 A 
ATOM     23  C   UNL     1       5.056   5.361  15.842  0.00  0.00    +0.000 A 
ENDBRANCH  16  22
ENDBRANCH   1  16
TORSDOF 3
ENDMDL
MODEL 7
REMARK VINA RESULT:      -7.6      2.618      3.382
REMARK  Name = 
REMARK  4 active torsions:
REMARK  status: ('A' for Active; 'I' for Inactive)
REMARK    1  A    between atoms: C_1  and  C_2
REMARK    2  A    between atoms: C_6  and  C_7
REMARK    3  A    between atoms: C_7  and  C_8
REMARK    4  A    between atoms: C_12  and  O_13
REMARK                            x       y       z     vdW  Elec       q    Type
REMARK                         _______ _______ _______ _____ _____    ______ ____
ROOT
ATOM      1  C   UNL     1       3.895   4.052  18.292  0.00  0.00    +0.000 A 
ATOM      2  C   UNL     1       3.560   3.787  16.972  0.00  0.00    +0.000 A 
ATOM      3  N   UNL     1       4.676   3.961  16.194  0.00  0.00    +0.000 N 
ATOM      4  C   UNL     1       5.730   4.363  16.974  0.00  0.00    +0.000 A 
ATOM      5  C   UNL     1       7.037   4.713  16.713  0.00  0.00    +0.000 A 
ATOM      6  N   UNL     1       7.823   5.113  17.721  0.00  0.00    +0.000 NA
ATOM      7  C   UNL     1       7.299   5.166  18.952  0.00  0.00    +0.000 A 
ATOM      8  N   UNL     1       8.144   5.607  19.953  0.00  0.00    +0.000 N 
ATOM      9  N   UNL     1       6.061   4.815  19.308  0.00  0.00    +0.000 NA
ATOM     10  C   UNL     1       5.273   4.420  18.284  0.00  0.00    +0.000 A 
ATOM     11  H   UNL     1       4.694   3.855  15.189  0.00  0.00    +0.000 HD
ATOM     12  H   UNL     1       9.103   5.478  19.660  0.00  0.00    +0.000 HD
ATOM     13  H   UNL     1       7.866   5.211  20.839  0.00  0.00    +0.000 HD
ENDROOT
BRANCH   5  14
ATOM     14  O   UNL     1       7.615   4.710  15.471  0.00  0.00    +0.000 OA
ATOM     15  H   UNL     1       8.095   5.538  15.360  0.00  0.00    +0.000 HD
ENDBRANCH   5  14
BRANCH   1  16
ATOM     16  C   UNL     1       2.973   4.086  19.464  0.00  0.00    +0.000 C 
BRANCH  16  22
ATOM     17  C   UNL     1       2.438   8.785  17.687  0.00  0.00    +0.000 C 
ATOM     18  C   UNL     1       2.191   7.772  18.767  0.00  0.00    +0.000 A 
ATOM     19  C   UNL     1       1.603   8.149  19.978  0.00  0.00    +0.000 A 
ATOM     20  C   UNL     1       1.408   7.208  20.989  0.00  0.00    +0.000 A 
ATOM     21  C   UNL     1       1.811   5.885  20.803  0.00  0.00    +0.000 A 
ATOM     22  C   UNL     1       2.421   5.485  19.605  0.00  0.00    +0.000 A 
ATOM     23  C   UNL     1       2.589   6.437  18.584  0.00  0.00    +0.000 A 
ENDBRANCH  16  22
ENDBRANCH   1  16
TORSDOF 3
ENDMDL
MODEL 8
REMARK VINA RESULT:      -7.5      2.996      3.437
REMARK  Name = 
REMARK  4 active torsions:
REMARK  status: ('A' for Active; 'I' for Inactive)
REMARK    1  A    between atoms: C_1  and  C_2
REMARK    2  A    between atoms: C_6  and  C_7
REMARK    3  A    between atoms: C_7  and  C_8
REMARK    4  A    between atoms: C_12  and  O_13
REMARK                            x       y       z     vdW  Elec       q    Type
REMARK                         _______ _______ _______ _____ _____    ______ ____
ROOT
ATOM      1  C   UNL     1       3.848   4.545  18.431  0.00  0.00    +0.000 A 
ATOM      2  C   UNL     1       3.525   4.209  17.125  0.00  0.00    +0.000 A 
ATOM      3  N   UNL     1       4.682   4.154  16.390  0.00  0.00    +0.000 N 
ATOM      4  C   UNL     1       5.754   4.475  17.182  0.00  0.00    +0.000 A 
ATOM      5  C   UNL     1       7.106   4.615  16.956  0.00  0.00    +0.000 A 
ATOM      6  N   UNL     1       7.904   4.992  17.963  0.00  0.00    +0.000 NA
ATOM      7  C   UNL     1       7.349   5.231  19.157  0.00  0.00    +0.000 A 
ATOM      8  N   UNL     1       8.213   5.640  20.157  0.00  0.00    +0.000 N 
ATOM      9  N   UNL     1       6.062   5.090  19.482  0.00  0.00    +0.000 NA
ATOM     10  C   UNL     1       5.263   4.716  18.459  0.00  0.00    +0.000 A 
ATOM     11  H   UNL     1       4.721   3.954  15.400  0.00  0.00    +0.000 HD
ATOM     12  H   UNL     1       9.153   5.353  19.923  0.00  0.00    +0.000 HD
ATOM     13  H   UNL     1       7.849   5.370  21.059  0.00  0.00    +0.000 HD
ENDROOT
BRANCH   5  14
ATOM     14  O   UNL     1       7.722   4.417  15.749  0.00  0.00    +0.000 OA
ATOM     15  H   UNL     1       7.455   5.127  15.154  0.00  0.00    +0.000 HD
ENDBRANCH   5  14
BRANCH   1  16
ATOM     16  C   UNL     1       2.898   4.815  19.550  0.00  0.00    +0.000 C 
BRANCH  16  22
ATOM     17  C   UNL     1       0.724   8.833  21.706  0.00  0.00    +0.000 C 
ATOM     18  C   UNL     1       1.406   8.206  20.524  0.00  0.00    +0.000 A 
ATOM     19  C   UNL     1       1.518   8.900  19.316  0.00  0.00    +0.000 A 
ATOM     20  C   UNL     1       2.123   8.298  18.212  0.00  0.00    +0.000 A 
ATOM     21  C   UNL     1       2.609   6.993  18.304  0.00  0.00    +0.000 A 
ATOM     22  C   UNL     1       2.492   6.268  19.499  0.00  0.00    +0.000 A 
ATOM     23  C   UNL     1       1.903   6.895  20.611  0.00  0.00    +0.000 A 
ENDBRANCH  16  22
ENDBRANCH   1  16
TORSDOF 3
ENDMDL
MODEL 9
REMARK VINA RESULT:      -7.5      1.960      3.139
REMARK  Name = 
REMARK  4 active torsions:
REMARK  status: ('A' for Active; 'I' for Inactive)
REMARK    1  A    between atoms: C_1  and  C_2
REMARK    2  A    between atoms: C_6  and  C_7
REMARK    3  A    between atoms: C_7  and  C_8
REMARK    4  A    between atoms: C_12  and  O_13
REMARK                            x       y       z     vdW  Elec       q    Type
REMARK                         _______ _______ _______ _____ _____    ______ ____
ROOT
ATOM      1  C   UNL     1       4.382   5.606  18.375  0.00  0.00    +0.000 A 
ATOM      2  C   UNL     1       5.040   5.522  19.593  0.00  0.00    +0.000 A 
ATOM      3  N   UNL     1       6.322   5.088  19.368  0.00  0.00    +0.000 N 
ATOM      4  C   UNL     1       6.509   4.859  18.029  0.00  0.00    +0.000 A 
ATOM      5  C   UNL     1       7.559   4.386  17.274  0.00  0.00    +0.000 A 
ATOM      6  N   UNL     1       7.403   4.234  15.953  0.00  0.00    +0.000 NA
ATOM      7  C   UNL     1       6.216   4.541  15.415  0.00  0.00    +0.000 A 
ATOM      8  N   UNL     1       6.098   4.344  14.051  0.00  0.00    +0.000 N 
ATOM      9  N   UNL     1       5.154   5.037  16.054  0.00  0.00    +0.000 NA
ATOM     10  C   UNL     1       5.319   5.180  17.388  0.00  0.00    +0.000 A 
ATOM     11  H   UNL     1       7.004   4.919  20.094  0.00  0.00    +0.000 HD
ATOM     12  H   UNL     1       7.019   4.341  13.635  0.00  0.00    +0.000 HD
ATOM     13  H   UNL     1       5.412   4.978  13.669  0.00  0.00    +0.000 HD
ENDROOT
BRANCH   5  14
ATOM     14  O   UNL     1       8.782   4.025  17.775  0.00  0.00    +0.000 OA
ATOM     15  H   UNL     1       8.766   3.078  17.956  0.00  0.00    +0.000 HD
ENDBRANCH   5  14
BRANCH   1  16
ATOM     16  C   UNL     1       2.945   5.936  18.152  0.00  0.00    +0.000 C 
BRANCH  16  22
ATOM     17  C   UNL     1       1.359   2.902  21.867  0.00  0.00    +0.000 C 
ATOM     18  C   UNL     1       1.361   3.280  20.414  0.00  0.00    +0.000 A 
ATOM     19  C   UNL     1       0.728   2.471  19.466  0.00  0.00    +0.000 A 
ATOM     20  C   UNL     1       0.763   2.811  18.114  0.00  0.00    +0.000 A 
ATOM     21  C   UNL     1       1.443   3.957  17.696  0.00  0.00    +0.000 A 
ATOM     22  C   UNL     1       2.102   4.775  18.626  0.00  0.00    +0.000 A 
ATOM     23  C   UNL     1       2.038   4.435  19.988  0.00  0.00    +0.000 A 
ENDBRANCH  16  22
ENDBRANCH   1  16
TORSDOF 3
ENDMDL
