MODEL 1
REMARK VINA RESULT:      -7.5      0.000      0.000
REMARK  Name = 
REMARK  16 active torsions:
REMARK  status: ('A' for Active; 'I' for Inactive)
REMARK    1  A    between atoms: C_1  and  C_2
REMARK    2  A    between atoms: C_2  and  C_3
REMARK    3  A    between atoms: C_3  and  C_4
REMARK    4  A    between atoms: C_4  and  N_5
REMARK    5  A    between atoms: N_5  and  C_6
REMARK    6  A    between atoms: N_5  and  C_10
REMARK    7  A    between atoms: C_6  and  C_7
REMARK    8  A    between atoms: C_7  and  C_8
REMARK    9  A    between atoms: C_8  and  C_9
REMARK   10  A    between atoms: C_10  and  C_11
REMARK   11  A    between atoms: C_11  and  C_12
REMARK   12  A    between atoms: C_12  and  O_13
REMARK   13  A    between atoms: O_13  and  C_14
REMARK   14  A    between atoms: C_17  and  C_18
REMARK   15  A    between atoms: C_18  and  C_20
REMARK   16  A    between atoms: C_26  and  C_27
REMARK                            x       y       z     vdW  Elec       q    Type
REMARK                         _______ _______ _______ _____ _____    ______ ____
ROOT
ATOM      1  C   UNL     1       2.751   7.344  18.587  0.00  0.00    +0.000 A 
ATOM      2  C   UNL     1       2.530   8.395  17.676  0.00  0.00    +0.000 A 
ATOM      3  C   UNL     1       1.749   9.488  18.038  0.00  0.00    +0.000 A 
ATOM      4  C   UNL     1       1.182   9.571  19.321  0.00  0.00    +0.000 A 
ATOM      5  C   UNL     1       1.419   8.516  20.231  0.00  0.00    +0.000 A 
ATOM      6  C   UNL     1       2.192   7.418  19.862  0.00  0.00    +0.000 A 
ENDROOT
BRANCH   4   7
ATOM      7  C   UNL     1       0.323  10.738  19.664  0.00  0.00    +0.000 C 
ATOM      8  O   UNL     1       0.718  11.541  20.498  0.00  0.00    +0.000 OA
BRANCH   7   9
ATOM      9  C   UNL     1      -0.997  10.974  19.043  0.00  0.00    +0.000 A 
ATOM     10  C   UNL     1      -2.048  11.670  19.620  0.00  0.00    +0.000 A 
ATOM     11  N   UNL     1      -3.064  11.639  18.743  0.00  0.00    +0.000 N 
ATOM     12  C   UNL     1      -4.299  12.184  18.827  0.00  0.00    +0.000 A 
ATOM     13  C   UNL     1      -5.183  11.989  17.754  0.00  0.00    +0.000 A 
ATOM     14  C   UNL     1      -4.767  11.235  16.639  0.00  0.00    +0.000 A 
ATOM     15  C   UNL     1      -3.473  10.682  16.593  0.00  0.00    +0.000 A 
ATOM     16  C   UNL     1      -3.003   9.862  15.426  0.00  0.00    +0.000 C 
ATOM     17  C   UNL     1      -2.637  10.925  17.688  0.00  0.00    +0.000 A 
ATOM     18  N   UNL     1      -1.372  10.499  17.835  0.00  0.00    +0.000 NA
ENDBRANCH   7   9
ENDBRANCH   4   7
BRANCH   1  19
ATOM     19  O   UNL     1       3.471   6.244  18.266  0.00  0.00    +0.000 OA
BRANCH  19  20
ATOM     20  C   UNL     1       3.201   4.976  18.726  0.00  0.00    +0.000 C 
BRANCH  20  21
ATOM     21  C   UNL     1       4.413   4.087  18.505  0.00  0.00    +0.000 C 
BRANCH  21  22
ATOM     22  C   UNL     1       4.543   3.761  17.008  0.00  0.00    +0.000 C 
BRANCH  22  23
ATOM     23  N   UNL     1       5.855   4.136  16.410  0.00  0.00    +0.000 NA
BRANCH  23  24
ATOM     24  C   UNL     1       5.604   5.021  15.232  0.00  0.00    +0.000 C 
BRANCH  24  25
ATOM     25  C   UNL     1       5.201   4.336  13.912  0.00  0.00    +0.000 C 
BRANCH  25  27
ATOM     26  C   UNL     1       5.849   2.959  11.921  0.00  0.00    +0.000 C 
ATOM     27  C   UNL     1       6.366   3.666  13.175  0.00  0.00    +0.000 C 
ENDBRANCH  25  27
ENDBRANCH  24  25
ENDBRANCH  23  24
BRANCH  23  28
ATOM     28  C   UNL     1       6.680   4.832  17.441  0.00  0.00    +0.000 C 
BRANCH  28  29
ATOM     29  C   UNL     1       7.050   6.308  17.111  0.00  0.00    +0.000 C 
BRANCH  29  30
ATOM     30  C   UNL     1       7.814   7.060  18.216  0.00  0.00    +0.000 C 
ATOM     31  C   UNL     1       8.113   8.510  17.842  0.00  0.00    +0.000 C 
ENDBRANCH  29  30
ENDBRANCH  28  29
ENDBRANCH  23  28
ENDBRANCH  22  23
ENDBRANCH  21  22
ENDBRANCH  20  21
ENDBRANCH  19  20
ENDBRANCH   1  19
TORSDOF 13
ENDMDL
MODEL 2
REMARK VINA RESULT:      -7.5      1.014      2.777
REMARK  Name = 
REMARK  16 active torsions:
REMARK  status: ('A' for Active; 'I' for Inactive)
REMARK    1  A    between atoms: C_1  and  C_2
REMARK    2  A    between atoms: C_2  and  C_3
REMARK    3  A    between atoms: C_3  and  C_4
REMARK    4  A    between atoms: C_4  and  N_5
REMARK    5  A    between atoms: N_5  and  C_6
REMARK    6  A    between atoms: N_5  and  C_10
REMARK    7  A    between atoms: C_6  and  C_7
REMARK    8  A    between atoms: C_7  and  C_8
REMARK    9  A    between atoms: C_8  and  C_9
REMARK   10  A    between atoms: C_10  and  C_11
REMARK   11  A    between atoms: C_11  and  C_12
REMARK   12  A    between atoms: C_12  and  O_13
REMARK   13  A    between atoms: O_13  and  C_14
REMARK   14  A    between atoms: C_17  and  C_18
REMARK   15  A    between atoms: C_18  and  C_20
REMARK   16  A    between atoms: C_26  and  C_27
REMARK                            x       y       z     vdW  Elec       q    Type
REMARK                         _______ _______ _______ _____ _____    ______ ____
ROOT
ATOM      1  C   UNL     1       2.265   7.466  19.403  0.00  0.00    +0.000 A 
ATOM      2  C   UNL     1       2.349   8.197  18.204  0.00  0.00    +0.000 A 
ATOM      3  C   UNL     1       1.739   9.443  18.094  0.00  0.00    +0.000 A 
ATOM      4  C   UNL     1       1.045   9.999  19.182  0.00  0.00    +0.000 A 
ATOM      5  C   UNL     1       0.976   9.262  20.384  0.00  0.00    +0.000 A 
ATOM      6  C   UNL     1       1.578   8.009  20.487  0.00  0.00    +0.000 A 
ENDROOT
BRANCH   4   7
ATOM      7  C   UNL     1       0.375  11.319  19.020  0.00  0.00    +0.000 C 
ATOM      8  O   UNL     1       1.035  12.340  19.154  0.00  0.00    +0.000 OA
BRANCH   7   9
ATOM      9  C   UNL     1      -1.062  11.458  18.706  0.00  0.00    +0.000 A 
ATOM     10  C   UNL     1      -2.034  11.943  19.566  0.00  0.00    +0.000 A 
ATOM     11  N   UNL     1      -3.202  11.886  18.907  0.00  0.00    +0.000 N 
ATOM     12  C   UNL     1      -4.441  12.257  19.304  0.00  0.00    +0.000 A 
ATOM     13  C   UNL     1      -5.504  12.080  18.406  0.00  0.00    +0.000 A 
ATOM     14  C   UNL     1      -5.257  11.519  17.137  0.00  0.00    +0.000 A 
ATOM     15  C   UNL     1      -3.952  11.143  16.764  0.00  0.00    +0.000 A 
ATOM     16  C   UNL     1      -3.655  10.532  15.425  0.00  0.00    +0.000 C 
ATOM     17  C   UNL     1      -2.935  11.361  17.700  0.00  0.00    +0.000 A 
ATOM     18  N   UNL     1      -1.631  11.083  17.538  0.00  0.00    +0.000 NA
ENDBRANCH   7   9
ENDBRANCH   4   7
BRANCH   1  19
ATOM     19  O   UNL     1       2.809   6.234  19.543  0.00  0.00    +0.000 OA
BRANCH  19  20
ATOM     20  C   UNL     1       2.193   5.064  19.162  0.00  0.00    +0.000 C 
BRANCH  20  21
ATOM     21  C   UNL     1       2.592   4.721  17.736  0.00  0.00    +0.000 C 
BRANCH  21  22
ATOM     22  C   UNL     1       4.123   4.785  17.603  0.00  0.00    +0.000 C 
BRANCH  22  23
ATOM     23  N   UNL     1       4.608   5.060  16.222  0.00  0.00    +0.000 NA
BRANCH  23  24
ATOM     24  C   UNL     1       5.302   6.384  16.218  0.00  0.00    +0.000 C 
BRANCH  24  25
ATOM     25  C   UNL     1       5.843   6.899  17.565  0.00  0.00    +0.000 C 
BRANCH  25  27
ATOM     26  C   UNL     1       8.067   6.654  18.692  0.00  0.00    +0.000 C 
ATOM     27  C   UNL     1       7.320   7.307  17.529  0.00  0.00    +0.000 C 
ENDBRANCH  25  27
ENDBRANCH  24  25
ENDBRANCH  23  24
BRANCH  23  28
ATOM     28  C   UNL     1       5.530   3.966  15.801  0.00  0.00    +0.000 C 
BRANCH  28  29
ATOM     29  C   UNL     1       6.838   4.433  15.096  0.00  0.00    +0.000 C 
BRANCH  29  30
ATOM     30  C   UNL     1       6.774   4.492  13.559  0.00  0.00    +0.000 C 
ATOM     31  C   UNL     1       5.774   3.498  12.973  0.00  0.00    +0.000 C 
ENDBRANCH  29  30
ENDBRANCH  28  29
ENDBRANCH  23  28
ENDBRANCH  22  23
ENDBRANCH  21  22
ENDBRANCH  20  21
ENDBRANCH  19  20
ENDBRANCH   1  19
TORSDOF 13
ENDMDL
MODEL 3
REMARK VINA RESULT:      -7.4      0.826      1.318
REMARK  Name = 
REMARK  16 active torsions:
REMARK  status: ('A' for Active; 'I' for Inactive)
REMARK    1  A    between atoms: C_1  and  C_2
REMARK    2  A    between atoms: C_2  and  C_3
REMARK    3  A    between atoms: C_3  and  C_4
REMARK    4  A    between atoms: C_4  and  N_5
REMARK    5  A    between atoms: N_5  and  C_6
REMARK    6  A    between atoms: N_5  and  C_10
REMARK    7  A    between atoms: C_6  and  C_7
REMARK    8  A    between atoms: C_7  and  C_8
REMARK    9  A    between atoms: C_8  and  C_9
REMARK   10  A    between atoms: C_10  and  C_11
REMARK   11  A    between atoms: C_11  and  C_12
REMARK   12  A    between atoms: C_12  and  O_13
REMARK   13  A    between atoms: O_13  and  C_14
REMARK   14  A    between atoms: C_17  and  C_18
REMARK   15  A    between atoms: C_18  and  C_20
REMARK   16  A    between atoms: C_26  and  C_27
REMARK                            x       y       z     vdW  Elec       q    Type
REMARK                         _______ _______ _______ _____ _____    ______ ____
ROOT
ATOM      1  C   UNL     1       2.819   7.087  18.729  0.00  0.00    +0.000 A 
ATOM      2  C   UNL     1       2.112   7.217  19.939  0.00  0.00    +0.000 A 
ATOM      3  C   UNL     1       1.357   8.358  20.194  0.00  0.00    +0.000 A 
ATOM      4  C   UNL     1       1.274   9.389  19.244  0.00  0.00    +0.000 A 
ATOM      5  C   UNL     1       1.978   9.243  18.028  0.00  0.00    +0.000 A 
ATOM      6  C   UNL     1       2.742   8.105  17.780  0.00  0.00    +0.000 A 
ENDROOT
BRANCH   4   7
ATOM      7  C   UNL     1       0.485  10.612  19.563  0.00  0.00    +0.000 C 
ATOM      8  O   UNL     1       0.955  11.435  20.336  0.00  0.00    +0.000 OA
BRANCH   7   9
ATOM      9  C   UNL     1      -0.850  10.879  18.990  0.00  0.00    +0.000 A 
ATOM     10  C   UNL     1      -1.888  11.536  19.633  0.00  0.00    +0.000 A 
ATOM     11  N   UNL     1      -2.925  11.553  18.781  0.00  0.00    +0.000 N 
ATOM     12  C   UNL     1      -4.160  12.086  18.927  0.00  0.00    +0.000 A 
ATOM     13  C   UNL     1      -5.069  11.953  17.866  0.00  0.00    +0.000 A 
ATOM     14  C   UNL     1      -4.678  11.268  16.698  0.00  0.00    +0.000 A 
ATOM     15  C   UNL     1      -3.384  10.724  16.588  0.00  0.00    +0.000 A 
ATOM     16  C   UNL     1      -2.941   9.978  15.362  0.00  0.00    +0.000 C 
ATOM     17  C   UNL     1      -2.523  10.905  17.675  0.00  0.00    +0.000 A 
ATOM     18  N   UNL     1      -1.253  10.475  17.765  0.00  0.00    +0.000 NA
ENDBRANCH   7   9
ENDBRANCH   4   7
BRANCH   1  19
ATOM     19  O   UNL     1       3.596   6.013  18.453  0.00  0.00    +0.000 OA
BRANCH  19  20
ATOM     20  C   UNL     1       3.160   4.708  18.490  0.00  0.00    +0.000 C 
BRANCH  20  21
ATOM     21  C   UNL     1       3.680   3.965  17.269  0.00  0.00    +0.000 C 
BRANCH  21  22
ATOM     22  C   UNL     1       4.516   4.923  16.405  0.00  0.00    +0.000 C 
BRANCH  22  23
ATOM     23  N   UNL     1       5.628   4.266  15.662  0.00  0.00    +0.000 NA
BRANCH  23  24
ATOM     24  C   UNL     1       5.344   4.362  14.198  0.00  0.00    +0.000 C 
BRANCH  24  25
ATOM     25  C   UNL     1       6.441   3.870  13.235  0.00  0.00    +0.000 C 
BRANCH  25  27
ATOM     26  C   UNL     1       4.539   3.333  11.693  0.00  0.00    +0.000 C 
ATOM     27  C   UNL     1       5.935   2.910  12.152  0.00  0.00    +0.000 C 
ENDBRANCH  25  27
ENDBRANCH  24  25
ENDBRANCH  23  24
BRANCH  23  28
ATOM     28  C   UNL     1       6.912   4.943  16.008  0.00  0.00    +0.000 C 
BRANCH  28  29
ATOM     29  C   UNL     1       7.532   4.535  17.377  0.00  0.00    +0.000 C 
BRANCH  29  30
ATOM     30  C   UNL     1       7.050   5.353  18.589  0.00  0.00    +0.000 C 
ATOM     31  C   UNL     1       8.199   6.024  19.339  0.00  0.00    +0.000 C 
ENDBRANCH  29  30
ENDBRANCH  28  29
ENDBRANCH  23  28
ENDBRANCH  22  23
ENDBRANCH  21  22
ENDBRANCH  20  21
ENDBRANCH  19  20
ENDBRANCH   1  19
TORSDOF 13
ENDMDL
MODEL 4
REMARK VINA RESULT:      -7.3      1.358      2.683
REMARK  Name = 
REMARK  16 active torsions:
REMARK  status: ('A' for Active; 'I' for Inactive)
REMARK    1  A    between atoms: C_1  and  C_2
REMARK    2  A    between atoms: C_2  and  C_3
REMARK    3  A    between atoms: C_3  and  C_4
REMARK    4  A    between atoms: C_4  and  N_5
REMARK    5  A    between atoms: N_5  and  C_6
REMARK    6  A    between atoms: N_5  and  C_10
REMARK    7  A    between atoms: C_6  and  C_7
REMARK    8  A    between atoms: C_7  and  C_8
REMARK    9  A    between atoms: C_8  and  C_9
REMARK   10  A    between atoms: C_10  and  C_11
REMARK   11  A    between atoms: C_11  and  C_12
REMARK   12  A    between atoms: C_12  and  O_13
REMARK   13  A    between atoms: O_13  and  C_14
REMARK   14  A    between atoms: C_17  and  C_18
REMARK   15  A    between atoms: C_18  and  C_20
REMARK   16  A    between atoms: C_26  and  C_27
REMARK                            x       y       z     vdW  Elec       q    Type
REMARK                         _______ _______ _______ _____ _____    ______ ____
ROOT
ATOM      1  C   UNL     1       2.291   7.226  19.061  0.00  0.00    +0.000 A 
ATOM      2  C   UNL     1       2.292   8.038  17.911  0.00  0.00    +0.000 A 
ATOM      3  C   UNL     1       1.710   9.302  17.942  0.00  0.00    +0.000 A 
ATOM      4  C   UNL     1       1.129   9.795  19.122  0.00  0.00    +0.000 A 
ATOM      5  C   UNL     1       1.144   8.976  20.273  0.00  0.00    +0.000 A 
ATOM      6  C   UNL     1       1.716   7.706  20.236  0.00  0.00    +0.000 A 
ENDROOT
BRANCH   4   7
ATOM      7  C   UNL     1       0.485  11.138  19.111  0.00  0.00    +0.000 C 
ATOM      8  O   UNL     1       1.155  12.120  19.399  0.00  0.00    +0.000 OA
BRANCH   7   9
ATOM      9  C   UNL     1      -0.938  11.344  18.770  0.00  0.00    +0.000 A 
ATOM     10  C   UNL     1      -1.911  11.833  19.626  0.00  0.00    +0.000 A 
ATOM     11  N   UNL     1      -3.064  11.847  18.939  0.00  0.00    +0.000 N 
ATOM     12  C   UNL     1      -4.298  12.250  19.322  0.00  0.00    +0.000 A 
ATOM     13  C   UNL     1      -5.345  12.148  18.393  0.00  0.00    +0.000 A 
ATOM     14  C   UNL     1      -5.088  11.628  17.109  0.00  0.00    +0.000 A 
ATOM     15  C   UNL     1      -3.789  11.216  16.752  0.00  0.00    +0.000 A 
ATOM     16  C   UNL     1      -3.484  10.645  15.397  0.00  0.00    +0.000 C 
ATOM     17  C   UNL     1      -2.789  11.358  17.719  0.00  0.00    +0.000 A 
ATOM     18  N   UNL     1      -1.492  11.036  17.576  0.00  0.00    +0.000 NA
ENDBRANCH   7   9
ENDBRANCH   4   7
BRANCH   1  19
ATOM     19  O   UNL     1       2.811   5.976  19.067  0.00  0.00    +0.000 OA
BRANCH  19  20
ATOM     20  C   UNL     1       3.987   5.626  19.688  0.00  0.00    +0.000 C 
BRANCH  20  21
ATOM     21  C   UNL     1       5.136   5.735  18.698  0.00  0.00    +0.000 C 
BRANCH  21  22
ATOM     22  C   UNL     1       5.485   4.337  18.162  0.00  0.00    +0.000 C 
BRANCH  22  23
ATOM     23  N   UNL     1       4.574   3.845  17.092  0.00  0.00    +0.000 NA
BRANCH  23  24
ATOM     24  C   UNL     1       5.386   3.562  15.869  0.00  0.00    +0.000 C 
BRANCH  24  25
ATOM     25  C   UNL     1       6.714   4.327  15.714  0.00  0.00    +0.000 C 
BRANCH  25  27
ATOM     26  C   UNL     1       6.272   3.896  13.285  0.00  0.00    +0.000 C 
ATOM     27  C   UNL     1       6.997   4.799  14.283  0.00  0.00    +0.000 C 
ENDBRANCH  25  27
ENDBRANCH  24  25
ENDBRANCH  23  24
BRANCH  23  28
ATOM     28  C   UNL     1       3.875   2.616  17.572  0.00  0.00    +0.000 C 
BRANCH  28  29
ATOM     29  C   UNL     1       2.373   2.805  17.935  0.00  0.00    +0.000 C 
BRANCH  29  30
ATOM     30  C   UNL     1       2.001   2.484  19.394  0.00  0.00    +0.000 C 
ATOM     31  C   UNL     1       0.712   3.172  19.838  0.00  0.00    +0.000 C 
ENDBRANCH  29  30
ENDBRANCH  28  29
ENDBRANCH  23  28
ENDBRANCH  22  23
ENDBRANCH  21  22
ENDBRANCH  20  21
ENDBRANCH  19  20
ENDBRANCH   1  19
TORSDOF 13
ENDMDL
MODEL 5
REMARK VINA RESULT:      -7.3      0.925      3.493
REMARK  Name = 
REMARK  16 active torsions:
REMARK  status: ('A' for Active; 'I' for Inactive)
REMARK    1  A    between atoms: C_1  and  C_2
REMARK    2  A    between atoms: C_2  and  C_3
REMARK    3  A    between atoms: C_3  and  C_4
REMARK    4  A    between atoms: C_4  and  N_5
REMARK    5  A    between atoms: N_5  and  C_6
REMARK    6  A    between atoms: N_5  and  C_10
REMARK    7  A    between atoms: C_6  and  C_7
REMARK    8  A    between atoms: C_7  and  C_8
REMARK    9  A    between atoms: C_8  and  C_9
REMARK   10  A    between atoms: C_10  and  C_11
REMARK   11  A    between atoms: C_11  and  C_12
REMARK   12  A    between atoms: C_12  and  O_13
REMARK   13  A    between atoms: O_13  and  C_14
REMARK   14  A    between atoms: C_17  and  C_18
REMARK   15  A    between atoms: C_18  and  C_20
REMARK   16  A    between atoms: C_26  and  C_27
REMARK                            x       y       z     vdW  Elec       q    Type
REMARK                         _______ _______ _______ _____ _____    ______ ____
ROOT
ATOM      1  C   UNL     1       2.526   7.362  18.985  0.00  0.00    +0.000 A 
ATOM      2  C   UNL     1       1.753   7.751  20.094  0.00  0.00    +0.000 A 
ATOM      3  C   UNL     1       1.081   8.970  20.091  0.00  0.00    +0.000 A 
ATOM      4  C   UNL     1       1.149   9.823  18.977  0.00  0.00    +0.000 A 
ATOM      5  C   UNL     1       1.919   9.417  17.864  0.00  0.00    +0.000 A 
ATOM      6  C   UNL     1       2.600   8.202  17.875  0.00  0.00    +0.000 A 
ENDROOT
BRANCH   4   7
ATOM      7  C   UNL     1       0.447  11.135  19.020  0.00  0.00    +0.000 C 
ATOM      8  O   UNL     1       1.088  12.143  19.281  0.00  0.00    +0.000 OA
BRANCH   7   9
ATOM      9  C   UNL     1      -1.001  11.281  18.764  0.00  0.00    +0.000 A 
ATOM     10  C   UNL     1      -1.673  10.824  17.641  0.00  0.00    +0.000 A 
ATOM     11  N   UNL     1      -2.961  11.172  17.789  0.00  0.00    +0.000 N 
ATOM     12  C   UNL     1      -4.020  10.946  16.978  0.00  0.00    +0.000 A 
ATOM     13  C   UNL     1      -5.274  11.433  17.375  0.00  0.00    +0.000 A 
ATOM     14  C   UNL     1      -5.393  12.142  18.586  0.00  0.00    +0.000 A 
ATOM     15  C   UNL     1      -4.265  12.360  19.400  0.00  0.00    +0.000 A 
ATOM     16  C   UNL     1      -4.354  13.124  20.690  0.00  0.00    +0.000 C 
ATOM     17  C   UNL     1      -3.047  11.836  18.954  0.00  0.00    +0.000 A 
ATOM     18  N   UNL     1      -1.864  11.924  19.583  0.00  0.00    +0.000 NA
ENDBRANCH   7   9
ENDBRANCH   4   7
BRANCH   1  19
ATOM     19  O   UNL     1       3.227   6.204  18.959  0.00  0.00    +0.000 OA
BRANCH  19  20
ATOM     20  C   UNL     1       3.361   5.401  17.850  0.00  0.00    +0.000 C 
BRANCH  20  21
ATOM     21  C   UNL     1       4.143   4.150  18.220  0.00  0.00    +0.000 C 
BRANCH  21  22
ATOM     22  C   UNL     1       5.293   3.950  17.219  0.00  0.00    +0.000 C 
BRANCH  22  23
ATOM     23  N   UNL     1       5.347   4.971  16.135  0.00  0.00    +0.000 NA
BRANCH  23  24
ATOM     24  C   UNL     1       6.614   5.750  16.281  0.00  0.00    +0.000 C 
BRANCH  24  25
ATOM     25  C   UNL     1       6.553   7.042  17.118  0.00  0.00    +0.000 C 
BRANCH  25  27
ATOM     26  C   UNL     1       8.161   8.720  18.055  0.00  0.00    +0.000 C 
ATOM     27  C   UNL     1       7.761   7.244  18.040  0.00  0.00    +0.000 C 
ENDBRANCH  25  27
ENDBRANCH  24  25
ENDBRANCH  23  24
BRANCH  23  28
ATOM     28  C   UNL     1       5.286   4.282  14.813  0.00  0.00    +0.000 C 
BRANCH  28  29
ATOM     29  C   UNL     1       6.567   4.411  13.937  0.00  0.00    +0.000 C 
BRANCH  29  30
ATOM     30  C   UNL     1       6.499   3.719  12.564  0.00  0.00    +0.000 C 
ATOM     31  C   UNL     1       5.076   3.332  12.168  0.00  0.00    +0.000 C 
ENDBRANCH  29  30
ENDBRANCH  28  29
ENDBRANCH  23  28
ENDBRANCH  22  23
ENDBRANCH  21  22
ENDBRANCH  20  21
ENDBRANCH  19  20
ENDBRANCH   1  19
TORSDOF 13
ENDMDL
MODEL 6
REMARK VINA RESULT:      -7.3      1.647     10.285
REMARK  Name = 
REMARK  16 active torsions:
REMARK  status: ('A' for Active; 'I' for Inactive)
REMARK    1  A    between atoms: C_1  and  C_2
REMARK    2  A    between atoms: C_2  and  C_3
REMARK    3  A    between atoms: C_3  and  C_4
REMARK    4  A    between atoms: C_4  and  N_5
REMARK    5  A    between atoms: N_5  and  C_6
REMARK    6  A    between atoms: N_5  and  C_10
REMARK    7  A    between atoms: C_6  and  C_7
REMARK    8  A    between atoms: C_7  and  C_8
REMARK    9  A    between atoms: C_8  and  C_9
REMARK   10  A    between atoms: C_10  and  C_11
REMARK   11  A    between atoms: C_11  and  C_12
REMARK   12  A    between atoms: C_12  and  O_13
REMARK   13  A    between atoms: O_13  and  C_14
REMARK   14  A    between atoms: C_17  and  C_18
REMARK   15  A    between atoms: C_18  and  C_20
REMARK   16  A    between atoms: C_26  and  C_27
REMARK                            x       y       z     vdW  Elec       q    Type
REMARK                         _______ _______ _______ _____ _____    ______ ____
ROOT
ATOM      1  C   UNL     1       0.769  10.126  19.507  0.00  0.00    +0.000 A 
ATOM      2  C   UNL     1       0.754   9.402  20.713  0.00  0.00    +0.000 A 
ATOM      3  C   UNL     1       1.348   8.145  20.788  0.00  0.00    +0.000 A 
ATOM      4  C   UNL     1       1.985   7.586  19.668  0.00  0.00    +0.000 A 
ATOM      5  C   UNL     1       2.004   8.326  18.465  0.00  0.00    +0.000 A 
ATOM      6  C   UNL     1       1.399   9.579  18.390  0.00  0.00    +0.000 A 
ENDROOT
BRANCH   4   7
ATOM      7  C   UNL     1       2.580   6.225  19.772  0.00  0.00    +0.000 C 
ATOM      8  O   UNL     1       2.167   5.462  20.635  0.00  0.00    +0.000 OA
BRANCH   7   9
ATOM      9  C   UNL     1       3.656   5.747  18.880  0.00  0.00    +0.000 A 
ATOM     10  C   UNL     1       3.472   5.100  17.668  0.00  0.00    +0.000 A 
ATOM     11  N   UNL     1       4.694   4.819  17.187  0.00  0.00    +0.000 N 
ATOM     12  C   UNL     1       5.053   4.210  16.033  0.00  0.00    +0.000 A 
ATOM     13  C   UNL     1       6.421   4.034  15.777  0.00  0.00    +0.000 A 
ATOM     14  C   UNL     1       7.369   4.480  16.719  0.00  0.00    +0.000 A 
ATOM     15  C   UNL     1       6.952   5.106  17.910  0.00  0.00    +0.000 A 
ATOM     16  C   UNL     1       7.935   5.582  18.941  0.00  0.00    +0.000 C 
ATOM     17  C   UNL     1       5.575   5.264  18.097  0.00  0.00    +0.000 A 
ATOM     18  N   UNL     1       4.976   5.841  19.153  0.00  0.00    +0.000 NA
ENDBRANCH   7   9
ENDBRANCH   4   7
BRANCH   1  19
ATOM     19  O   UNL     1       0.172  11.334  19.377  0.00  0.00    +0.000 OA
BRANCH  19  20
ATOM     20  C   UNL     1      -0.877  11.769  20.152  0.00  0.00    +0.000 C 
BRANCH  20  21
ATOM     21  C   UNL     1      -1.815  12.617  19.307  0.00  0.00    +0.000 C 
BRANCH  21  22
ATOM     22  C   UNL     1      -3.235  12.029  19.371  0.00  0.00    +0.000 C 
BRANCH  22  23
ATOM     23  N   UNL     1      -3.703  11.418  18.096  0.00  0.00    +0.000 NA
BRANCH  23  24
ATOM     24  C   UNL     1      -2.988  10.120  17.900  0.00  0.00    +0.000 C 
BRANCH  24  25
ATOM     25  C   UNL     1      -2.279   9.904  16.550  0.00  0.00    +0.000 C 
BRANCH  25  27
ATOM     26  C   UNL     1      -3.615  10.026  14.433  0.00  0.00    +0.000 C 
ATOM     27  C   UNL     1      -2.776  10.826  15.430  0.00  0.00    +0.000 C 
ENDBRANCH  25  27
ENDBRANCH  24  25
ENDBRANCH  23  24
BRANCH  23  28
ATOM     28  C   UNL     1      -5.180  11.216  18.165  0.00  0.00    +0.000 C 
BRANCH  28  29
ATOM     29  C   UNL     1      -6.033  12.283  17.420  0.00  0.00    +0.000 C 
BRANCH  29  30
ATOM     30  C   UNL     1      -7.399  12.599  18.055  0.00  0.00    +0.000 C 
ATOM     31  C   UNL     1      -7.839  14.042  17.820  0.00  0.00    +0.000 C 
ENDBRANCH  29  30
ENDBRANCH  28  29
ENDBRANCH  23  28
ENDBRANCH  22  23
ENDBRANCH  21  22
ENDBRANCH  20  21
ENDBRANCH  19  20
ENDBRANCH   1  19
TORSDOF 13
ENDMDL
MODEL 7
REMARK VINA RESULT:      -7.2      1.061      3.410
REMARK  Name = 
REMARK  16 active torsions:
REMARK  status: ('A' for Active; 'I' for Inactive)
REMARK    1  A    between atoms: C_1  and  C_2
REMARK    2  A    between atoms: C_2  and  C_3
REMARK    3  A    between atoms: C_3  and  C_4
REMARK    4  A    between atoms: C_4  and  N_5
REMARK    5  A    between atoms: N_5  and  C_6
REMARK    6  A    between atoms: N_5  and  C_10
REMARK    7  A    between atoms: C_6  and  C_7
REMARK    8  A    between atoms: C_7  and  C_8
REMARK    9  A    between atoms: C_8  and  C_9
REMARK   10  A    between atoms: C_10  and  C_11
REMARK   11  A    between atoms: C_11  and  C_12
REMARK   12  A    between atoms: C_12  and  O_13
REMARK   13  A    between atoms: O_13  and  C_14
REMARK   14  A    between atoms: C_17  and  C_18
REMARK   15  A    between atoms: C_18  and  C_20
REMARK   16  A    between atoms: C_26  and  C_27
REMARK                            x       y       z     vdW  Elec       q    Type
REMARK                         _______ _______ _______ _____ _____    ______ ____
ROOT
ATOM      1  C   UNL     1       2.749   6.549  19.021  0.00  0.00    +0.000 A 
ATOM      2  C   UNL     1       2.971   7.365  17.895  0.00  0.00    +0.000 A 
ATOM      3  C   UNL     1       2.441   8.650  17.842  0.00  0.00    +0.000 A 
ATOM      4  C   UNL     1       1.691   9.161  18.914  0.00  0.00    +0.000 A 
ATOM      5  C   UNL     1       1.484   8.339  20.044  0.00  0.00    +0.000 A 
ATOM      6  C   UNL     1       2.006   7.048  20.089  0.00  0.00    +0.000 A 
ENDROOT
BRANCH   4   7
ATOM      7  C   UNL     1       1.109  10.528  18.810  0.00  0.00    +0.000 C 
ATOM      8  O   UNL     1       1.860  11.493  18.796  0.00  0.00    +0.000 OA
BRANCH   7   9
ATOM      9  C   UNL     1      -0.345  10.778  18.726  0.00  0.00    +0.000 A 
ATOM     10  C   UNL     1      -1.209  10.219  17.796  0.00  0.00    +0.000 A 
ATOM     11  N   UNL     1      -2.430  10.716  18.050  0.00  0.00    +0.000 N 
ATOM     12  C   UNL     1      -3.610  10.472  17.436  0.00  0.00    +0.000 A 
ATOM     13  C   UNL     1      -4.750  11.142  17.905  0.00  0.00    +0.000 A 
ATOM     14  C   UNL     1      -4.633  12.045  18.980  0.00  0.00    +0.000 A 
ATOM     15  C   UNL     1      -3.384  12.274  19.589  0.00  0.00    +0.000 A 
ATOM     16  C   UNL     1      -3.223  13.239  20.728  0.00  0.00    +0.000 C 
ATOM     17  C   UNL     1      -2.291  11.563  19.084  0.00  0.00    +0.000 A 
ATOM     18  N   UNL     1      -1.025  11.629  19.527  0.00  0.00    +0.000 NA
ENDBRANCH   7   9
ENDBRANCH   4   7
BRANCH   1  19
ATOM     19  O   UNL     1       3.213   5.280  19.101  0.00  0.00    +0.000 OA
BRANCH  19  20
ATOM     20  C   UNL     1       4.405   4.923  19.688  0.00  0.00    +0.000 C 
BRANCH  20  21
ATOM     21  C   UNL     1       5.204   4.055  18.729  0.00  0.00    +0.000 C 
BRANCH  21  22
ATOM     22  C   UNL     1       4.529   4.065  17.347  0.00  0.00    +0.000 C 
BRANCH  22  23
ATOM     23  N   UNL     1       5.278   4.820  16.304  0.00  0.00    +0.000 NA
BRANCH  23  24
ATOM     24  C   UNL     1       6.558   5.311  16.900  0.00  0.00    +0.000 C 
BRANCH  24  25
ATOM     25  C   UNL     1       6.681   6.826  17.153  0.00  0.00    +0.000 C 
BRANCH  25  27
ATOM     26  C   UNL     1       8.152   8.694  17.942  0.00  0.00    +0.000 C 
ATOM     27  C   UNL     1       7.825   7.209  18.099  0.00  0.00    +0.000 C 
ENDBRANCH  25  27
ENDBRANCH  24  25
ENDBRANCH  23  24
BRANCH  23  28
ATOM     28  C   UNL     1       5.534   3.922  15.140  0.00  0.00    +0.000 C 
BRANCH  28  29
ATOM     29  C   UNL     1       6.500   4.493  14.060  0.00  0.00    +0.000 C 
BRANCH  29  30
ATOM     30  C   UNL     1       6.498   3.749  12.713  0.00  0.00    +0.000 C 
ATOM     31  C   UNL     1       5.094   3.343  12.267  0.00  0.00    +0.000 C 
ENDBRANCH  29  30
ENDBRANCH  28  29
ENDBRANCH  23  28
ENDBRANCH  22  23
ENDBRANCH  21  22
ENDBRANCH  20  21
ENDBRANCH  19  20
ENDBRANCH   1  19
TORSDOF 13
ENDMDL
MODEL 8
REMARK VINA RESULT:      -7.2      0.852      1.416
REMARK  Name = 
REMARK  16 active torsions:
REMARK  status: ('A' for Active; 'I' for Inactive)
REMARK    1  A    between atoms: C_1  and  C_2
REMARK    2  A    between atoms: C_2  and  C_3
REMARK    3  A    between atoms: C_3  and  C_4
REMARK    4  A    between atoms: C_4  and  N_5
REMARK    5  A    between atoms: N_5  and  C_6
REMARK    6  A    between atoms: N_5  and  C_10
REMARK    7  A    between atoms: C_6  and  C_7
REMARK    8  A    between atoms: C_7  and  C_8
REMARK    9  A    between atoms: C_8  and  C_9
REMARK   10  A    between atoms: C_10  and  C_11
REMARK   11  A    between atoms: C_11  and  C_12
REMARK   12  A    between atoms: C_12  and  O_13
REMARK   13  A    between atoms: O_13  and  C_14
REMARK   14  A    between atoms: C_17  and  C_18
REMARK   15  A    between atoms: C_18  and  C_20
REMARK   16  A    between atoms: C_26  and  C_27
REMARK                            x       y       z     vdW  Elec       q    Type
REMARK                         _______ _______ _______ _____ _____    ______ ____
ROOT
ATOM      1  C   UNL     1       2.646   7.255  18.627  0.00  0.00    +0.000 A 
ATOM      2  C   UNL     1       2.093   7.435  19.909  0.00  0.00    +0.000 A 
ATOM      3  C   UNL     1       1.354   8.577  20.203  0.00  0.00    +0.000 A 
ATOM      4  C   UNL     1       1.132   9.559  19.223  0.00  0.00    +0.000 A 
ATOM      5  C   UNL     1       1.682   9.363  17.937  0.00  0.00    +0.000 A 
ATOM      6  C   UNL     1       2.432   8.224  17.649  0.00  0.00    +0.000 A 
ENDROOT
BRANCH   4   7
ATOM      7  C   UNL     1       0.366  10.785  19.581  0.00  0.00    +0.000 C 
ATOM      8  O   UNL     1       0.865  11.593  20.352  0.00  0.00    +0.000 OA
BRANCH   7   9
ATOM      9  C   UNL     1      -0.981  11.074  19.049  0.00  0.00    +0.000 A 
ATOM     10  C   UNL     1      -1.996  11.727  19.730  0.00  0.00    +0.000 A 
ATOM     11  N   UNL     1      -3.056  11.768  18.907  0.00  0.00    +0.000 N 
ATOM     12  C   UNL     1      -4.281  12.309  19.096  0.00  0.00    +0.000 A 
ATOM     13  C   UNL     1      -5.219  12.203  18.057  0.00  0.00    +0.000 A 
ATOM     14  C   UNL     1      -4.866  11.537  16.867  0.00  0.00    +0.000 A 
ATOM     15  C   UNL     1      -3.580  10.984  16.712  0.00  0.00    +0.000 A 
ATOM     16  C   UNL     1      -3.176  10.256  15.462  0.00  0.00    +0.000 C 
ATOM     17  C   UNL     1      -2.689  11.138  17.779  0.00  0.00    +0.000 A 
ATOM     18  N   UNL     1      -1.421  10.696  17.827  0.00  0.00    +0.000 NA
ENDBRANCH   7   9
ENDBRANCH   4   7
BRANCH   1  19
ATOM     19  O   UNL     1       3.404   6.179  18.308  0.00  0.00    +0.000 OA
BRANCH  19  20
ATOM     20  C   UNL     1       3.823   5.229  19.210  0.00  0.00    +0.000 C 
BRANCH  20  21
ATOM     21  C   UNL     1       5.322   5.362  19.427  0.00  0.00    +0.000 C 
BRANCH  21  22
ATOM     22  C   UNL     1       6.066   4.439  18.448  0.00  0.00    +0.000 C 
BRANCH  22  23
ATOM     23  N   UNL     1       6.919   5.154  17.458  0.00  0.00    +0.000 NA
BRANCH  23  24
ATOM     24  C   UNL     1       6.099   5.433  16.239  0.00  0.00    +0.000 C 
BRANCH  24  25
ATOM     25  C   UNL     1       5.485   4.222  15.512  0.00  0.00    +0.000 C 
BRANCH  25  27
ATOM     26  C   UNL     1       7.206   4.954  13.844  0.00  0.00    +0.000 C 
ATOM     27  C   UNL     1       6.059   3.978  14.111  0.00  0.00    +0.000 C 
ENDBRANCH  25  27
ENDBRANCH  24  25
ENDBRANCH  23  24
BRANCH  23  28
ATOM     28  C   UNL     1       7.422   6.418  18.070  0.00  0.00    +0.000 C 
BRANCH  28  29
ATOM     29  C   UNL     1       7.085   7.718  17.283  0.00  0.00    +0.000 C 
BRANCH  29  30
ATOM     30  C   UNL     1       8.018   8.913  17.550  0.00  0.00    +0.000 C 
ATOM     31  C   UNL     1       8.733   8.811  18.896  0.00  0.00    +0.000 C 
ENDBRANCH  29  30
ENDBRANCH  28  29
ENDBRANCH  23  28
ENDBRANCH  22  23
ENDBRANCH  21  22
ENDBRANCH  20  21
ENDBRANCH  19  20
ENDBRANCH   1  19
TORSDOF 13
ENDMDL
MODEL 9
REMARK VINA RESULT:      -7.1      1.732      3.420
REMARK  Name = 
REMARK  16 active torsions:
REMARK  status: ('A' for Active; 'I' for Inactive)
REMARK    1  A    between atoms: C_1  and  C_2
REMARK    2  A    between atoms: C_2  and  C_3
REMARK    3  A    between atoms: C_3  and  C_4
REMARK    4  A    between atoms: C_4  and  N_5
REMARK    5  A    between atoms: N_5  and  C_6
REMARK    6  A    between atoms: N_5  and  C_10
REMARK    7  A    between atoms: C_6  and  C_7
REMARK    8  A    between atoms: C_7  and  C_8
REMARK    9  A    between atoms: C_8  and  C_9
REMARK   10  A    between atoms: C_10  and  C_11
REMARK   11  A    between atoms: C_11  and  C_12
REMARK   12  A    between atoms: C_12  and  O_13
REMARK   13  A    between atoms: O_13  and  C_14
REMARK   14  A    between atoms: C_17  and  C_18
REMARK   15  A    between atoms: C_18  and  C_20
REMARK   16  A    between atoms: C_26  and  C_27
REMARK                            x       y       z     vdW  Elec       q    Type
REMARK                         _______ _______ _______ _____ _____    ______ ____
ROOT
ATOM      1  C   UNL     1       2.252   7.618  19.324  0.00  0.00    +0.000 A 
ATOM      2  C   UNL     1       2.326   8.338  18.117  0.00  0.00    +0.000 A 
ATOM      3  C   UNL     1       1.684   9.566  17.989  0.00  0.00    +0.000 A 
ATOM      4  C   UNL     1       0.966  10.115  19.065  0.00  0.00    +0.000 A 
ATOM      5  C   UNL     1       0.907   9.390  20.275  0.00  0.00    +0.000 A 
ATOM      6  C   UNL     1       1.541   8.155  20.397  0.00  0.00    +0.000 A 
ENDROOT
BRANCH   4   7
ATOM      7  C   UNL     1       0.262  11.415  18.883  0.00  0.00    +0.000 C 
ATOM      8  O   UNL     1       0.915  12.449  18.890  0.00  0.00    +0.000 OA
BRANCH   7   9
ATOM      9  C   UNL     1      -1.200  11.518  18.696  0.00  0.00    +0.000 A 
ATOM     10  C   UNL     1      -1.893  11.184  17.543  0.00  0.00    +0.000 A 
ATOM     11  N   UNL     1      -3.189  11.441  17.779  0.00  0.00    +0.000 N 
ATOM     12  C   UNL     1      -4.267  11.271  16.979  0.00  0.00    +0.000 A 
ATOM     13  C   UNL     1      -5.527  11.633  17.480  0.00  0.00    +0.000 A 
ATOM     14  C   UNL     1      -5.631  12.165  18.781  0.00  0.00    +0.000 A 
ATOM     15  C   UNL     1      -4.483  12.329  19.580  0.00  0.00    +0.000 A 
ATOM     16  C   UNL     1      -4.558  12.904  20.965  0.00  0.00    +0.000 C 
ATOM     17  C   UNL     1      -3.261  11.934  19.026  0.00  0.00    +0.000 A 
ATOM     18  N   UNL     1      -2.059  11.997  19.623  0.00  0.00    +0.000 NA
ENDBRANCH   7   9
ENDBRANCH   4   7
BRANCH   1  19
ATOM     19  O   UNL     1       2.828   6.403  19.482  0.00  0.00    +0.000 OA
BRANCH  19  20
ATOM     20  C   UNL     1       4.122   6.104  19.123  0.00  0.00    +0.000 C 
BRANCH  20  21
ATOM     21  C   UNL     1       4.510   4.753  19.703  0.00  0.00    +0.000 C 
BRANCH  21  22
ATOM     22  C   UNL     1       4.439   3.684  18.601  0.00  0.00    +0.000 C 
BRANCH  22  23
ATOM     23  N   UNL     1       3.744   4.126  17.360  0.00  0.00    +0.000 NA
BRANCH  23  24
ATOM     24  C   UNL     1       4.652   3.891  16.197  0.00  0.00    +0.000 C 
BRANCH  24  25
ATOM     25  C   UNL     1       5.618   5.030  15.818  0.00  0.00    +0.000 C 
BRANCH  25  27
ATOM     26  C   UNL     1       7.586   4.604  17.309  0.00  0.00    +0.000 C 
ATOM     27  C   UNL     1       7.098   4.632  15.860  0.00  0.00    +0.000 C 
ENDBRANCH  25  27
ENDBRANCH  24  25
ENDBRANCH  23  24
BRANCH  23  28
ATOM     28  C   UNL     1       2.471   3.360  17.214  0.00  0.00    +0.000 C 
BRANCH  28  29
ATOM     29  C   UNL     1       2.410   2.018  18.001  0.00  0.00    +0.000 C 
BRANCH  29  30
ATOM     30  C   UNL     1       1.480   2.013  19.228  0.00  0.00    +0.000 C 
ATOM     31  C   UNL     1       0.888   3.390  19.522  0.00  0.00    +0.000 C 
ENDBRANCH  29  30
ENDBRANCH  28  29
ENDBRANCH  23  28
ENDBRANCH  22  23
ENDBRANCH  21  22
ENDBRANCH  20  21
ENDBRANCH  19  20
ENDBRANCH   1  19
TORSDOF 13
ENDMDL
