MODEL 1
REMARK VINA RESULT:      -7.7      0.000      0.000
REMARK  Name = 
REMARK  9 active torsions:
REMARK  status: ('A' for Active; 'I' for Inactive)
REMARK    1  A    between atoms: C_2  and  C_3
REMARK    2  A    between atoms: C_2  and  C_19
REMARK    3  A    between atoms: C_3  and  C_4
REMARK    4  A    between atoms: C_4  and  C_5
REMARK    5  A    between atoms: C_5  and  N_6
REMARK    6  A    between atoms: N_9  and  C_10
REMARK    7  A    between atoms: C_20  and  O_21
REMARK    8  A    between atoms: C_23  and  O_24
REMARK    9  A    between atoms: C_26  and  O_27
REMARK                            x       y       z     vdW  Elec       q    Type
REMARK                         _______ _______ _______ _____ _____    ______ ____
ROOT
ATOM      1  C   UNL     1       8.648   9.996  17.936  0.00  0.00    +0.000 C 
ENDROOT
BRANCH   1   3
ATOM      2  O   UNL     1       9.488  10.400  20.102  0.00  0.00    +0.000 OA
ATOM      3  C   UNL     1       9.458  10.794  18.948  0.00  0.00    +0.000 C 
BRANCH   3   4
ATOM      4  C   UNL     1      10.127  12.095  18.569  0.00  0.00    +0.000 A 
ATOM      5  C   UNL     1      11.392  12.136  17.892  0.00  0.00    +0.000 A 
ATOM      6  C   UNL     1      12.001  13.367  17.625  0.00  0.00    +0.000 A 
ATOM      7  C   UNL     1      11.401  14.568  17.995  0.00  0.00    +0.000 A 
ATOM      8  C   UNL     1      10.166  14.550  18.628  0.00  0.00    +0.000 A 
ATOM      9  C   UNL     1       9.525  13.343  18.921  0.00  0.00    +0.000 A 
BRANCH   5  10
ATOM     10  O   UNL     1      12.091  11.044  17.503  0.00  0.00    +0.000 OA
ATOM     11  H   UNL     1      13.045  10.947  17.435  0.00  0.00    +0.000 HD
ENDBRANCH   5  10
BRANCH   7  12
ATOM     12  O   UNL     1      12.002  15.748  17.750  0.00  0.00    +0.000 OA
ATOM     13  H   UNL     1      11.606  16.591  18.013  0.00  0.00    +0.000 HD
ENDBRANCH   7  12
BRANCH   9  14
ATOM     14  O   UNL     1       8.323  13.394  19.530  0.00  0.00    +0.000 OA
ATOM     15  H   UNL     1       8.219  13.537  20.481  0.00  0.00    +0.000 HD
ENDBRANCH   9  14
ENDBRANCH   3   4
ENDBRANCH   1   3
BRANCH   1  16
ATOM     16  C   UNL     1       8.429   8.527  18.318  0.00  0.00    +0.000 C 
BRANCH  16  17
ATOM     17  C   UNL     1       7.398   7.852  17.382  0.00  0.00    +0.000 C 
BRANCH  17  18
ATOM     18  N   UNL     1       7.511   6.376  17.360  0.00  0.00    +0.000 NA
ATOM     19  C   UNL     1       7.279   5.725  18.672  0.00  0.00    +0.000 C 
ATOM     20  C   UNL     1       5.821   5.863  19.127  0.00  0.00    +0.000 C 
ATOM     21  N   UNL     1       4.977   5.280  18.092  0.00  0.00    +0.000 N 
ATOM     22  C   UNL     1       5.132   5.850  16.757  0.00  0.00    +0.000 C 
ATOM     23  C   UNL     1       6.615   5.776  16.338  0.00  0.00    +0.000 C 
BRANCH  21  24
ATOM     24  C   UNL     1       4.106   4.168  18.371  0.00  0.00    +0.000 A 
ATOM     25  C   UNL     1       4.145   2.990  17.592  0.00  0.00    +0.000 A 
ATOM     26  C   UNL     1       3.306   1.911  17.885  0.00  0.00    +0.000 A 
ATOM     27  C   UNL     1       2.405   1.988  18.948  0.00  0.00    +0.000 A 
ATOM     28  C   UNL     1       2.342   3.144  19.723  0.00  0.00    +0.000 A 
ATOM     29 CL   UNL     1       1.200   3.250  21.052  0.00  0.00    +0.000 Cl
ATOM     30  C   UNL     1       3.185   4.223  19.443  0.00  0.00    +0.000 A 
ENDBRANCH  21  24
ENDBRANCH  17  18
ENDBRANCH  16  17
ENDBRANCH   1  16
TORSDOF 9
ENDMDL
MODEL 2
REMARK VINA RESULT:      -7.5      1.722      2.195
REMARK  Name = 
REMARK  9 active torsions:
REMARK  status: ('A' for Active; 'I' for Inactive)
REMARK    1  A    between atoms: C_2  and  C_3
REMARK    2  A    between atoms: C_2  and  C_19
REMARK    3  A    between atoms: C_3  and  C_4
REMARK    4  A    between atoms: C_4  and  C_5
REMARK    5  A    between atoms: C_5  and  N_6
REMARK    6  A    between atoms: N_9  and  C_10
REMARK    7  A    between atoms: C_20  and  O_21
REMARK    8  A    between atoms: C_23  and  O_24
REMARK    9  A    between atoms: C_26  and  O_27
REMARK                            x       y       z     vdW  Elec       q    Type
REMARK                         _______ _______ _______ _____ _____    ______ ____
ROOT
ATOM      1  C   UNL     1       8.897   9.656  18.860  0.00  0.00    +0.000 C 
ENDROOT
BRANCH   1   3
ATOM      2  O   UNL     1      10.337  10.966  17.529  0.00  0.00    +0.000 OA
ATOM      3  C   UNL     1       9.501  10.982  18.418  0.00  0.00    +0.000 C 
BRANCH   3   4
ATOM      4  C   UNL     1       9.160  12.275  19.120  0.00  0.00    +0.000 A 
ATOM      5  C   UNL     1       9.436  12.487  20.513  0.00  0.00    +0.000 A 
ATOM      6  C   UNL     1       9.038  13.678  21.130  0.00  0.00    +0.000 A 
ATOM      7  C   UNL     1       8.381  14.679  20.418  0.00  0.00    +0.000 A 
ATOM      8  C   UNL     1       8.127  14.504  19.065  0.00  0.00    +0.000 A 
ATOM      9  C   UNL     1       8.501  13.327  18.410  0.00  0.00    +0.000 A 
BRANCH   5  10
ATOM     10  O   UNL     1      10.043  11.586  21.321  0.00  0.00    +0.000 OA
ATOM     11  H   UNL     1       9.666  11.118  22.071  0.00  0.00    +0.000 HD
ENDBRANCH   5  10
BRANCH   7  12
ATOM     12  O   UNL     1       7.985  15.815  21.025  0.00  0.00    +0.000 OA
ATOM     13  H   UNL     1       7.376  15.810  21.777  0.00  0.00    +0.000 HD
ENDBRANCH   7  12
BRANCH   9  14
ATOM     14  O   UNL     1       8.234  13.222  17.092  0.00  0.00    +0.000 OA
ATOM     15  H   UNL     1       7.381  13.467  16.706  0.00  0.00    +0.000 HD
ENDBRANCH   9  14
ENDBRANCH   3   4
ENDBRANCH   1   3
BRANCH   1  16
ATOM     16  C   UNL     1       8.091   8.935  17.773  0.00  0.00    +0.000 C 
BRANCH  16  17
ATOM     17  C   UNL     1       7.961   7.425  18.081  0.00  0.00    +0.000 C 
BRANCH  17  18
ATOM     18  N   UNL     1       7.186   6.686  17.059  0.00  0.00    +0.000 NA
ATOM     19  C   UNL     1       7.254   5.210  17.189  0.00  0.00    +0.000 C 
ATOM     20  C   UNL     1       6.542   4.716  18.455  0.00  0.00    +0.000 C 
ATOM     21  N   UNL     1       5.161   5.179  18.395  0.00  0.00    +0.000 N 
ATOM     22  C   UNL     1       4.985   6.622  18.262  0.00  0.00    +0.000 C 
ATOM     23  C   UNL     1       5.767   7.121  17.029  0.00  0.00    +0.000 C 
BRANCH  21  24
ATOM     24  C   UNL     1       4.058   4.253  18.396  0.00  0.00    +0.000 A 
ATOM     25  C   UNL     1       3.748   3.477  17.257  0.00  0.00    +0.000 A 
ATOM     26  C   UNL     1       2.685   2.569  17.279  0.00  0.00    +0.000 A 
ATOM     27  C   UNL     1       1.904   2.427  18.426  0.00  0.00    +0.000 A 
ATOM     28  C   UNL     1       2.185   3.189  19.558  0.00  0.00    +0.000 A 
ATOM     29 CL   UNL     1       1.196   3.023  20.998  0.00  0.00    +0.000 Cl
ATOM     30  C   UNL     1       3.252   4.092  19.548  0.00  0.00    +0.000 A 
ENDBRANCH  21  24
ENDBRANCH  17  18
ENDBRANCH  16  17
ENDBRANCH   1  16
TORSDOF 9
ENDMDL
MODEL 3
REMARK VINA RESULT:      -7.4      1.488      1.933
REMARK  Name = 
REMARK  9 active torsions:
REMARK  status: ('A' for Active; 'I' for Inactive)
REMARK    1  A    between atoms: C_2  and  C_3
REMARK    2  A    between atoms: C_2  and  C_19
REMARK    3  A    between atoms: C_3  and  C_4
REMARK    4  A    between atoms: C_4  and  C_5
REMARK    5  A    between atoms: C_5  and  N_6
REMARK    6  A    between atoms: N_9  and  C_10
REMARK    7  A    between atoms: C_20  and  O_21
REMARK    8  A    between atoms: C_23  and  O_24
REMARK    9  A    between atoms: C_26  and  O_27
REMARK                            x       y       z     vdW  Elec       q    Type
REMARK                         _______ _______ _______ _____ _____    ______ ____
ROOT
ATOM      1  C   UNL     1       8.897   9.639  18.599  0.00  0.00    +0.000 C 
ENDROOT
BRANCH   1   3
ATOM      2  O   UNL     1       7.954  11.419  17.373  0.00  0.00    +0.000 OA
ATOM      3  C   UNL     1       8.688  11.117  18.300  0.00  0.00    +0.000 C 
BRANCH   3   4
ATOM      4  C   UNL     1       9.439  12.187  19.057  0.00  0.00    +0.000 A 
ATOM      5  C   UNL     1       9.644  12.119  20.476  0.00  0.00    +0.000 A 
ATOM      6  C   UNL     1      10.288  13.170  21.139  0.00  0.00    +0.000 A 
ATOM      7  C   UNL     1      10.748  14.289  20.448  0.00  0.00    +0.000 A 
ATOM      8  C   UNL     1      10.581  14.362  19.072  0.00  0.00    +0.000 A 
ATOM      9  C   UNL     1       9.937  13.338  18.371  0.00  0.00    +0.000 A 
BRANCH   5  10
ATOM     10  O   UNL     1       9.225  11.103  21.266  0.00  0.00    +0.000 OA
ATOM     11  H   UNL     1       9.429  10.954  22.193  0.00  0.00    +0.000 HD
ENDBRANCH   5  10
BRANCH   7  12
ATOM     12  O   UNL     1      11.350  15.305  21.096  0.00  0.00    +0.000 OA
ATOM     13  H   UNL     1      11.827  16.004  20.625  0.00  0.00    +0.000 HD
ENDBRANCH   7  12
BRANCH   9  14
ATOM     14  O   UNL     1       9.814  13.465  17.034  0.00  0.00    +0.000 OA
ATOM     15  H   UNL     1       9.797  12.707  16.432  0.00  0.00    +0.000 HD
ENDBRANCH   9  14
ENDBRANCH   3   4
ENDBRANCH   1   3
BRANCH   1  16
ATOM     16  C   UNL     1       8.065   8.692  17.726  0.00  0.00    +0.000 C 
BRANCH  16  17
ATOM     17  C   UNL     1       8.036   7.264  18.318  0.00  0.00    +0.000 C 
BRANCH  17  18
ATOM     18  N   UNL     1       7.480   6.257  17.386  0.00  0.00    +0.000 NA
ATOM     19  C   UNL     1       7.399   4.885  17.944  0.00  0.00    +0.000 C 
ATOM     20  C   UNL     1       6.364   4.788  19.072  0.00  0.00    +0.000 C 
ATOM     21  N   UNL     1       5.080   5.216  18.531  0.00  0.00    +0.000 N 
ATOM     22  C   UNL     1       5.053   6.555  17.952  0.00  0.00    +0.000 C 
ATOM     23  C   UNL     1       6.148   6.667  16.871  0.00  0.00    +0.000 C 
BRANCH  21  24
ATOM     24  C   UNL     1       3.942   4.333  18.514  0.00  0.00    +0.000 A 
ATOM     25  C   UNL     1       3.531   3.686  17.328  0.00  0.00    +0.000 A 
ATOM     26  C   UNL     1       2.435   2.818  17.329  0.00  0.00    +0.000 A 
ATOM     27  C   UNL     1       1.721   2.589  18.506  0.00  0.00    +0.000 A 
ATOM     28  C   UNL     1       2.101   3.224  19.685  0.00  0.00    +0.000 A 
ATOM     29 CL   UNL     1       1.196   2.949  21.164  0.00  0.00    +0.000 Cl
ATOM     30  C   UNL     1       3.202   4.085  19.695  0.00  0.00    +0.000 A 
ENDBRANCH  21  24
ENDBRANCH  17  18
ENDBRANCH  16  17
ENDBRANCH   1  16
TORSDOF 9
ENDMDL
MODEL 4
REMARK VINA RESULT:      -7.2      1.777      2.274
REMARK  Name = 
REMARK  9 active torsions:
REMARK  status: ('A' for Active; 'I' for Inactive)
REMARK    1  A    between atoms: C_2  and  C_3
REMARK    2  A    between atoms: C_2  and  C_19
REMARK    3  A    between atoms: C_3  and  C_4
REMARK    4  A    between atoms: C_4  and  C_5
REMARK    5  A    between atoms: C_5  and  N_6
REMARK    6  A    between atoms: N_9  and  C_10
REMARK    7  A    between atoms: C_20  and  O_21
REMARK    8  A    between atoms: C_23  and  O_24
REMARK    9  A    between atoms: C_26  and  O_27
REMARK                            x       y       z     vdW  Elec       q    Type
REMARK                         _______ _______ _______ _____ _____    ______ ____
ROOT
ATOM      1  C   UNL     1       9.127   9.534  18.757  0.00  0.00    +0.000 C 
ENDROOT
BRANCH   1   3
ATOM      2  O   UNL     1      10.528  10.976  17.525  0.00  0.00    +0.000 OA
ATOM      3  C   UNL     1       9.630  10.911  18.348  0.00  0.00    +0.000 C 
BRANCH   3   4
ATOM      4  C   UNL     1       9.112  12.167  19.010  0.00  0.00    +0.000 A 
ATOM      5  C   UNL     1       8.380  13.167  18.286  0.00  0.00    +0.000 A 
ATOM      6  C   UNL     1       7.980  14.343  18.930  0.00  0.00    +0.000 A 
ATOM      7  C   UNL     1       8.270  14.567  20.274  0.00  0.00    +0.000 A 
ATOM      8  C   UNL     1       8.955  13.601  20.998  0.00  0.00    +0.000 A 
ATOM      9  C   UNL     1       9.379  12.415  20.392  0.00  0.00    +0.000 A 
BRANCH   5  10
ATOM     10  O   UNL     1       8.057  13.084  16.974  0.00  0.00    +0.000 OA
ATOM     11  H   UNL     1       8.361  13.644  16.254  0.00  0.00    +0.000 HD
ENDBRANCH   5  10
BRANCH   7  12
ATOM     12  O   UNL     1       7.898  15.710  20.883  0.00  0.00    +0.000 OA
ATOM     13  H   UNL     1       7.853  16.553  20.409  0.00  0.00    +0.000 HD
ENDBRANCH   7  12
BRANCH   9  14
ATOM     14  O   UNL     1      10.033  11.513  21.152  0.00  0.00    +0.000 OA
ATOM     15  H   UNL     1      10.171  11.626  22.104  0.00  0.00    +0.000 HD
ENDBRANCH   9  14
ENDBRANCH   3   4
ENDBRANCH   1   3
BRANCH   1  16
ATOM     16  C   UNL     1       8.124   8.911  17.778  0.00  0.00    +0.000 C 
BRANCH  16  17
ATOM     17  C   UNL     1       7.951   7.397  18.042  0.00  0.00    +0.000 C 
BRANCH  17  18
ATOM     18  N   UNL     1       7.153   6.711  17.000  0.00  0.00    +0.000 NA
ATOM     19  C   UNL     1       7.197   5.231  17.071  0.00  0.00    +0.000 C 
ATOM     20  C   UNL     1       6.490   4.699  18.324  0.00  0.00    +0.000 C 
ATOM     21  N   UNL     1       5.117   5.187  18.298  0.00  0.00    +0.000 N 
ATOM     22  C   UNL     1       4.964   6.636  18.224  0.00  0.00    +0.000 C 
ATOM     23  C   UNL     1       5.741   7.171  17.003  0.00  0.00    +0.000 C 
BRANCH  21  24
ATOM     24  C   UNL     1       3.999   4.279  18.275  0.00  0.00    +0.000 A 
ATOM     25  C   UNL     1       3.933   3.216  17.348  0.00  0.00    +0.000 A 
ATOM     26  C   UNL     1       2.850   2.332  17.349  0.00  0.00    +0.000 A 
ATOM     27  C   UNL     1       1.808   2.497  18.262  0.00  0.00    +0.000 A 
ATOM     28  C   UNL     1       1.847   3.545  19.179  0.00  0.00    +0.000 A 
ATOM     29 CL   UNL     1       0.531   3.764  20.320  0.00  0.00    +0.000 Cl
ATOM     30  C   UNL     1       2.930   4.427  19.192  0.00  0.00    +0.000 A 
ENDBRANCH  21  24
ENDBRANCH  17  18
ENDBRANCH  16  17
ENDBRANCH   1  16
TORSDOF 9
ENDMDL
MODEL 5
REMARK VINA RESULT:      -7.1      7.555      9.860
REMARK  Name = 
REMARK  9 active torsions:
REMARK  status: ('A' for Active; 'I' for Inactive)
REMARK    1  A    between atoms: C_2  and  C_3
REMARK    2  A    between atoms: C_2  and  C_19
REMARK    3  A    between atoms: C_3  and  C_4
REMARK    4  A    between atoms: C_4  and  C_5
REMARK    5  A    between atoms: C_5  and  N_6
REMARK    6  A    between atoms: N_9  and  C_10
REMARK    7  A    between atoms: C_20  and  O_21
REMARK    8  A    between atoms: C_23  and  O_24
REMARK    9  A    between atoms: C_26  and  O_27
REMARK                            x       y       z     vdW  Elec       q    Type
REMARK                         _______ _______ _______ _____ _____    ______ ____
ROOT
ATOM      1  C   UNL     1       3.018   8.267  17.550  0.00  0.00    +0.000 C 
ENDROOT
BRANCH   1   3
ATOM      2  O   UNL     1       2.215   6.103  18.035  0.00  0.00    +0.000 OA
ATOM      3  C   UNL     1       3.198   6.769  17.752  0.00  0.00    +0.000 C 
BRANCH   3   4
ATOM      4  C   UNL     1       4.565   6.127  17.706  0.00  0.00    +0.000 A 
ATOM      5  C   UNL     1       5.377   6.139  16.522  0.00  0.00    +0.000 A 
ATOM      6  C   UNL     1       6.606   5.472  16.512  0.00  0.00    +0.000 A 
ATOM      7  C   UNL     1       7.072   4.794  17.636  0.00  0.00    +0.000 A 
ATOM      8  C   UNL     1       6.313   4.791  18.798  0.00  0.00    +0.000 A 
ATOM      9  C   UNL     1       5.076   5.439  18.851  0.00  0.00    +0.000 A 
BRANCH   5  10
ATOM     10  O   UNL     1       5.029   6.737  15.358  0.00  0.00    +0.000 OA
ATOM     11  H   UNL     1       4.891   7.675  15.195  0.00  0.00    +0.000 HD
ENDBRANCH   5  10
BRANCH   7  12
ATOM     12  O   UNL     1       8.249   4.139  17.612  0.00  0.00    +0.000 OA
ATOM     13  H   UNL     1       8.700   3.923  16.783  0.00  0.00    +0.000 HD
ENDBRANCH   7  12
BRANCH   9  14
ATOM     14  O   UNL     1       4.392   5.407  20.012  0.00  0.00    +0.000 OA
ATOM     15  H   UNL     1       4.819   5.299  20.874  0.00  0.00    +0.000 HD
ENDBRANCH   9  14
ENDBRANCH   3   4
ENDBRANCH   1   3
BRANCH   1  16
ATOM     16  C   UNL     1       1.605   8.781  17.847  0.00  0.00    +0.000 C 
BRANCH  16  17
ATOM     17  C   UNL     1       1.626   9.884  18.932  0.00  0.00    +0.000 C 
BRANCH  17  18
ATOM     18  N   UNL     1       0.514  10.852  18.800  0.00  0.00    +0.000 NA
ATOM     19  C   UNL     1      -0.713  10.479  19.545  0.00  0.00    +0.000 C 
ATOM     20  C   UNL     1      -0.500  10.540  21.063  0.00  0.00    +0.000 C 
ATOM     21  N   UNL     1      -0.071  11.893  21.395  0.00  0.00    +0.000 N 
ATOM     22  C   UNL     1       1.130  12.359  20.709  0.00  0.00    +0.000 C 
ATOM     23  C   UNL     1       0.935  12.223  19.185  0.00  0.00    +0.000 C 
BRANCH  21  24
ATOM     24  C   UNL     1      -0.835  12.725  22.288  0.00  0.00    +0.000 A 
ATOM     25  C   UNL     1      -0.450  14.056  22.563  0.00  0.00    +0.000 A 
ATOM     26  C   UNL     1      -1.210  14.858  23.418  0.00  0.00    +0.000 A 
ATOM     27  C   UNL     1      -2.358  14.348  24.026  0.00  0.00    +0.000 A 
ATOM     28  C   UNL     1      -2.751  13.035  23.778  0.00  0.00    +0.000 A 
ATOM     29 CL   UNL     1      -4.187  12.385  24.551  0.00  0.00    +0.000 Cl
ATOM     30  C   UNL     1      -2.002  12.229  22.916  0.00  0.00    +0.000 A 
ENDBRANCH  21  24
ENDBRANCH  17  18
ENDBRANCH  16  17
ENDBRANCH   1  16
TORSDOF 9
ENDMDL
MODEL 6
REMARK VINA RESULT:      -7.1      4.454      7.156
REMARK  Name = 
REMARK  9 active torsions:
REMARK  status: ('A' for Active; 'I' for Inactive)
REMARK    1  A    between atoms: C_2  and  C_3
REMARK    2  A    between atoms: C_2  and  C_19
REMARK    3  A    between atoms: C_3  and  C_4
REMARK    4  A    between atoms: C_4  and  C_5
REMARK    5  A    between atoms: C_5  and  N_6
REMARK    6  A    between atoms: N_9  and  C_10
REMARK    7  A    between atoms: C_20  and  O_21
REMARK    8  A    between atoms: C_23  and  O_24
REMARK    9  A    between atoms: C_26  and  O_27
REMARK                            x       y       z     vdW  Elec       q    Type
REMARK                         _______ _______ _______ _____ _____    ______ ____
ROOT
ATOM      1  C   UNL     1       4.285   3.788  16.647  0.00  0.00    +0.000 C 
ENDROOT
BRANCH   1   3
ATOM      2  O   UNL     1       6.126   3.597  15.186  0.00  0.00    +0.000 OA
ATOM      3  C   UNL     1       5.648   4.216  16.122  0.00  0.00    +0.000 C 
BRANCH   3   4
ATOM      4  C   UNL     1       6.442   5.311  16.795  0.00  0.00    +0.000 A 
ATOM      5  C   UNL     1       7.479   5.030  17.747  0.00  0.00    +0.000 A 
ATOM      6  C   UNL     1       8.139   6.081  18.393  0.00  0.00    +0.000 A 
ATOM      7  C   UNL     1       7.817   7.410  18.126  0.00  0.00    +0.000 A 
ATOM      8  C   UNL     1       6.835   7.704  17.190  0.00  0.00    +0.000 A 
ATOM      9  C   UNL     1       6.146   6.684  16.527  0.00  0.00    +0.000 A 
BRANCH   5  10
ATOM     10  O   UNL     1       7.869   3.786  18.114  0.00  0.00    +0.000 OA
ATOM     11  H   UNL     1       7.836   2.979  17.592  0.00  0.00    +0.000 HD
ENDBRANCH   5  10
BRANCH   7  12
ATOM     12  O   UNL     1       8.444   8.417  18.765  0.00  0.00    +0.000 OA
ATOM     13  H   UNL     1       9.408   8.508  18.759  0.00  0.00    +0.000 HD
ENDBRANCH   7  12
BRANCH   9  14
ATOM     14  O   UNL     1       5.209   7.035  15.623  0.00  0.00    +0.000 OA
ATOM     15  H   UNL     1       4.588   6.403  15.235  0.00  0.00    +0.000 HD
ENDBRANCH   9  14
ENDBRANCH   3   4
ENDBRANCH   1   3
BRANCH   1  16
ATOM     16  C   UNL     1       4.323   3.090  18.011  0.00  0.00    +0.000 C 
BRANCH  16  17
ATOM     17  C   UNL     1       3.721   3.990  19.117  0.00  0.00    +0.000 C 
BRANCH  17  18
ATOM     18  N   UNL     1       2.380   4.517  18.773  0.00  0.00    +0.000 NA
ATOM     19  C   UNL     1       1.508   4.780  19.944  0.00  0.00    +0.000 C 
ATOM     20  C   UNL     1       2.031   5.945  20.793  0.00  0.00    +0.000 C 
ATOM     21  N   UNL     1       2.124   7.115  19.929  0.00  0.00    +0.000 N 
ATOM     22  C   UNL     1       2.958   6.958  18.742  0.00  0.00    +0.000 C 
ATOM     23  C   UNL     1       2.472   5.737  17.933  0.00  0.00    +0.000 C 
BRANCH  21  24
ATOM     24  C   UNL     1       1.377   8.315  20.207  0.00  0.00    +0.000 A 
ATOM     25  C   UNL     1       1.131   9.278  19.203  0.00  0.00    +0.000 A 
ATOM     26  C   UNL     1       0.390  10.429  19.482  0.00  0.00    +0.000 A 
ATOM     27  C   UNL     1      -0.109  10.651  20.766  0.00  0.00    +0.000 A 
ATOM     28  C   UNL     1       0.130   9.720  21.775  0.00  0.00    +0.000 A 
ATOM     29 CL   UNL     1      -0.484  10.003  23.395  0.00  0.00    +0.000 Cl
ATOM     30  C   UNL     1       0.862   8.562  21.502  0.00  0.00    +0.000 A 
ENDBRANCH  21  24
ENDBRANCH  17  18
ENDBRANCH  16  17
ENDBRANCH   1  16
TORSDOF 9
ENDMDL
MODEL 7
REMARK VINA RESULT:      -7.1      5.092     10.821
REMARK  Name = 
REMARK  9 active torsions:
REMARK  status: ('A' for Active; 'I' for Inactive)
REMARK    1  A    between atoms: C_2  and  C_3
REMARK    2  A    between atoms: C_2  and  C_19
REMARK    3  A    between atoms: C_3  and  C_4
REMARK    4  A    between atoms: C_4  and  C_5
REMARK    5  A    between atoms: C_5  and  N_6
REMARK    6  A    between atoms: N_9  and  C_10
REMARK    7  A    between atoms: C_20  and  O_21
REMARK    8  A    between atoms: C_23  and  O_24
REMARK    9  A    between atoms: C_26  and  O_27
REMARK                            x       y       z     vdW  Elec       q    Type
REMARK                         _______ _______ _______ _____ _____    ______ ____
ROOT
ATOM      1  C   UNL     1       8.193   7.787  18.366  0.00  0.00    +0.000 C 
ENDROOT
BRANCH   1   3
ATOM      2  O   UNL     1       7.906   6.708  16.289  0.00  0.00    +0.000 OA
ATOM      3  C   UNL     1       7.456   6.857  17.413  0.00  0.00    +0.000 C 
BRANCH   3   4
ATOM      4  C   UNL     1       6.147   6.208  17.801  0.00  0.00    +0.000 A 
ATOM      5  C   UNL     1       4.976   6.294  16.975  0.00  0.00    +0.000 A 
ATOM      6  C   UNL     1       3.771   5.733  17.412  0.00  0.00    +0.000 A 
ATOM      7  C   UNL     1       3.679   5.078  18.638  0.00  0.00    +0.000 A 
ATOM      8  C   UNL     1       4.806   4.963  19.440  0.00  0.00    +0.000 A 
ATOM      9  C   UNL     1       6.029   5.515  19.045  0.00  0.00    +0.000 A 
BRANCH   5  10
ATOM     10  O   UNL     1       4.924   6.923  15.777  0.00  0.00    +0.000 OA
ATOM     11  H   UNL     1       4.797   7.860  15.608  0.00  0.00    +0.000 HD
ENDBRANCH   5  10
BRANCH   7  12
ATOM     12  O   UNL     1       2.511   4.557  19.060  0.00  0.00    +0.000 OA
ATOM     13  H   UNL     1       2.414   4.157  19.937  0.00  0.00    +0.000 HD
ENDBRANCH   7  12
BRANCH   9  14
ATOM     14  O   UNL     1       7.089   5.360  19.865  0.00  0.00    +0.000 OA
ATOM     15  H   UNL     1       7.182   4.611  20.471  0.00  0.00    +0.000 HD
ENDBRANCH   9  14
ENDBRANCH   3   4
ENDBRANCH   1   3
BRANCH   1  16
ATOM     16  C   UNL     1       8.217   9.255  17.925  0.00  0.00    +0.000 C 
BRANCH  16  17
ATOM     17  C   UNL     1       9.032  10.123  18.912  0.00  0.00    +0.000 C 
BRANCH  17  18
ATOM     18  N   UNL     1       9.955  11.064  18.237  0.00  0.00    +0.000 NA
ATOM     19  C   UNL     1       9.303  12.289  17.712  0.00  0.00    +0.000 C 
ATOM     20  C   UNL     1       8.797  13.194  18.842  0.00  0.00    +0.000 C 
ATOM     21  N   UNL     1       9.937  13.523  19.689  0.00  0.00    +0.000 N 
ATOM     22  C   UNL     1      10.653  12.383  20.254  0.00  0.00    +0.000 C 
ATOM     23  C   UNL     1      11.091  11.439  19.115  0.00  0.00    +0.000 C 
BRANCH  21  24
ATOM     24  C   UNL     1      10.358  14.886  19.886  0.00  0.00    +0.000 A 
ATOM     25  C   UNL     1      10.773  15.352  21.153  0.00  0.00    +0.000 A 
ATOM     26  C   UNL     1      11.195  16.673  21.326  0.00  0.00    +0.000 A 
ATOM     27  C   UNL     1      11.201  17.558  20.247  0.00  0.00    +0.000 A 
ATOM     28  C   UNL     1      10.786  17.123  18.990  0.00  0.00    +0.000 A 
ATOM     29 CL   UNL     1      10.778  18.236  17.633  0.00  0.00    +0.000 Cl
ATOM     30  C   UNL     1      10.371  15.801  18.806  0.00  0.00    +0.000 A 
ENDBRANCH  21  24
ENDBRANCH  17  18
ENDBRANCH  16  17
ENDBRANCH   1  16
TORSDOF 9
ENDMDL
MODEL 8
REMARK VINA RESULT:      -7.0      7.074     10.064
REMARK  Name = 
REMARK  9 active torsions:
REMARK  status: ('A' for Active; 'I' for Inactive)
REMARK    1  A    between atoms: C_2  and  C_3
REMARK    2  A    between atoms: C_2  and  C_19
REMARK    3  A    between atoms: C_3  and  C_4
REMARK    4  A    between atoms: C_4  and  C_5
REMARK    5  A    between atoms: C_5  and  N_6
REMARK    6  A    between atoms: N_9  and  C_10
REMARK    7  A    between atoms: C_20  and  O_21
REMARK    8  A    between atoms: C_23  and  O_24
REMARK    9  A    between atoms: C_26  and  O_27
REMARK                            x       y       z     vdW  Elec       q    Type
REMARK                         _______ _______ _______ _____ _____    ______ ____
ROOT
ATOM      1  C   UNL     1       4.684   5.681  17.175  0.00  0.00    +0.000 C 
ENDROOT
BRANCH   1   3
ATOM      2  O   UNL     1       4.349   3.541  16.242  0.00  0.00    +0.000 OA
ATOM      3  C   UNL     1       4.137   4.260  17.204  0.00  0.00    +0.000 C 
BRANCH   3   4
ATOM      4  C   UNL     1       3.269   3.774  18.342  0.00  0.00    +0.000 A 
ATOM      5  C   UNL     1       1.840   3.911  18.327  0.00  0.00    +0.000 A 
ATOM      6  C   UNL     1       1.089   3.505  19.435  0.00  0.00    +0.000 A 
ATOM      7  C   UNL     1       1.697   2.958  20.562  0.00  0.00    +0.000 A 
ATOM      8  C   UNL     1       3.075   2.795  20.587  0.00  0.00    +0.000 A 
ATOM      9  C   UNL     1       3.865   3.193  19.504  0.00  0.00    +0.000 A 
BRANCH   5  10
ATOM     10  O   UNL     1       1.130   4.448  17.307  0.00  0.00    +0.000 OA
ATOM     11  H   UNL     1       1.418   5.109  16.671  0.00  0.00    +0.000 HD
ENDBRANCH   5  10
BRANCH   7  12
ATOM     12  O   UNL     1       0.968   2.587  21.633  0.00  0.00    +0.000 OA
ATOM     13  H   UNL     1       0.267   1.923  21.571  0.00  0.00    +0.000 HD
ENDBRANCH   7  12
BRANCH   9  14
ATOM     14  O   UNL     1       5.198   2.999  19.586  0.00  0.00    +0.000 OA
ATOM     15  H   UNL     1       5.713   3.203  20.379  0.00  0.00    +0.000 HD
ENDBRANCH   9  14
ENDBRANCH   3   4
ENDBRANCH   1   3
BRANCH   1  16
ATOM     16  C   UNL     1       4.200   6.569  18.327  0.00  0.00    +0.000 C 
BRANCH  16  17
ATOM     17  C   UNL     1       3.346   7.749  17.805  0.00  0.00    +0.000 C 
BRANCH  17  18
ATOM     18  N   UNL     1       1.903   7.601  18.103  0.00  0.00    +0.000 NA
ATOM     19  C   UNL     1       1.605   7.218  19.505  0.00  0.00    +0.000 C 
ATOM     20  C   UNL     1       1.955   8.341  20.489  0.00  0.00    +0.000 C 
ATOM     21  N   UNL     1       1.205   9.526  20.093  0.00  0.00    +0.000 N 
ATOM     22  C   UNL     1       1.425   9.984  18.725  0.00  0.00    +0.000 C 
ATOM     23  C   UNL     1       1.143   8.825  17.746  0.00  0.00    +0.000 C 
BRANCH  21  24
ATOM     24  C   UNL     1       0.260  10.149  20.984  0.00  0.00    +0.000 A 
ATOM     25  C   UNL     1       0.048   9.658  22.292  0.00  0.00    +0.000 A 
ATOM     26  C   UNL     1      -0.859  10.283  23.151  0.00  0.00    +0.000 A 
ATOM     27  C   UNL     1      -1.582  11.397  22.723  0.00  0.00    +0.000 A 
ATOM     28  C   UNL     1      -1.398  11.892  21.434  0.00  0.00    +0.000 A 
ATOM     29 CL   UNL     1      -2.316  13.284  20.887  0.00  0.00    +0.000 Cl
ATOM     30  C   UNL     1      -0.485  11.279  20.572  0.00  0.00    +0.000 A 
ENDBRANCH  21  24
ENDBRANCH  17  18
ENDBRANCH  16  17
ENDBRANCH   1  16
TORSDOF 9
ENDMDL
MODEL 9
REMARK VINA RESULT:      -7.0      1.619      2.037
REMARK  Name = 
REMARK  9 active torsions:
REMARK  status: ('A' for Active; 'I' for Inactive)
REMARK    1  A    between atoms: C_2  and  C_3
REMARK    2  A    between atoms: C_2  and  C_19
REMARK    3  A    between atoms: C_3  and  C_4
REMARK    4  A    between atoms: C_4  and  C_5
REMARK    5  A    between atoms: C_5  and  N_6
REMARK    6  A    between atoms: N_9  and  C_10
REMARK    7  A    between atoms: C_20  and  O_21
REMARK    8  A    between atoms: C_23  and  O_24
REMARK    9  A    between atoms: C_26  and  O_27
REMARK                            x       y       z     vdW  Elec       q    Type
REMARK                         _______ _______ _______ _____ _____    ______ ____
ROOT
ATOM      1  C   UNL     1       8.986   9.923  18.494  0.00  0.00    +0.000 C 
ENDROOT
BRANCH   1   3
ATOM      2  O   UNL     1       8.014  11.689  17.270  0.00  0.00    +0.000 OA
ATOM      3  C   UNL     1       8.665  11.392  18.259  0.00  0.00    +0.000 C 
BRANCH   3   4
ATOM      4  C   UNL     1       9.214  12.473  19.160  0.00  0.00    +0.000 A 
ATOM      5  C   UNL     1       9.491  13.799  18.686  0.00  0.00    +0.000 A 
ATOM      6  C   UNL     1      10.062  14.744  19.545  0.00  0.00    +0.000 A 
ATOM      7  C   UNL     1      10.366  14.429  20.868  0.00  0.00    +0.000 A 
ATOM      8  C   UNL     1      10.084  13.159  21.353  0.00  0.00    +0.000 A 
ATOM      9  C   UNL     1       9.519  12.183  20.527  0.00  0.00    +0.000 A 
BRANCH   5  10
ATOM     10  O   UNL     1       9.267  14.224  17.420  0.00  0.00    +0.000 OA
ATOM     11  H   UNL     1       9.890  14.253  16.689  0.00  0.00    +0.000 HD
ENDBRANCH   5  10
BRANCH   7  12
ATOM     12  O   UNL     1      10.933  15.338  21.684  0.00  0.00    +0.000 OA
ATOM     13  H   UNL     1      11.496  16.051  21.347  0.00  0.00    +0.000 HD
ENDBRANCH   7  12
BRANCH   9  14
ATOM     14  O   UNL     1       9.261  10.972  21.061  0.00  0.00    +0.000 OA
ATOM     15  H   UNL     1       8.655  10.842  21.805  0.00  0.00    +0.000 HD
ENDBRANCH   9  14
ENDBRANCH   3   4
ENDBRANCH   1   3
BRANCH   1  16
ATOM     16  C   UNL     1       8.056   8.947  17.764  0.00  0.00    +0.000 C 
BRANCH  16  17
ATOM     17  C   UNL     1       8.121   7.535  18.394  0.00  0.00    +0.000 C 
BRANCH  17  18
ATOM     18  N   UNL     1       7.630   6.471  17.489  0.00  0.00    +0.000 NA
ATOM     19  C   UNL     1       7.487   5.142  18.130  0.00  0.00    +0.000 C 
ATOM     20  C   UNL     1       6.361   5.130  19.172  0.00  0.00    +0.000 C 
ATOM     21  N   UNL     1       5.132   5.527  18.499  0.00  0.00    +0.000 N 
ATOM     22  C   UNL     1       5.170   6.824  17.830  0.00  0.00    +0.000 C 
ATOM     23  C   UNL     1       6.351   6.853  16.839  0.00  0.00    +0.000 C 
BRANCH  21  24
ATOM     24  C   UNL     1       3.987   4.654  18.447  0.00  0.00    +0.000 A 
ATOM     25  C   UNL     1       3.595   4.026  17.244  0.00  0.00    +0.000 A 
ATOM     26  C   UNL     1       2.493   3.167  17.212  0.00  0.00    +0.000 A 
ATOM     27  C   UNL     1       1.754   2.926  18.371  0.00  0.00    +0.000 A 
ATOM     28  C   UNL     1       2.117   3.542  19.567  0.00  0.00    +0.000 A 
ATOM     29 CL   UNL     1       1.182   3.253  21.024  0.00  0.00    +0.000 Cl
ATOM     30  C   UNL     1       3.223   4.395  19.610  0.00  0.00    +0.000 A 
ENDBRANCH  21  24
ENDBRANCH  17  18
ENDBRANCH  16  17
ENDBRANCH   1  16
TORSDOF 9
ENDMDL
