MODEL 1
REMARK VINA RESULT:      -8.1      0.000      0.000
REMARK  Name = 
REMARK  7 active torsions:
REMARK  status: ('A' for Active; 'I' for Inactive)
REMARK    1  A    between atoms: C_1  and  C_2
REMARK    2  A    between atoms: C_2  and  N_3
REMARK    3  A    between atoms: C_2  and  C_13
REMARK    4  A    between atoms: C_4  and  C_6
REMARK    5  A    between atoms: C_6  and  C_7
REMARK    6  A    between atoms: C_7  and  C_8
REMARK    7  A    between atoms: C_16  and  C_17
REMARK                            x       y       z     vdW  Elec       q    Type
REMARK                         _______ _______ _______ _____ _____    ______ ____
ROOT
ATOM      1  C   UNL     1       5.039   6.787  17.557  0.00  0.00    +0.000 C 
ATOM      2  C   UNL     1       3.585   6.304  17.519  0.00  0.00    +0.000 C 
ENDROOT
BRANCH   2   3
ATOM      3  C   UNL     1       2.711   7.144  18.441  0.00  0.00    +0.000 A 
ATOM      4  C   UNL     1       2.229   8.387  18.016  0.00  0.00    +0.000 A 
ATOM      5  C   UNL     1       1.478   9.202  18.877  0.00  0.00    +0.000 A 
ATOM      6  C   UNL     1       1.169   8.803  20.189  0.00  0.00    +0.000 A 
ATOM      7  C   UNL     1       1.635   7.540  20.592  0.00  0.00    +0.000 A 
ATOM      8  C   UNL     1       2.392   6.724  19.738  0.00  0.00    +0.000 A 
BRANCH   6   9
ATOM      9  C   UNL     1       0.397   9.673  21.106  0.00  0.00    +0.000 A 
ATOM     10  C   UNL     1      -0.389  10.741  20.652  0.00  0.00    +0.000 A 
ATOM     11  C   UNL     1      -1.104  11.538  21.546  0.00  0.00    +0.000 A 
ATOM     12  C   UNL     1      -1.022  11.246  22.897  0.00  0.00    +0.000 A 
ATOM     13  N   UNL     1      -0.281  10.240  23.393  0.00  0.00    +0.000 NA
ATOM     14  C   UNL     1       0.408   9.490  22.495  0.00  0.00    +0.000 A 
ENDBRANCH   6   9
ENDBRANCH   2   3
BRANCH   2  15
ATOM     15  N   UNL     1       3.482   4.893  17.852  0.00  0.00    +0.000 N 
ATOM     16  C   UNL     1       4.030   3.915  17.051  0.00  0.00    +0.000 C 
ATOM     17  O   UNL     1       4.647   4.151  16.016  0.00  0.00    +0.000 OA
ATOM     18  H   UNL     1       2.926   4.624  18.652  0.00  0.00    +0.000 HD
BRANCH  16  19
ATOM     19  C   UNL     1       3.814   2.502  17.545  0.00  0.00    +0.000 C 
BRANCH  19  20
ATOM     20  C   UNL     1       2.334   2.235  17.807  0.00  0.00    +0.000 C 
BRANCH  20  21
ATOM     21  C   UNL     1       2.040   2.031  19.288  0.00  0.00    +0.000 C 
ATOM     22  C   UNL     1       0.849   2.854  19.759  0.00  0.00    +0.000 C 
ATOM     23  C   UNL     1       1.185   3.096  21.209  0.00  0.00    +0.000 C 
ATOM     24  C   UNL     1       2.688   3.261  21.164  0.00  0.00    +0.000 C 
ATOM     25  O   UNL     1       3.165   2.461  20.073  0.00  0.00    +0.000 OA
ENDBRANCH  20  21
ENDBRANCH  19  20
ENDBRANCH  16  19
ENDBRANCH   2  15
TORSDOF 6
ENDMDL
MODEL 2
REMARK VINA RESULT:      -7.7      2.439      4.402
REMARK  Name = 
REMARK  7 active torsions:
REMARK  status: ('A' for Active; 'I' for Inactive)
REMARK    1  A    between atoms: C_1  and  C_2
REMARK    2  A    between atoms: C_2  and  N_3
REMARK    3  A    between atoms: C_2  and  C_13
REMARK    4  A    between atoms: C_4  and  C_6
REMARK    5  A    between atoms: C_6  and  C_7
REMARK    6  A    between atoms: C_7  and  C_8
REMARK    7  A    between atoms: C_16  and  C_17
REMARK                            x       y       z     vdW  Elec       q    Type
REMARK                         _______ _______ _______ _____ _____    ______ ____
ROOT
ATOM      1  C   UNL     1       2.569   4.848  17.842  0.00  0.00    +0.000 C 
ATOM      2  C   UNL     1       3.238   5.701  18.927  0.00  0.00    +0.000 C 
ENDROOT
BRANCH   2   3
ATOM      3  C   UNL     1       2.519   7.033  19.089  0.00  0.00    +0.000 A 
ATOM      4  C   UNL     1       1.968   7.392  20.324  0.00  0.00    +0.000 A 
ATOM      5  C   UNL     1       1.244   8.585  20.472  0.00  0.00    +0.000 A 
ATOM      6  C   UNL     1       1.055   9.471  19.397  0.00  0.00    +0.000 A 
ATOM      7  C   UNL     1       1.639   9.113  18.170  0.00  0.00    +0.000 A 
ATOM      8  C   UNL     1       2.357   7.917  18.015  0.00  0.00    +0.000 A 
BRANCH   6   9
ATOM      9  C   UNL     1       0.272  10.720  19.546  0.00  0.00    +0.000 A 
ATOM     10  C   UNL     1      -0.749  10.863  20.497  0.00  0.00    +0.000 A 
ATOM     11  C   UNL     1      -1.464  12.055  20.609  0.00  0.00    +0.000 A 
ATOM     12  C   UNL     1      -1.139  13.099  19.760  0.00  0.00    +0.000 A 
ATOM     13  N   UNL     1      -0.175  13.020  18.825  0.00  0.00    +0.000 NA
ATOM     14  C   UNL     1       0.495  11.843  18.739  0.00  0.00    +0.000 A 
ENDBRANCH   6   9
ENDBRANCH   2   3
BRANCH   2  15
ATOM     15  N   UNL     1       4.651   5.904  18.652  0.00  0.00    +0.000 N 
ATOM     16  C   UNL     1       5.597   4.952  18.960  0.00  0.00    +0.000 C 
ATOM     17  O   UNL     1       5.328   3.869  19.473  0.00  0.00    +0.000 OA
ATOM     18  H   UNL     1       4.949   6.802  18.295  0.00  0.00    +0.000 HD
BRANCH  16  19
ATOM     19  C   UNL     1       7.017   5.340  18.615  0.00  0.00    +0.000 C 
BRANCH  19  20
ATOM     20  C   UNL     1       7.498   4.600  17.369  0.00  0.00    +0.000 C 
BRANCH  20  21
ATOM     21  C   UNL     1       6.697   4.981  16.130  0.00  0.00    +0.000 C 
ATOM     22  C   UNL     1       5.931   3.799  15.552  0.00  0.00    +0.000 C 
ATOM     23  C   UNL     1       5.868   4.147  14.087  0.00  0.00    +0.000 C 
ATOM     24  C   UNL     1       7.210   4.806  13.859  0.00  0.00    +0.000 C 
ATOM     25  O   UNL     1       7.586   5.432  15.093  0.00  0.00    +0.000 OA
ENDBRANCH  20  21
ENDBRANCH  19  20
ENDBRANCH  16  19
ENDBRANCH   2  15
TORSDOF 6
ENDMDL
MODEL 3
REMARK VINA RESULT:      -7.7      0.729      1.025
REMARK  Name = 
REMARK  7 active torsions:
REMARK  status: ('A' for Active; 'I' for Inactive)
REMARK    1  A    between atoms: C_1  and  C_2
REMARK    2  A    between atoms: C_2  and  N_3
REMARK    3  A    between atoms: C_2  and  C_13
REMARK    4  A    between atoms: C_4  and  C_6
REMARK    5  A    between atoms: C_6  and  C_7
REMARK    6  A    between atoms: C_7  and  C_8
REMARK    7  A    between atoms: C_16  and  C_17
REMARK                            x       y       z     vdW  Elec       q    Type
REMARK                         _______ _______ _______ _____ _____    ______ ____
ROOT
ATOM      1  C   UNL     1       5.022   6.310  18.131  0.00  0.00    +0.000 C 
ATOM      2  C   UNL     1       3.534   6.099  17.824  0.00  0.00    +0.000 C 
ENDROOT
BRANCH   2   3
ATOM      3  C   UNL     1       2.670   7.011  18.684  0.00  0.00    +0.000 A 
ATOM      4  C   UNL     1       2.270   8.263  18.204  0.00  0.00    +0.000 A 
ATOM      5  C   UNL     1       1.530   9.142  19.010  0.00  0.00    +0.000 A 
ATOM      6  C   UNL     1       1.149   8.800  20.319  0.00  0.00    +0.000 A 
ATOM      7  C   UNL     1       1.532   7.528  20.778  0.00  0.00    +0.000 A 
ATOM      8  C   UNL     1       2.279   6.649  19.979  0.00  0.00    +0.000 A 
BRANCH   6   9
ATOM      9  C   UNL     1       0.388   9.737  21.178  0.00  0.00    +0.000 A 
ATOM     10  C   UNL     1      -0.185   9.349  22.397  0.00  0.00    +0.000 A 
ATOM     11  C   UNL     1      -0.894  10.260  23.180  0.00  0.00    +0.000 A 
ATOM     12  C   UNL     1      -1.015  11.562  22.726  0.00  0.00    +0.000 A 
ATOM     13  N   UNL     1      -0.492  11.992  21.564  0.00  0.00    +0.000 NA
ATOM     14  C   UNL     1       0.184  11.076  20.824  0.00  0.00    +0.000 A 
ENDBRANCH   6   9
ENDBRANCH   2   3
BRANCH   2  15
ATOM     15  N   UNL     1       3.146   4.709  17.990  0.00  0.00    +0.000 N 
ATOM     16  C   UNL     1       3.631   3.715  17.169  0.00  0.00    +0.000 C 
ATOM     17  O   UNL     1       4.424   3.917  16.253  0.00  0.00    +0.000 OA
ATOM     18  H   UNL     1       2.441   4.483  18.680  0.00  0.00    +0.000 HD
BRANCH  16  19
ATOM     19  C   UNL     1       3.108   2.330  17.480  0.00  0.00    +0.000 C 
BRANCH  19  20
ATOM     20  C   UNL     1       1.689   2.395  18.040  0.00  0.00    +0.000 C 
BRANCH  20  21
ATOM     21  C   UNL     1       1.650   2.115  19.537  0.00  0.00    +0.000 C 
ATOM     22  C   UNL     1       0.873   3.176  20.303  0.00  0.00    +0.000 C 
ATOM     23  C   UNL     1       1.546   3.152  21.651  0.00  0.00    +0.000 C 
ATOM     24  C   UNL     1       2.991   2.899  21.280  0.00  0.00    +0.000 C 
ATOM     25  O   UNL     1       2.985   2.126  20.072  0.00  0.00    +0.000 OA
ENDBRANCH  20  21
ENDBRANCH  19  20
ENDBRANCH  16  19
ENDBRANCH   2  15
TORSDOF 6
ENDMDL
MODEL 4
REMARK VINA RESULT:      -7.6      2.359      4.244
REMARK  Name = 
REMARK  7 active torsions:
REMARK  status: ('A' for Active; 'I' for Inactive)
REMARK    1  A    between atoms: C_1  and  C_2
REMARK    2  A    between atoms: C_2  and  N_3
REMARK    3  A    between atoms: C_2  and  C_13
REMARK    4  A    between atoms: C_4  and  C_6
REMARK    5  A    between atoms: C_6  and  C_7
REMARK    6  A    between atoms: C_7  and  C_8
REMARK    7  A    between atoms: C_16  and  C_17
REMARK                            x       y       z     vdW  Elec       q    Type
REMARK                         _______ _______ _______ _____ _____    ______ ____
ROOT
ATOM      1  C   UNL     1       2.532   4.638  17.713  0.00  0.00    +0.000 C 
ATOM      2  C   UNL     1       3.222   5.412  18.842  0.00  0.00    +0.000 C 
ENDROOT
BRANCH   2   3
ATOM      3  C   UNL     1       2.465   6.694  19.160  0.00  0.00    +0.000 A 
ATOM      4  C   UNL     1       2.336   7.696  18.192  0.00  0.00    +0.000 A 
ATOM      5  C   UNL     1       1.699   8.911  18.491  0.00  0.00    +0.000 A 
ATOM      6  C   UNL     1       1.155   9.165  19.763  0.00  0.00    +0.000 A 
ATOM      7  C   UNL     1       1.266   8.139  20.716  0.00  0.00    +0.000 A 
ATOM      8  C   UNL     1       1.908   6.926  20.424  0.00  0.00    +0.000 A 
BRANCH   6   9
ATOM      9  C   UNL     1       0.504  10.456  20.086  0.00  0.00    +0.000 A 
ATOM     10  C   UNL     1      -0.345  10.619  21.190  0.00  0.00    +0.000 A 
ATOM     11  C   UNL     1      -0.939  11.851  21.464  0.00  0.00    +0.000 A 
ATOM     12  C   UNL     1      -0.668  12.913  20.619  0.00  0.00    +0.000 A 
ATOM     13  N   UNL     1       0.132  12.818  19.542  0.00  0.00    +0.000 NA
ATOM     14  C   UNL     1       0.687  11.602  19.302  0.00  0.00    +0.000 A 
ENDBRANCH   6   9
ENDBRANCH   2   3
BRANCH   2  15
ATOM     15  N   UNL     1       4.612   5.695  18.525  0.00  0.00    +0.000 N 
ATOM     16  C   UNL     1       5.628   4.833  18.873  0.00  0.00    +0.000 C 
ATOM     17  O   UNL     1       5.446   3.770  19.460  0.00  0.00    +0.000 OA
ATOM     18  H   UNL     1       4.840   6.587  18.105  0.00  0.00    +0.000 HD
BRANCH  16  19
ATOM     19  C   UNL     1       7.012   5.296  18.474  0.00  0.00    +0.000 C 
BRANCH  19  20
ATOM     20  C   UNL     1       7.497   4.557  17.230  0.00  0.00    +0.000 C 
BRANCH  20  21
ATOM     21  C   UNL     1       6.720   4.962  15.982  0.00  0.00    +0.000 C 
ATOM     22  C   UNL     1       5.910   3.809  15.408  0.00  0.00    +0.000 C 
ATOM     23  C   UNL     1       5.870   4.149  13.940  0.00  0.00    +0.000 C 
ATOM     24  C   UNL     1       7.240   4.751  13.716  0.00  0.00    +0.000 C 
ATOM     25  O   UNL     1       7.634   5.369  14.949  0.00  0.00    +0.000 OA
ENDBRANCH  20  21
ENDBRANCH  19  20
ENDBRANCH  16  19
ENDBRANCH   2  15
TORSDOF 6
ENDMDL
MODEL 5
REMARK VINA RESULT:      -7.4      2.228      4.063
REMARK  Name = 
REMARK  7 active torsions:
REMARK  status: ('A' for Active; 'I' for Inactive)
REMARK    1  A    between atoms: C_1  and  C_2
REMARK    2  A    between atoms: C_2  and  N_3
REMARK    3  A    between atoms: C_2  and  C_13
REMARK    4  A    between atoms: C_4  and  C_6
REMARK    5  A    between atoms: C_6  and  C_7
REMARK    6  A    between atoms: C_7  and  C_8
REMARK    7  A    between atoms: C_16  and  C_17
REMARK                            x       y       z     vdW  Elec       q    Type
REMARK                         _______ _______ _______ _____ _____    ______ ____
ROOT
ATOM      1  C   UNL     1       2.554   4.720  18.032  0.00  0.00    +0.000 C 
ATOM      2  C   UNL     1       3.195   5.620  19.095  0.00  0.00    +0.000 C 
ENDROOT
BRANCH   2   3
ATOM      3  C   UNL     1       2.427   6.928  19.231  0.00  0.00    +0.000 A 
ATOM      4  C   UNL     1       2.313   7.796  18.140  0.00  0.00    +0.000 A 
ATOM      5  C   UNL     1       1.666   9.036  18.268  0.00  0.00    +0.000 A 
ATOM      6  C   UNL     1       1.098   9.449  19.485  0.00  0.00    +0.000 A 
ATOM      7  C   UNL     1       1.193   8.554  20.565  0.00  0.00    +0.000 A 
ATOM      8  C   UNL     1       1.845   7.318  20.444  0.00  0.00    +0.000 A 
BRANCH   6   9
ATOM      9  C   UNL     1       0.435  10.766  19.627  0.00  0.00    +0.000 A 
ATOM     10  C   UNL     1      -0.407  11.299  18.642  0.00  0.00    +0.000 A 
ATOM     11  C   UNL     1      -1.014  12.544  18.812  0.00  0.00    +0.000 A 
ATOM     12  C   UNL     1      -0.769  13.240  19.982  0.00  0.00    +0.000 A 
ATOM     13  N   UNL     1       0.033  12.784  20.961  0.00  0.00    +0.000 NA
ATOM     14  C   UNL     1       0.613  11.573  20.758  0.00  0.00    +0.000 A 
ENDBRANCH   6   9
ENDBRANCH   2   3
BRANCH   2  15
ATOM     15  N   UNL     1       4.598   5.870  18.810  0.00  0.00    +0.000 N 
ATOM     16  C   UNL     1       5.568   4.921  19.047  0.00  0.00    +0.000 C 
ATOM     17  O   UNL     1       5.331   3.805  19.500  0.00  0.00    +0.000 OA
ATOM     18  H   UNL     1       4.872   6.793  18.501  0.00  0.00    +0.000 HD
BRANCH  16  19
ATOM     19  C   UNL     1       6.974   5.358  18.702  0.00  0.00    +0.000 C 
BRANCH  19  20
ATOM     20  C   UNL     1       6.960   6.463  17.649  0.00  0.00    +0.000 C 
BRANCH  20  21
ATOM     21  C   UNL     1       6.954   5.905  16.231  0.00  0.00    +0.000 C 
ATOM     22  C   UNL     1       5.563   5.914  15.613  0.00  0.00    +0.000 C 
ATOM     23  C   UNL     1       5.630   4.745  14.663  0.00  0.00    +0.000 C 
ATOM     24  C   UNL     1       6.488   3.762  15.429  0.00  0.00    +0.000 C 
ATOM     25  O   UNL     1       7.381   4.531  16.245  0.00  0.00    +0.000 OA
ENDBRANCH  20  21
ENDBRANCH  19  20
ENDBRANCH  16  19
ENDBRANCH   2  15
TORSDOF 6
ENDMDL
MODEL 6
REMARK VINA RESULT:      -7.3      2.602      4.669
REMARK  Name = 
REMARK  7 active torsions:
REMARK  status: ('A' for Active; 'I' for Inactive)
REMARK    1  A    between atoms: C_1  and  C_2
REMARK    2  A    between atoms: C_2  and  N_3
REMARK    3  A    between atoms: C_2  and  C_13
REMARK    4  A    between atoms: C_4  and  C_6
REMARK    5  A    between atoms: C_6  and  C_7
REMARK    6  A    between atoms: C_7  and  C_8
REMARK    7  A    between atoms: C_16  and  C_17
REMARK                            x       y       z     vdW  Elec       q    Type
REMARK                         _______ _______ _______ _____ _____    ______ ____
ROOT
ATOM      1  C   UNL     1       2.636   3.653  17.531  0.00  0.00    +0.000 C 
ATOM      2  C   UNL     1       3.597   4.603  18.254  0.00  0.00    +0.000 C 
ENDROOT
BRANCH   2   3
ATOM      3  C   UNL     1       2.836   5.743  18.916  0.00  0.00    +0.000 A 
ATOM      4  C   UNL     1       2.791   7.006  18.315  0.00  0.00    +0.000 A 
ATOM      5  C   UNL     1       2.150   8.083  18.945  0.00  0.00    +0.000 A 
ATOM      6  C   UNL     1       1.517   7.938  20.192  0.00  0.00    +0.000 A 
ATOM      7  C   UNL     1       1.544   6.658  20.770  0.00  0.00    +0.000 A 
ATOM      8  C   UNL     1       2.190   5.579  20.148  0.00  0.00    +0.000 A 
BRANCH   6   9
ATOM      9  C   UNL     1       0.860   9.081  20.869  0.00  0.00    +0.000 A 
ATOM     10  C   UNL     1       0.309   8.983  22.154  0.00  0.00    +0.000 A 
ATOM     11  C   UNL     1      -0.301  10.082  22.760  0.00  0.00    +0.000 A 
ATOM     12  C   UNL     1      -0.345  11.276  22.062  0.00  0.00    +0.000 A 
ATOM     13  N   UNL     1       0.161  11.431  20.826  0.00  0.00    +0.000 NA
ATOM     14  C   UNL     1       0.740  10.338  20.264  0.00  0.00    +0.000 A 
ENDBRANCH   6   9
ENDBRANCH   2   3
BRANCH   2  15
ATOM     15  N   UNL     1       4.619   5.115  17.356  0.00  0.00    +0.000 N 
ATOM     16  C   UNL     1       5.962   4.915  17.593  0.00  0.00    +0.000 C 
ATOM     17  O   UNL     1       6.396   4.292  18.557  0.00  0.00    +0.000 OA
ATOM     18  H   UNL     1       4.334   5.698  16.581  0.00  0.00    +0.000 HD
BRANCH  16  19
ATOM     19  C   UNL     1       6.881   5.529  16.561  0.00  0.00    +0.000 C 
BRANCH  19  20
ATOM     20  C   UNL     1       6.217   5.560  15.187  0.00  0.00    +0.000 C 
BRANCH  20  21
ATOM     21  C   UNL     1       6.739   4.459  14.272  0.00  0.00    +0.000 C 
ATOM     22  C   UNL     1       7.408   5.015  13.023  0.00  0.00    +0.000 C 
ATOM     23  C   UNL     1       7.163   3.920  12.017  0.00  0.00    +0.000 C 
ATOM     24  C   UNL     1       5.783   3.435  12.404  0.00  0.00    +0.000 C 
ATOM     25  O   UNL     1       5.646   3.643  13.816  0.00  0.00    +0.000 OA
ENDBRANCH  20  21
ENDBRANCH  19  20
ENDBRANCH  16  19
ENDBRANCH   2  15
TORSDOF 6
ENDMDL
MODEL 7
REMARK VINA RESULT:      -7.3      2.732      4.627
REMARK  Name = 
REMARK  7 active torsions:
REMARK  status: ('A' for Active; 'I' for Inactive)
REMARK    1  A    between atoms: C_1  and  C_2
REMARK    2  A    between atoms: C_2  and  N_3
REMARK    3  A    between atoms: C_2  and  C_13
REMARK    4  A    between atoms: C_4  and  C_6
REMARK    5  A    between atoms: C_6  and  C_7
REMARK    6  A    between atoms: C_7  and  C_8
REMARK    7  A    between atoms: C_16  and  C_17
REMARK                            x       y       z     vdW  Elec       q    Type
REMARK                         _______ _______ _______ _____ _____    ______ ____
ROOT
ATOM      1  C   UNL     1       2.333   4.356  19.982  0.00  0.00    +0.000 C 
ATOM      2  C   UNL     1       3.316   5.477  19.622  0.00  0.00    +0.000 C 
ENDROOT
BRANCH   2   3
ATOM      3  C   UNL     1       2.578   6.786  19.379  0.00  0.00    +0.000 A 
ATOM      4  C   UNL     1       2.671   7.429  18.139  0.00  0.00    +0.000 A 
ATOM      5  C   UNL     1       2.052   8.669  17.921  0.00  0.00    +0.000 A 
ATOM      6  C   UNL     1       1.305   9.308  18.926  0.00  0.00    +0.000 A 
ATOM      7  C   UNL     1       1.196   8.638  20.156  0.00  0.00    +0.000 A 
ATOM      8  C   UNL     1       1.819   7.401  20.382  0.00  0.00    +0.000 A 
BRANCH   6   9
ATOM      9  C   UNL     1       0.671  10.628  18.704  0.00  0.00    +0.000 A 
ATOM     10  C   UNL     1      -0.709  10.781  18.509  0.00  0.00    +0.000 A 
ATOM     11  C   UNL     1      -1.271  12.041  18.304  0.00  0.00    +0.000 A 
ATOM     12  C   UNL     1      -0.432  13.142  18.302  0.00  0.00    +0.000 A 
ATOM     13  N   UNL     1       0.899  13.059  18.479  0.00  0.00    +0.000 NA
ATOM     14  C   UNL     1       1.412  11.816  18.667  0.00  0.00    +0.000 A 
ENDBRANCH   6   9
ENDBRANCH   2   3
BRANCH   2  15
ATOM     15  N   UNL     1       4.135   5.122  18.475  0.00  0.00    +0.000 N 
ATOM     16  C   UNL     1       5.500   4.967  18.577  0.00  0.00    +0.000 C 
ATOM     17  O   UNL     1       6.124   5.103  19.626  0.00  0.00    +0.000 OA
ATOM     18  H   UNL     1       3.696   5.064  17.567  0.00  0.00    +0.000 HD
BRANCH  16  19
ATOM     19  C   UNL     1       6.192   4.610  17.280  0.00  0.00    +0.000 C 
BRANCH  19  20
ATOM     20  C   UNL     1       5.176   4.223  16.208  0.00  0.00    +0.000 C 
BRANCH  20  21
ATOM     21  C   UNL     1       5.532   4.801  14.843  0.00  0.00    +0.000 C 
ATOM     22  C   UNL     1       5.673   3.723  13.778  0.00  0.00    +0.000 C 
ATOM     23  C   UNL     1       6.675   4.337  12.835  0.00  0.00    +0.000 C 
ATOM     24  C   UNL     1       7.595   5.074  13.784  0.00  0.00    +0.000 C 
ATOM     25  O   UNL     1       6.804   5.470  14.913  0.00  0.00    +0.000 OA
ENDBRANCH  20  21
ENDBRANCH  19  20
ENDBRANCH  16  19
ENDBRANCH   2  15
TORSDOF 6
ENDMDL
MODEL 8
REMARK VINA RESULT:      -7.2      2.812      4.804
REMARK  Name = 
REMARK  7 active torsions:
REMARK  status: ('A' for Active; 'I' for Inactive)
REMARK    1  A    between atoms: C_1  and  C_2
REMARK    2  A    between atoms: C_2  and  N_3
REMARK    3  A    between atoms: C_2  and  C_13
REMARK    4  A    between atoms: C_4  and  C_6
REMARK    5  A    between atoms: C_6  and  C_7
REMARK    6  A    between atoms: C_7  and  C_8
REMARK    7  A    between atoms: C_16  and  C_17
REMARK                            x       y       z     vdW  Elec       q    Type
REMARK                         _______ _______ _______ _____ _____    ______ ____
ROOT
ATOM      1  C   UNL     1       3.443   3.251  19.186  0.00  0.00    +0.000 C 
ATOM      2  C   UNL     1       4.264   4.541  19.067  0.00  0.00    +0.000 C 
ENDROOT
BRANCH   2   3
ATOM      3  C   UNL     1       3.367   5.766  19.172  0.00  0.00    +0.000 A 
ATOM      4  C   UNL     1       3.332   6.706  18.136  0.00  0.00    +0.000 A 
ATOM      5  C   UNL     1       2.561   7.874  18.247  0.00  0.00    +0.000 A 
ATOM      6  C   UNL     1       1.785   8.140  19.389  0.00  0.00    +0.000 A 
ATOM      7  C   UNL     1       1.806   7.173  20.408  0.00  0.00    +0.000 A 
ATOM      8  C   UNL     1       2.581   6.008  20.306  0.00  0.00    +0.000 A 
BRANCH   6   9
ATOM      9  C   UNL     1       0.989   9.383  19.516  0.00  0.00    +0.000 A 
ATOM     10  C   UNL     1       0.431  10.040  18.411  0.00  0.00    +0.000 A 
ATOM     11  C   UNL     1      -0.315  11.208  18.570  0.00  0.00    +0.000 A 
ATOM     12  C   UNL     1      -0.494  11.704  19.850  0.00  0.00    +0.000 A 
ATOM     13  N   UNL     1       0.021  11.122  20.948  0.00  0.00    +0.000 NA
ATOM     14  C   UNL     1       0.748   9.991  20.755  0.00  0.00    +0.000 A 
ENDBRANCH   6   9
ENDBRANCH   2   3
BRANCH   2  15
ATOM     15  N   UNL     1       5.040   4.569  17.838  0.00  0.00    +0.000 N 
ATOM     16  C   UNL     1       6.417   4.559  17.847  0.00  0.00    +0.000 C 
ATOM     17  O   UNL     1       7.090   4.516  18.873  0.00  0.00    +0.000 OA
ATOM     18  H   UNL     1       4.550   4.677  16.960  0.00  0.00    +0.000 HD
BRANCH  16  19
ATOM     19  C   UNL     1       7.056   4.606  16.477  0.00  0.00    +0.000 C 
BRANCH  19  20
ATOM     20  C   UNL     1       6.216   3.844  15.456  0.00  0.00    +0.000 C 
BRANCH  20  21
ATOM     21  C   UNL     1       6.202   4.530  14.095  0.00  0.00    +0.000 C 
ATOM     22  C   UNL     1       6.315   3.537  12.947  0.00  0.00    +0.000 C 
ATOM     23  C   UNL     1       7.001   4.356  11.885  0.00  0.00    +0.000 C 
ATOM     24  C   UNL     1       7.949   5.207  12.702  0.00  0.00    +0.000 C 
ATOM     25  O   UNL     1       7.334   5.410  13.981  0.00  0.00    +0.000 OA
ENDBRANCH  20  21
ENDBRANCH  19  20
ENDBRANCH  16  19
ENDBRANCH   2  15
TORSDOF 6
ENDMDL
MODEL 9
REMARK VINA RESULT:      -7.2      2.457      4.567
REMARK  Name = 
REMARK  7 active torsions:
REMARK  status: ('A' for Active; 'I' for Inactive)
REMARK    1  A    between atoms: C_1  and  C_2
REMARK    2  A    between atoms: C_2  and  N_3
REMARK    3  A    between atoms: C_2  and  C_13
REMARK    4  A    between atoms: C_4  and  C_6
REMARK    5  A    between atoms: C_6  and  C_7
REMARK    6  A    between atoms: C_7  and  C_8
REMARK    7  A    between atoms: C_16  and  C_17
REMARK                            x       y       z     vdW  Elec       q    Type
REMARK                         _______ _______ _______ _____ _____    ______ ____
ROOT
ATOM      1  C   UNL     1       3.124   2.429  19.107  0.00  0.00    +0.000 C 
ATOM      2  C   UNL     1       4.037   3.621  19.419  0.00  0.00    +0.000 C 
ENDROOT
BRANCH   2   3
ATOM      3  C   UNL     1       3.218   4.881  19.663  0.00  0.00    +0.000 A 
ATOM      4  C   UNL     1       3.345   5.982  18.808  0.00  0.00    +0.000 A 
ATOM      5  C   UNL     1       2.648   7.174  19.058  0.00  0.00    +0.000 A 
ATOM      6  C   UNL     1       1.786   7.307  20.161  0.00  0.00    +0.000 A 
ATOM      7  C   UNL     1       1.645   6.184  20.993  0.00  0.00    +0.000 A 
ATOM      8  C   UNL     1       2.345   4.993  20.753  0.00  0.00    +0.000 A 
BRANCH   6   9
ATOM      9  C   UNL     1       1.067   8.573  20.438  0.00  0.00    +0.000 A 
ATOM     10  C   UNL     1       0.440   8.833  21.665  0.00  0.00    +0.000 A 
ATOM     11  C   UNL     1      -0.227  10.038  21.890  0.00  0.00    +0.000 A 
ATOM     12  C   UNL     1      -0.250  10.975  20.872  0.00  0.00    +0.000 A 
ATOM     13  N   UNL     1       0.328  10.782  19.673  0.00  0.00    +0.000 NA
ATOM     14  C   UNL     1       0.961   9.595  19.487  0.00  0.00    +0.000 A 
ENDBRANCH   6   9
ENDBRANCH   2   3
BRANCH   2  15
ATOM     15  N   UNL     1       5.016   3.834  18.367  0.00  0.00    +0.000 N 
ATOM     16  C   UNL     1       6.224   4.449  18.611  0.00  0.00    +0.000 C 
ATOM     17  O   UNL     1       6.571   4.850  19.719  0.00  0.00    +0.000 OA
ATOM     18  H   UNL     1       4.766   3.592  17.417  0.00  0.00    +0.000 HD
BRANCH  16  19
ATOM     19  C   UNL     1       7.113   4.598  17.396  0.00  0.00    +0.000 C 
BRANCH  19  20
ATOM     20  C   UNL     1       6.797   5.889  16.644  0.00  0.00    +0.000 C 
BRANCH  20  21
ATOM     21  C   UNL     1       6.320   5.622  15.221  0.00  0.00    +0.000 C 
ATOM     22  C   UNL     1       5.622   4.277  15.089  0.00  0.00    +0.000 C 
ATOM     23  C   UNL     1       5.911   3.909  13.656  0.00  0.00    +0.000 C 
ATOM     24  C   UNL     1       7.313   4.445  13.467  0.00  0.00    +0.000 C 
ATOM     25  O   UNL     1       7.447   5.584  14.328  0.00  0.00    +0.000 OA
ENDBRANCH  20  21
ENDBRANCH  19  20
ENDBRANCH  16  19
ENDBRANCH   2  15
TORSDOF 6
ENDMDL
