MODEL 1
REMARK VINA RESULT:      -9.2      0.000      0.000
REMARK  Name = 
REMARK  9 active torsions:
REMARK  status: ('A' for Active; 'I' for Inactive)
REMARK    1  A    between atoms: C_1  and  C_2
REMARK    2  A    between atoms: C_2  and  N_3
REMARK    3  A    between atoms: C_2  and  C_4
REMARK    4  A    between atoms: C_4  and  N_5
REMARK    5  A    between atoms: C_6  and  C_8
REMARK    6  A    between atoms: C_10  and  N_11
REMARK    7  A    between atoms: C_12  and  C_14
REMARK    8  A    between atoms: C_16  and  C_17
REMARK    9  A    between atoms: N_28  and  C_29
REMARK                            x       y       z     vdW  Elec       q    Type
REMARK                         _______ _______ _______ _____ _____    ______ ____
ROOT
ATOM      1  C   UNL     1       5.424   5.029  15.885  0.00  0.00    +0.000 A 
ATOM      2  C   UNL     1       5.001   6.298  16.370  0.00  0.00    +0.000 A 
ATOM      3  C   UNL     1       4.146   6.023  17.405  0.00  0.00    +0.000 A 
ATOM      4  N   UNL     1       4.057   4.642  17.484  0.00  0.00    +0.000 N 
ATOM      5  N   UNL     1       4.894   4.025  16.611  0.00  0.00    +0.000 NA
ENDROOT
BRANCH   4   6
ATOM      6  C   UNL     1       3.220   3.896  18.355  0.00  0.00    +0.000 A 
ATOM      7  C   UNL     1       1.891   3.616  18.003  0.00  0.00    +0.000 A 
ATOM      8  C   UNL     1       1.058   2.954  18.904  0.00  0.00    +0.000 A 
ATOM      9  C   UNL     1       1.547   2.577  20.152  0.00  0.00    +0.000 A 
ATOM     10  C   UNL     1       2.881   2.818  20.488  0.00  0.00    +0.000 A 
ATOM     11  C   UNL     1       3.728   3.456  19.580  0.00  0.00    +0.000 A 
ENDBRANCH   4   6
BRANCH   1  13
ATOM     12  N   UNL     1       5.882   3.955  13.790  0.00  0.00    +0.000 N 
ATOM     13  C   UNL     1       6.355   4.788  14.771  0.00  0.00    +0.000 C 
ATOM     14  O   UNL     1       7.475   5.297  14.748  0.00  0.00    +0.000 OA
ATOM     15  H   UNL     1       4.938   3.600  13.906  0.00  0.00    +0.000 HD
BRANCH  12  16
ATOM     16  C   UNL     1       6.659   3.596  12.613  0.00  0.00    +0.000 C 
BRANCH  16  18
ATOM     17  C   UNL     1       4.363   3.197  11.579  0.00  0.00    +0.000 C 
ATOM     18  C   UNL     1       5.851   2.854  11.517  0.00  0.00    +0.000 C 
BRANCH  18  19
ATOM     19  N   UNL     1       5.995   1.394  11.579  0.00  0.00    +0.000 NA
ATOM     20  H   UNL     1       5.728   1.073  12.509  0.00  0.00    +0.000 HD
ATOM     21  H   UNL     1       6.987   1.156  11.515  0.00  0.00    +0.000 HD
ENDBRANCH  18  19
ENDBRANCH  16  18
ENDBRANCH  12  16
ENDBRANCH   1  13
BRANCH   3  22
ATOM     22  N   UNL     1       3.608   6.947  18.298  0.00  0.00    +0.000 N 
ATOM     23  C   UNL     1       2.266   7.433  18.167  0.00  0.00    +0.000 C 
ATOM     24  O   UNL     1       1.567   7.028  17.254  0.00  0.00    +0.000 OA
ATOM     25  H   UNL     1       4.140   7.147  19.140  0.00  0.00    +0.000 HD
BRANCH  23  26
ATOM     26  C   UNL     1       1.739   8.306  19.251  0.00  0.00    +0.000 A 
ATOM     27  C   UNL     1       1.558   9.675  18.955  0.00  0.00    +0.000 A 
ATOM     28  C   UNL     1       1.102  10.595  19.924  0.00  0.00    +0.000 A 
ATOM     29  C   UNL     1       0.804  10.087  21.197  0.00  0.00    +0.000 A 
ATOM     30  C   UNL     1       0.972   8.736  21.502  0.00  0.00    +0.000 A 
ATOM     31  C   UNL     1       1.439   7.843  20.535  0.00  0.00    +0.000 A 
ATOM     32 CL   UNL     1       1.634   6.201  21.031  0.00  0.00    +0.000 Cl
BRANCH  28  33
ATOM     33  C   UNL     1       0.942  12.033  19.609  0.00  0.00    +0.000 A 
ATOM     34  N   UNL     1       1.955  12.840  20.032  0.00  0.00    +0.000 NA
ATOM     35  C   UNL     1       1.863  14.163  19.745  0.00  0.00    +0.000 A 
ATOM     36  C   UNL     1       0.807  14.736  19.054  0.00  0.00    +0.000 A 
ATOM     37  C   UNL     1      -0.225  13.909  18.635  0.00  0.00    +0.000 A 
ATOM     38  C   UNL     1      -0.161  12.552  18.920  0.00  0.00    +0.000 A 
ATOM     39  F   UNL     1      -1.174  11.769  18.526  0.00  0.00    +0.000 F 
ENDBRANCH  28  33
ENDBRANCH  23  26
ENDBRANCH   3  22
TORSDOF 8
ENDMDL
MODEL 2
REMARK VINA RESULT:      -9.1      0.938      1.132
REMARK  Name = 
REMARK  9 active torsions:
REMARK  status: ('A' for Active; 'I' for Inactive)
REMARK    1  A    between atoms: C_1  and  C_2
REMARK    2  A    between atoms: C_2  and  N_3
REMARK    3  A    between atoms: C_2  and  C_4
REMARK    4  A    between atoms: C_4  and  N_5
REMARK    5  A    between atoms: C_6  and  C_8
REMARK    6  A    between atoms: C_10  and  N_11
REMARK    7  A    between atoms: C_12  and  C_14
REMARK    8  A    between atoms: C_16  and  C_17
REMARK    9  A    between atoms: N_28  and  C_29
REMARK                            x       y       z     vdW  Elec       q    Type
REMARK                         _______ _______ _______ _____ _____    ______ ____
ROOT
ATOM      1  C   UNL     1       5.391   5.088  15.928  0.00  0.00    +0.000 A 
ATOM      2  C   UNL     1       4.967   6.357  16.414  0.00  0.00    +0.000 A 
ATOM      3  C   UNL     1       4.112   6.080  17.449  0.00  0.00    +0.000 A 
ATOM      4  N   UNL     1       4.024   4.699  17.527  0.00  0.00    +0.000 N 
ATOM      5  N   UNL     1       4.862   4.083  16.652  0.00  0.00    +0.000 NA
ENDROOT
BRANCH   4   6
ATOM      6  C   UNL     1       3.187   3.951  18.396  0.00  0.00    +0.000 A 
ATOM      7  C   UNL     1       1.846   3.707  18.063  0.00  0.00    +0.000 A 
ATOM      8  C   UNL     1       1.016   3.042  18.964  0.00  0.00    +0.000 A 
ATOM      9  C   UNL     1       1.520   2.626  20.195  0.00  0.00    +0.000 A 
ATOM     10  C   UNL     1       2.864   2.832  20.510  0.00  0.00    +0.000 A 
ATOM     11  C   UNL     1       3.708   3.473  19.601  0.00  0.00    +0.000 A 
ENDBRANCH   4   6
BRANCH   1  13
ATOM     12  N   UNL     1       5.856   4.007  13.838  0.00  0.00    +0.000 N 
ATOM     13  C   UNL     1       6.322   4.850  14.814  0.00  0.00    +0.000 C 
ATOM     14  O   UNL     1       7.439   5.368  14.787  0.00  0.00    +0.000 OA
ATOM     15  H   UNL     1       4.914   3.645  13.957  0.00  0.00    +0.000 HD
BRANCH  12  16
ATOM     16  C   UNL     1       6.634   3.649  12.662  0.00  0.00    +0.000 C 
BRANCH  16  18
ATOM     17  C   UNL     1       4.343   3.243  11.619  0.00  0.00    +0.000 C 
ATOM     18  C   UNL     1       5.830   2.895  11.570  0.00  0.00    +0.000 C 
BRANCH  18  19
ATOM     19  N   UNL     1       5.971   1.436  11.651  0.00  0.00    +0.000 NA
ATOM     20  H   UNL     1       6.352   1.090  10.771  0.00  0.00    +0.000 HD
ATOM     21  H   UNL     1       5.040   1.016  11.695  0.00  0.00    +0.000 HD
ENDBRANCH  18  19
ENDBRANCH  16  18
ENDBRANCH  12  16
ENDBRANCH   1  13
BRANCH   3  22
ATOM     22  N   UNL     1       3.573   7.002  18.343  0.00  0.00    +0.000 N 
ATOM     23  C   UNL     1       2.244   7.517  18.190  0.00  0.00    +0.000 C 
ATOM     24  O   UNL     1       1.558   7.139  17.256  0.00  0.00    +0.000 OA
ATOM     25  H   UNL     1       4.090   7.180  19.199  0.00  0.00    +0.000 HD
BRANCH  23  26
ATOM     26  C   UNL     1       1.712   8.385  19.275  0.00  0.00    +0.000 A 
ATOM     27  C   UNL     1       1.474   9.743  18.964  0.00  0.00    +0.000 A 
ATOM     28  C   UNL     1       1.007  10.659  19.932  0.00  0.00    +0.000 A 
ATOM     29  C   UNL     1       0.757  10.159  21.219  0.00  0.00    +0.000 A 
ATOM     30  C   UNL     1       0.982   8.819  21.537  0.00  0.00    +0.000 A 
ATOM     31  C   UNL     1       1.458   7.930  20.571  0.00  0.00    +0.000 A 
ATOM     32 CL   UNL     1       1.724   6.304  21.084  0.00  0.00    +0.000 Cl
BRANCH  28  33
ATOM     33  C   UNL     1       0.788  12.086  19.602  0.00  0.00    +0.000 A 
ATOM     34  N   UNL     1      -0.239  12.336  18.741  0.00  0.00    +0.000 NA
ATOM     35  C   UNL     1      -0.492  13.631  18.428  0.00  0.00    +0.000 A 
ATOM     36  C   UNL     1       0.228  14.706  18.927  0.00  0.00    +0.000 A 
ATOM     37  C   UNL     1       1.277  14.442  19.796  0.00  0.00    +0.000 A 
ATOM     38  C   UNL     1       1.563  13.126  20.129  0.00  0.00    +0.000 A 
ATOM     39  F   UNL     1       2.591  12.886  20.953  0.00  0.00    +0.000 F 
ENDBRANCH  28  33
ENDBRANCH  23  26
ENDBRANCH   3  22
TORSDOF 8
ENDMDL
MODEL 3
REMARK VINA RESULT:      -9.0      0.900      1.322
REMARK  Name = 
REMARK  9 active torsions:
REMARK  status: ('A' for Active; 'I' for Inactive)
REMARK    1  A    between atoms: C_1  and  C_2
REMARK    2  A    between atoms: C_2  and  N_3
REMARK    3  A    between atoms: C_2  and  C_4
REMARK    4  A    between atoms: C_4  and  N_5
REMARK    5  A    between atoms: C_6  and  C_8
REMARK    6  A    between atoms: C_10  and  N_11
REMARK    7  A    between atoms: C_12  and  C_14
REMARK    8  A    between atoms: C_16  and  C_17
REMARK    9  A    between atoms: N_28  and  C_29
REMARK                            x       y       z     vdW  Elec       q    Type
REMARK                         _______ _______ _______ _____ _____    ______ ____
ROOT
ATOM      1  C   UNL     1       5.385   5.146  15.928  0.00  0.00    +0.000 A 
ATOM      2  C   UNL     1       4.969   6.425  16.394  0.00  0.00    +0.000 A 
ATOM      3  C   UNL     1       4.099   6.168  17.423  0.00  0.00    +0.000 A 
ATOM      4  N   UNL     1       3.996   4.790  17.516  0.00  0.00    +0.000 N 
ATOM      5  N   UNL     1       4.837   4.155  16.659  0.00  0.00    +0.000 NA
ENDROOT
BRANCH   4   6
ATOM      6  C   UNL     1       3.142   4.061  18.384  0.00  0.00    +0.000 A 
ATOM      7  C   UNL     1       3.590   3.652  19.650  0.00  0.00    +0.000 A 
ATOM      8  C   UNL     1       2.769   2.866  20.457  0.00  0.00    +0.000 A 
ATOM      9  C   UNL     1       1.507   2.487  20.004  0.00  0.00    +0.000 A 
ATOM     10  C   UNL     1       1.044   2.928  18.763  0.00  0.00    +0.000 A 
ATOM     11  C   UNL     1       1.851   3.737  17.960  0.00  0.00    +0.000 A 
ENDBRANCH   4   6
BRANCH   1  13
ATOM     12  N   UNL     1       5.861   4.038  13.856  0.00  0.00    +0.000 N 
ATOM     13  C   UNL     1       6.326   4.885  14.828  0.00  0.00    +0.000 C 
ATOM     14  O   UNL     1       7.449   5.390  14.809  0.00  0.00    +0.000 OA
ATOM     15  H   UNL     1       4.914   3.687  13.967  0.00  0.00    +0.000 HD
BRANCH  12  16
ATOM     16  C   UNL     1       6.648   3.658  12.692  0.00  0.00    +0.000 C 
BRANCH  16  18
ATOM     17  C   UNL     1       4.359   3.289  11.633  0.00  0.00    +0.000 C 
ATOM     18  C   UNL     1       5.843   2.926  11.587  0.00  0.00    +0.000 C 
BRANCH  18  19
ATOM     19  N   UNL     1       5.967   1.464  11.651  0.00  0.00    +0.000 NA
ATOM     20  H   UNL     1       5.320   1.047  10.982  0.00  0.00    +0.000 HD
ATOM     21  H   UNL     1       5.622   1.142  12.557  0.00  0.00    +0.000 HD
ENDBRANCH  18  19
ENDBRANCH  16  18
ENDBRANCH  12  16
ENDBRANCH   1  13
BRANCH   3  22
ATOM     22  N   UNL     1       3.559   7.107  18.300  0.00  0.00    +0.000 N 
ATOM     23  C   UNL     1       2.220   7.597  18.154  0.00  0.00    +0.000 C 
ATOM     24  O   UNL     1       1.525   7.182  17.242  0.00  0.00    +0.000 OA
ATOM     25  H   UNL     1       4.087   7.317  19.142  0.00  0.00    +0.000 HD
BRANCH  23  26
ATOM     26  C   UNL     1       1.690   8.486  19.222  0.00  0.00    +0.000 A 
ATOM     27  C   UNL     1       1.455   9.838  18.887  0.00  0.00    +0.000 A 
ATOM     28  C   UNL     1       0.991  10.774  19.837  0.00  0.00    +0.000 A 
ATOM     29  C   UNL     1       0.742  10.299  21.133  0.00  0.00    +0.000 A 
ATOM     30  C   UNL     1       0.964   8.965  21.477  0.00  0.00    +0.000 A 
ATOM     31  C   UNL     1       1.437   8.056  20.527  0.00  0.00    +0.000 A 
ATOM     32 CL   UNL     1       1.700   6.440  21.070  0.00  0.00    +0.000 Cl
BRANCH  28  33
ATOM     33  C   UNL     1       0.775  12.195  19.480  0.00  0.00    +0.000 A 
ATOM     34  N   UNL     1      -0.442  12.704  19.821  0.00  0.00    +0.000 NA
ATOM     35  C   UNL     1      -0.677  14.009  19.535  0.00  0.00    +0.000 A 
ATOM     36  C   UNL     1       0.241  14.847  18.919  0.00  0.00    +0.000 A 
ATOM     37  C   UNL     1       1.474  14.318  18.566  0.00  0.00    +0.000 A 
ATOM     38  C   UNL     1       1.739  12.984  18.842  0.00  0.00    +0.000 A 
ATOM     39  F   UNL     1       2.927  12.482  18.478  0.00  0.00    +0.000 F 
ENDBRANCH  28  33
ENDBRANCH  23  26
ENDBRANCH   3  22
TORSDOF 8
ENDMDL
MODEL 4
REMARK VINA RESULT:      -7.9      2.489      3.156
REMARK  Name = 
REMARK  9 active torsions:
REMARK  status: ('A' for Active; 'I' for Inactive)
REMARK    1  A    between atoms: C_1  and  C_2
REMARK    2  A    between atoms: C_2  and  N_3
REMARK    3  A    between atoms: C_2  and  C_4
REMARK    4  A    between atoms: C_4  and  N_5
REMARK    5  A    between atoms: C_6  and  C_8
REMARK    6  A    between atoms: C_10  and  N_11
REMARK    7  A    between atoms: C_12  and  C_14
REMARK    8  A    between atoms: C_16  and  C_17
REMARK    9  A    between atoms: N_28  and  C_29
REMARK                            x       y       z     vdW  Elec       q    Type
REMARK                         _______ _______ _______ _____ _____    ______ ____
ROOT
ATOM      1  C   UNL     1       4.804   6.054  17.269  0.00  0.00    +0.000 A 
ATOM      2  C   UNL     1       3.995   7.204  17.485  0.00  0.00    +0.000 A 
ATOM      3  C   UNL     1       3.045   6.812  18.392  0.00  0.00    +0.000 A 
ATOM      4  N   UNL     1       3.284   5.473  18.658  0.00  0.00    +0.000 N 
ATOM      5  N   UNL     1       4.404   5.021  18.036  0.00  0.00    +0.000 NA
ENDROOT
BRANCH   4   6
ATOM      6  C   UNL     1       2.501   4.618  19.476  0.00  0.00    +0.000 A 
ATOM      7  C   UNL     1       2.781   4.485  20.845  0.00  0.00    +0.000 A 
ATOM      8  C   UNL     1       2.056   3.580  21.618  0.00  0.00    +0.000 A 
ATOM      9  C   UNL     1       1.057   2.808  21.029  0.00  0.00    +0.000 A 
ATOM     10  C   UNL     1       0.749   2.970  19.677  0.00  0.00    +0.000 A 
ATOM     11  C   UNL     1       1.454   3.894  18.902  0.00  0.00    +0.000 A 
ENDBRANCH   4   6
BRANCH   1  13
ATOM     12  N   UNL     1       5.772   5.219  15.240  0.00  0.00    +0.000 N 
ATOM     13  C   UNL     1       5.969   5.964  16.374  0.00  0.00    +0.000 C 
ATOM     14  O   UNL     1       7.035   6.516  16.648  0.00  0.00    +0.000 OA
ATOM     15  H   UNL     1       4.849   4.818  15.109  0.00  0.00    +0.000 HD
BRANCH  12  16
ATOM     16  C   UNL     1       6.807   5.013  14.238  0.00  0.00    +0.000 C 
BRANCH  16  18
ATOM     17  C   UNL     1       7.122   4.185  11.848  0.00  0.00    +0.000 C 
ATOM     18  C   UNL     1       6.486   3.900  13.207  0.00  0.00    +0.000 C 
BRANCH  18  19
ATOM     19  N   UNL     1       5.046   3.689  13.012  0.00  0.00    +0.000 NA
ATOM     20  H   UNL     1       4.902   2.799  12.534  0.00  0.00    +0.000 HD
ATOM     21  H   UNL     1       4.696   4.382  12.348  0.00  0.00    +0.000 HD
ENDBRANCH  18  19
ENDBRANCH  16  18
ENDBRANCH  12  16
ENDBRANCH   1  13
BRANCH   3  22
ATOM     22  N   UNL     1       2.129   7.640  19.038  0.00  0.00    +0.000 N 
ATOM     23  C   UNL     1       1.708   8.888  18.473  0.00  0.00    +0.000 C 
ATOM     24  O   UNL     1       2.155   9.240  17.395  0.00  0.00    +0.000 OA
ATOM     25  H   UNL     1       1.645   7.260  19.846  0.00  0.00    +0.000 HD
BRANCH  23  26
ATOM     26  C   UNL     1       0.622   9.629  19.169  0.00  0.00    +0.000 A 
ATOM     27  C   UNL     1      -0.523   9.967  18.414  0.00  0.00    +0.000 A 
ATOM     28  C   UNL     1      -1.593  10.703  18.968  0.00  0.00    +0.000 A 
ATOM     29  C   UNL     1      -1.488  11.065  20.320  0.00  0.00    +0.000 A 
ATOM     30  C   UNL     1      -0.365  10.733  21.079  0.00  0.00    +0.000 A 
ATOM     31  C   UNL     1       0.690  10.016  20.510  0.00  0.00    +0.000 A 
ATOM     32 CL   UNL     1       2.038   9.684  21.535  0.00  0.00    +0.000 Cl
BRANCH  28  33
ATOM     33  C   UNL     1      -2.776  11.075  18.159  0.00  0.00    +0.000 A 
ATOM     34  N   UNL     1      -3.738  11.780  18.819  0.00  0.00    +0.000 NA
ATOM     35  C   UNL     1      -4.830  12.163  18.111  0.00  0.00    +0.000 A 
ATOM     36  C   UNL     1      -5.023  11.880  16.767  0.00  0.00    +0.000 A 
ATOM     37  C   UNL     1      -4.044  11.154  16.105  0.00  0.00    +0.000 A 
ATOM     38  C   UNL     1      -2.918  10.744  16.806  0.00  0.00    +0.000 A 
ATOM     39  F   UNL     1      -1.990  10.027  16.158  0.00  0.00    +0.000 F 
ENDBRANCH  28  33
ENDBRANCH  23  26
ENDBRANCH   3  22
TORSDOF 8
ENDMDL
MODEL 5
REMARK VINA RESULT:      -7.9      1.294      1.648
REMARK  Name = 
REMARK  9 active torsions:
REMARK  status: ('A' for Active; 'I' for Inactive)
REMARK    1  A    between atoms: C_1  and  C_2
REMARK    2  A    between atoms: C_2  and  N_3
REMARK    3  A    between atoms: C_2  and  C_4
REMARK    4  A    between atoms: C_4  and  N_5
REMARK    5  A    between atoms: C_6  and  C_8
REMARK    6  A    between atoms: C_10  and  N_11
REMARK    7  A    between atoms: C_12  and  C_14
REMARK    8  A    between atoms: C_16  and  C_17
REMARK    9  A    between atoms: N_28  and  C_29
REMARK                            x       y       z     vdW  Elec       q    Type
REMARK                         _______ _______ _______ _____ _____    ______ ____
ROOT
ATOM      1  C   UNL     1       5.086   5.550  16.668  0.00  0.00    +0.000 A 
ATOM      2  C   UNL     1       4.595   6.796  17.150  0.00  0.00    +0.000 A 
ATOM      3  C   UNL     1       3.634   6.471  18.074  0.00  0.00    +0.000 A 
ATOM      4  N   UNL     1       3.557   5.088  18.090  0.00  0.00    +0.000 N 
ATOM      5  N   UNL     1       4.494   4.513  17.292  0.00  0.00    +0.000 NA
ENDROOT
BRANCH   4   6
ATOM      6  C   UNL     1       2.640   4.300  18.834  0.00  0.00    +0.000 A 
ATOM      7  C   UNL     1       2.801   4.131  20.218  0.00  0.00    +0.000 A 
ATOM      8  C   UNL     1       1.941   3.288  20.920  0.00  0.00    +0.000 A 
ATOM      9  C   UNL     1       0.926   2.613  20.244  0.00  0.00    +0.000 A 
ATOM     10  C   UNL     1       0.739   2.812  18.875  0.00  0.00    +0.000 A 
ATOM     11  C   UNL     1       1.580   3.676  18.171  0.00  0.00    +0.000 A 
ENDBRANCH   4   6
BRANCH   1  13
ATOM     12  N   UNL     1       5.889   4.376  14.738  0.00  0.00    +0.000 N 
ATOM     13  C   UNL     1       6.137   5.363  15.655  0.00  0.00    +0.000 C 
ATOM     14  O   UNL     1       7.162   6.045  15.659  0.00  0.00    +0.000 OA
ATOM     15  H   UNL     1       5.005   3.882  14.822  0.00  0.00    +0.000 HD
BRANCH  12  16
ATOM     16  C   UNL     1       6.812   4.041  13.664  0.00  0.00    +0.000 C 
BRANCH  16  18
ATOM     17  C   UNL     1       4.603   3.617  12.465  0.00  0.00    +0.000 C 
ATOM     18  C   UNL     1       6.126   3.581  12.351  0.00  0.00    +0.000 C 
BRANCH  18  19
ATOM     19  N   UNL     1       6.529   2.235  11.926  0.00  0.00    +0.000 NA
ATOM     20  H   UNL     1       6.535   1.618  12.738  0.00  0.00    +0.000 HD
ATOM     21  H   UNL     1       7.508   2.260  11.632  0.00  0.00    +0.000 HD
ENDBRANCH  18  19
ENDBRANCH  16  18
ENDBRANCH  12  16
ENDBRANCH   1  13
BRANCH   3  22
ATOM     22  N   UNL     1       2.988   7.354  18.936  0.00  0.00    +0.000 N 
ATOM     23  C   UNL     1       2.102   8.372  18.453  0.00  0.00    +0.000 C 
ATOM     24  O   UNL     1       1.898   8.471  17.255  0.00  0.00    +0.000 OA
ATOM     25  H   UNL     1       3.038   7.155  19.931  0.00  0.00    +0.000 HD
BRANCH  23  26
ATOM     26  C   UNL     1       1.352   9.168  19.461  0.00  0.00    +0.000 A 
ATOM     27  C   UNL     1       1.147  10.539  19.186  0.00  0.00    +0.000 A 
ATOM     28  C   UNL     1       0.483  11.392  20.095  0.00  0.00    +0.000 A 
ATOM     29  C   UNL     1       0.003  10.815  21.280  0.00  0.00    +0.000 A 
ATOM     30  C   UNL     1       0.193   9.461  21.562  0.00  0.00    +0.000 A 
ATOM     31  C   UNL     1       0.865   8.635  20.658  0.00  0.00    +0.000 A 
ATOM     32 CL   UNL     1       1.065   6.985  21.122  0.00  0.00    +0.000 Cl
BRANCH  28  33
ATOM     33  C   UNL     1       0.298  12.833  19.808  0.00  0.00    +0.000 A 
ATOM     34  N   UNL     1       0.028  13.140  18.508  0.00  0.00    +0.000 NA
ATOM     35  C   UNL     1      -0.172  14.446  18.201  0.00  0.00    +0.000 A 
ATOM     36  C   UNL     1      -0.116  15.478  19.126  0.00  0.00    +0.000 A 
ATOM     37  C   UNL     1       0.169  15.158  20.446  0.00  0.00    +0.000 A 
ATOM     38  C   UNL     1       0.384  13.830  20.787  0.00  0.00    +0.000 A 
ATOM     39  F   UNL     1       0.677  13.539  22.061  0.00  0.00    +0.000 F 
ENDBRANCH  28  33
ENDBRANCH  23  26
ENDBRANCH   3  22
TORSDOF 8
ENDMDL
MODEL 6
REMARK VINA RESULT:      -7.8      2.508      4.338
REMARK  Name = 
REMARK  9 active torsions:
REMARK  status: ('A' for Active; 'I' for Inactive)
REMARK    1  A    between atoms: C_1  and  C_2
REMARK    2  A    between atoms: C_2  and  N_3
REMARK    3  A    between atoms: C_2  and  C_4
REMARK    4  A    between atoms: C_4  and  N_5
REMARK    5  A    between atoms: C_6  and  C_8
REMARK    6  A    between atoms: C_10  and  N_11
REMARK    7  A    between atoms: C_12  and  C_14
REMARK    8  A    between atoms: C_16  and  C_17
REMARK    9  A    between atoms: N_28  and  C_29
REMARK                            x       y       z     vdW  Elec       q    Type
REMARK                         _______ _______ _______ _____ _____    ______ ____
ROOT
ATOM      1  C   UNL     1       6.689   4.716  14.099  0.00  0.00    +0.000 A 
ATOM      2  C   UNL     1       5.433   4.488  14.729  0.00  0.00    +0.000 A 
ATOM      3  C   UNL     1       5.499   5.162  15.921  0.00  0.00    +0.000 A 
ATOM      4  N   UNL     1       6.764   5.725  15.984  0.00  0.00    +0.000 N 
ATOM      5  N   UNL     1       7.471   5.524  14.842  0.00  0.00    +0.000 NA
ENDROOT
BRANCH   4   6
ATOM      6  C   UNL     1       7.317   6.446  17.075  0.00  0.00    +0.000 A 
ATOM      7  C   UNL     1       7.517   7.832  16.988  0.00  0.00    +0.000 A 
ATOM      8  C   UNL     1       8.137   8.512  18.036  0.00  0.00    +0.000 A 
ATOM      9  C   UNL     1       8.558   7.812  19.164  0.00  0.00    +0.000 A 
ATOM     10  C   UNL     1       8.322   6.440  19.270  0.00  0.00    +0.000 A 
ATOM     11  C   UNL     1       7.678   5.757  18.236  0.00  0.00    +0.000 A 
ENDBRANCH   4   6
BRANCH   1  13
ATOM     12  N   UNL     1       6.760   2.901  12.535  0.00  0.00    +0.000 N 
ATOM     13  C   UNL     1       7.111   4.201  12.787  0.00  0.00    +0.000 C 
ATOM     14  O   UNL     1       7.743   4.901  11.995  0.00  0.00    +0.000 OA
ATOM     15  H   UNL     1       6.229   2.421  13.255  0.00  0.00    +0.000 HD
BRANCH  12  16
ATOM     16  C   UNL     1       7.092   2.216  11.294  0.00  0.00    +0.000 C 
BRANCH  16  18
ATOM     17  C   UNL     1       4.610   1.714  11.000  0.00  0.00    +0.000 C 
ATOM     18  C   UNL     1       6.033   1.182  10.831  0.00  0.00    +0.000 C 
BRANCH  18  19
ATOM     19  N   UNL     1       6.134  -0.105  11.531  0.00  0.00    +0.000 NA
ATOM     20  H   UNL     1       6.986  -0.579  11.231  0.00  0.00    +0.000 HD
ATOM     21  H   UNL     1       5.385  -0.719  11.205  0.00  0.00    +0.000 HD
ENDBRANCH  18  19
ENDBRANCH  16  18
ENDBRANCH  12  16
ENDBRANCH   1  13
BRANCH   3  22
ATOM     22  N   UNL     1       4.447   5.371  16.810  0.00  0.00    +0.000 N 
ATOM     23  C   UNL     1       4.291   4.582  17.997  0.00  0.00    +0.000 C 
ATOM     24  O   UNL     1       5.101   3.704  18.245  0.00  0.00    +0.000 OA
ATOM     25  H   UNL     1       3.882   6.204  16.677  0.00  0.00    +0.000 HD
BRANCH  23  26
ATOM     26  C   UNL     1       3.221   4.977  18.952  0.00  0.00    +0.000 A 
ATOM     27  C   UNL     1       2.867   6.344  19.005  0.00  0.00    +0.000 A 
ATOM     28  C   UNL     1       1.892   6.829  19.904  0.00  0.00    +0.000 A 
ATOM     29  C   UNL     1       1.261   5.888  20.731  0.00  0.00    +0.000 A 
ATOM     30  C   UNL     1       1.596   4.534  20.685  0.00  0.00    +0.000 A 
ATOM     31  C   UNL     1       2.573   4.074  19.800  0.00  0.00    +0.000 A 
ATOM     32 CL   UNL     1       2.925   2.386  19.848  0.00  0.00    +0.000 Cl
BRANCH  28  33
ATOM     33  C   UNL     1       1.550   8.268  19.969  0.00  0.00    +0.000 A 
ATOM     34  N   UNL     1       1.568   8.927  18.776  0.00  0.00    +0.000 NA
ATOM     35  C   UNL     1       1.237  10.243  18.783  0.00  0.00    +0.000 A 
ATOM     36  C   UNL     1       0.887  10.950  19.924  0.00  0.00    +0.000 A 
ATOM     37  C   UNL     1       0.881  10.273  21.135  0.00  0.00    +0.000 A 
ATOM     38  C   UNL     1       1.220   8.927  21.159  0.00  0.00    +0.000 A 
ATOM     39  F   UNL     1       1.228   8.293  22.339  0.00  0.00    +0.000 F 
ENDBRANCH  28  33
ENDBRANCH  23  26
ENDBRANCH   3  22
TORSDOF 8
ENDMDL
MODEL 7
REMARK VINA RESULT:      -7.7      1.623      2.145
REMARK  Name = 
REMARK  9 active torsions:
REMARK  status: ('A' for Active; 'I' for Inactive)
REMARK    1  A    between atoms: C_1  and  C_2
REMARK    2  A    between atoms: C_2  and  N_3
REMARK    3  A    between atoms: C_2  and  C_4
REMARK    4  A    between atoms: C_4  and  N_5
REMARK    5  A    between atoms: C_6  and  C_8
REMARK    6  A    between atoms: C_10  and  N_11
REMARK    7  A    between atoms: C_12  and  C_14
REMARK    8  A    between atoms: C_16  and  C_17
REMARK    9  A    between atoms: N_28  and  C_29
REMARK                            x       y       z     vdW  Elec       q    Type
REMARK                         _______ _______ _______ _____ _____    ______ ____
ROOT
ATOM      1  C   UNL     1       4.342   6.150  16.869  0.00  0.00    +0.000 A 
ATOM      2  C   UNL     1       3.791   7.345  17.411  0.00  0.00    +0.000 A 
ATOM      3  C   UNL     1       3.024   6.941  18.473  0.00  0.00    +0.000 A 
ATOM      4  N   UNL     1       3.107   5.558  18.513  0.00  0.00    +0.000 N 
ATOM      5  N   UNL     1       3.972   5.070  17.586  0.00  0.00    +0.000 NA
ENDROOT
BRANCH   4   6
ATOM      6  C   UNL     1       2.408   4.693  19.395  0.00  0.00    +0.000 A 
ATOM      7  C   UNL     1       2.770   4.608  20.749  0.00  0.00    +0.000 A 
ATOM      8  C   UNL     1       2.128   3.694  21.583  0.00  0.00    +0.000 A 
ATOM      9  C   UNL     1       1.133   2.865  21.070  0.00  0.00    +0.000 A 
ATOM     10  C   UNL     1       0.744   2.977  19.734  0.00  0.00    +0.000 A 
ATOM     11  C   UNL     1       1.364   3.909  18.899  0.00  0.00    +0.000 A 
ENDBRANCH   4   6
BRANCH   1  13
ATOM     12  N   UNL     1       6.066   4.957  15.705  0.00  0.00    +0.000 N 
ATOM     13  C   UNL     1       5.243   6.053  15.710  0.00  0.00    +0.000 C 
ATOM     14  O   UNL     1       5.250   6.912  14.828  0.00  0.00    +0.000 OA
ATOM     15  H   UNL     1       5.968   4.306  16.478  0.00  0.00    +0.000 HD
BRANCH  12  16
ATOM     16  C   UNL     1       7.027   4.692  14.645  0.00  0.00    +0.000 C 
BRANCH  16  18
ATOM     17  C   UNL     1       7.159   4.157  12.156  0.00  0.00    +0.000 C 
ATOM     18  C   UNL     1       6.473   3.829  13.481  0.00  0.00    +0.000 C 
BRANCH  18  19
ATOM     19  N   UNL     1       5.022   3.963  13.300  0.00  0.00    +0.000 NA
ATOM     20  H   UNL     1       4.635   3.057  13.036  0.00  0.00    +0.000 HD
ATOM     21  H   UNL     1       4.843   4.552  12.484  0.00  0.00    +0.000 HD
ENDBRANCH  18  19
ENDBRANCH  16  18
ENDBRANCH  12  16
ENDBRANCH   1  13
BRANCH   3  22
ATOM     22  N   UNL     1       2.420   7.768  19.416  0.00  0.00    +0.000 N 
ATOM     23  C   UNL     1       1.540   8.834  19.035  0.00  0.00    +0.000 C 
ATOM     24  O   UNL     1       1.304   9.024  17.854  0.00  0.00    +0.000 OA
ATOM     25  H   UNL     1       2.494   7.496  20.392  0.00  0.00    +0.000 HD
BRANCH  23  26
ATOM     26  C   UNL     1       0.834   9.567  20.120  0.00  0.00    +0.000 A 
ATOM     27  C   UNL     1       0.824  10.978  20.053  0.00  0.00    +0.000 A 
ATOM     28  C   UNL     1       0.217  11.770  21.052  0.00  0.00    +0.000 A 
ATOM     29  C   UNL     1      -0.408  11.094  22.111  0.00  0.00    +0.000 A 
ATOM     30  C   UNL     1      -0.411   9.701  22.187  0.00  0.00    +0.000 A 
ATOM     31  C   UNL     1       0.207   8.934  21.197  0.00  0.00    +0.000 A 
ATOM     32 CL   UNL     1       0.165   7.222  21.408  0.00  0.00    +0.000 Cl
BRANCH  28  33
ATOM     33  C   UNL     1       0.237  13.249  20.984  0.00  0.00    +0.000 A 
ATOM     34  N   UNL     1       1.278  13.849  21.625  0.00  0.00    +0.000 NA
ATOM     35  C   UNL     1       1.351  15.203  21.570  0.00  0.00    +0.000 A 
ATOM     36  C   UNL     1       0.433  16.004  20.906  0.00  0.00    +0.000 A 
ATOM     37  C   UNL     1      -0.630  15.385  20.264  0.00  0.00    +0.000 A 
ATOM     38  C   UNL     1      -0.732  14.001  20.309  0.00  0.00    +0.000 A 
ATOM     39  F   UNL     1      -1.775  13.419  19.700  0.00  0.00    +0.000 F 
ENDBRANCH  28  33
ENDBRANCH  23  26
ENDBRANCH   3  22
TORSDOF 8
ENDMDL
MODEL 8
REMARK VINA RESULT:      -7.7      2.542      3.123
REMARK  Name = 
REMARK  9 active torsions:
REMARK  status: ('A' for Active; 'I' for Inactive)
REMARK    1  A    between atoms: C_1  and  C_2
REMARK    2  A    between atoms: C_2  and  N_3
REMARK    3  A    between atoms: C_2  and  C_4
REMARK    4  A    between atoms: C_4  and  N_5
REMARK    5  A    between atoms: C_6  and  C_8
REMARK    6  A    between atoms: C_10  and  N_11
REMARK    7  A    between atoms: C_12  and  C_14
REMARK    8  A    between atoms: C_16  and  C_17
REMARK    9  A    between atoms: N_28  and  C_29
REMARK                            x       y       z     vdW  Elec       q    Type
REMARK                         _______ _______ _______ _____ _____    ______ ____
ROOT
ATOM      1  C   UNL     1       5.025   5.835  17.303  0.00  0.00    +0.000 A 
ATOM      2  C   UNL     1       4.157   6.955  17.437  0.00  0.00    +0.000 A 
ATOM      3  C   UNL     1       3.176   6.549  18.305  0.00  0.00    +0.000 A 
ATOM      4  N   UNL     1       3.458   5.230  18.627  0.00  0.00    +0.000 N 
ATOM      5  N   UNL     1       4.628   4.810  18.081  0.00  0.00    +0.000 NA
ENDROOT
BRANCH   4   6
ATOM      6  C   UNL     1       2.668   4.368  19.431  0.00  0.00    +0.000 A 
ATOM      7  C   UNL     1       1.407   3.936  18.991  0.00  0.00    +0.000 A 
ATOM      8  C   UNL     1       0.609   3.156  19.827  0.00  0.00    +0.000 A 
ATOM      9  C   UNL     1       1.064   2.812  21.098  0.00  0.00    +0.000 A 
ATOM     10  C   UNL     1       2.335   3.205  21.520  0.00  0.00    +0.000 A 
ATOM     11  C   UNL     1       3.151   3.964  20.678  0.00  0.00    +0.000 A 
ENDBRANCH   4   6
BRANCH   1  13
ATOM     12  N   UNL     1       6.253   4.764  15.544  0.00  0.00    +0.000 N 
ATOM     13  C   UNL     1       6.239   5.770  16.474  0.00  0.00    +0.000 C 
ATOM     14  O   UNL     1       7.168   6.563  16.631  0.00  0.00    +0.000 OA
ATOM     15  H   UNL     1       5.427   4.174  15.494  0.00  0.00    +0.000 HD
BRANCH  12  16
ATOM     16  C   UNL     1       7.368   4.538  14.636  0.00  0.00    +0.000 C 
BRANCH  16  18
ATOM     17  C   UNL     1       6.799   3.745  12.281  0.00  0.00    +0.000 C 
ATOM     18  C   UNL     1       7.091   4.955  13.168  0.00  0.00    +0.000 C 
BRANCH  18  19
ATOM     19  N   UNL     1       8.189   5.720  12.565  0.00  0.00    +0.000 NA
ATOM     20  H   UNL     1       8.886   5.922  13.282  0.00  0.00    +0.000 HD
ATOM     21  H   UNL     1       7.841   6.643  12.297  0.00  0.00    +0.000 HD
ENDBRANCH  18  19
ENDBRANCH  16  18
ENDBRANCH  12  16
ENDBRANCH   1  13
BRANCH   3  22
ATOM     22  N   UNL     1       2.192   7.355  18.873  0.00  0.00    +0.000 N 
ATOM     23  C   UNL     1       1.929   8.679  18.394  0.00  0.00    +0.000 C 
ATOM     24  O   UNL     1       2.576   9.119  17.458  0.00  0.00    +0.000 OA
ATOM     25  H   UNL     1       1.556   6.919  19.535  0.00  0.00    +0.000 HD
BRANCH  23  26
ATOM     26  C   UNL     1       0.764   9.403  18.972  0.00  0.00    +0.000 A 
ATOM     27  C   UNL     1      -0.290   9.744  18.095  0.00  0.00    +0.000 A 
ATOM     28  C   UNL     1      -1.422  10.466  18.534  0.00  0.00    +0.000 A 
ATOM     29  C   UNL     1      -1.473  10.810  19.893  0.00  0.00    +0.000 A 
ATOM     30  C   UNL     1      -0.442  10.474  20.771  0.00  0.00    +0.000 A 
ATOM     31  C   UNL     1       0.677   9.772  20.316  0.00  0.00    +0.000 A 
ATOM     32 CL   UNL     1       1.903   9.435  21.483  0.00  0.00    +0.000 Cl
BRANCH  28  33
ATOM     33  C   UNL     1      -2.508  10.842  17.600  0.00  0.00    +0.000 A 
ATOM     34  N   UNL     1      -2.294  10.518  16.294  0.00  0.00    +0.000 NA
ATOM     35  C   UNL     1      -3.273  10.821  15.406  0.00  0.00    +0.000 A 
ATOM     36  C   UNL     1      -4.468  11.439  15.746  0.00  0.00    +0.000 A 
ATOM     37  C   UNL     1      -4.673  11.774  17.077  0.00  0.00    +0.000 A 
ATOM     38  C   UNL     1      -3.686  11.480  18.007  0.00  0.00    +0.000 A 
ATOM     39  F   UNL     1      -3.891  11.827  19.285  0.00  0.00    +0.000 F 
ENDBRANCH  28  33
ENDBRANCH  23  26
ENDBRANCH   3  22
TORSDOF 8
ENDMDL
MODEL 9
REMARK VINA RESULT:      -7.6      3.265      9.925
REMARK  Name = 
REMARK  9 active torsions:
REMARK  status: ('A' for Active; 'I' for Inactive)
REMARK    1  A    between atoms: C_1  and  C_2
REMARK    2  A    between atoms: C_2  and  N_3
REMARK    3  A    between atoms: C_2  and  C_4
REMARK    4  A    between atoms: C_4  and  N_5
REMARK    5  A    between atoms: C_6  and  C_8
REMARK    6  A    between atoms: C_10  and  N_11
REMARK    7  A    between atoms: C_12  and  C_14
REMARK    8  A    between atoms: C_16  and  C_17
REMARK    9  A    between atoms: N_28  and  C_29
REMARK                            x       y       z     vdW  Elec       q    Type
REMARK                         _______ _______ _______ _____ _____    ______ ____
ROOT
ATOM      1  C   UNL     1       0.840  14.007  19.136  0.00  0.00    +0.000 A 
ATOM      2  C   UNL     1       1.505  12.872  19.679  0.00  0.00    +0.000 A 
ATOM      3  C   UNL     1       0.686  11.808  19.403  0.00  0.00    +0.000 A 
ATOM      4  N   UNL     1      -0.424  12.324  18.754  0.00  0.00    +0.000 N 
ATOM      5  N   UNL     1      -0.304  13.656  18.517  0.00  0.00    +0.000 NA
ENDROOT
BRANCH   4   6
ATOM      6  C   UNL     1      -1.580  11.606  18.350  0.00  0.00    +0.000 A 
ATOM      7  C   UNL     1      -1.479  10.545  17.436  0.00  0.00    +0.000 A 
ATOM      8  C   UNL     1      -2.632   9.904  16.987  0.00  0.00    +0.000 A 
ATOM      9  C   UNL     1      -3.881  10.320  17.444  0.00  0.00    +0.000 A 
ATOM     10  C   UNL     1      -3.980  11.346  18.384  0.00  0.00    +0.000 A 
ATOM     11  C   UNL     1      -2.827  11.976  18.859  0.00  0.00    +0.000 A 
ENDBRANCH   4   6
BRANCH   1  13
ATOM     12  N   UNL     1       0.371  16.346  18.895  0.00  0.00    +0.000 N 
ATOM     13  C   UNL     1       1.320  15.397  19.173  0.00  0.00    +0.000 C 
ATOM     14  O   UNL     1       2.495  15.665  19.425  0.00  0.00    +0.000 OA
ATOM     15  H   UNL     1      -0.570  16.013  18.711  0.00  0.00    +0.000 HD
BRANCH  12  16
ATOM     16  C   UNL     1       0.657  17.773  18.880  0.00  0.00    +0.000 C 
BRANCH  16  18
ATOM     17  C   UNL     1       0.006  18.209  16.454  0.00  0.00    +0.000 C 
ATOM     18  C   UNL     1       1.113  18.319  17.502  0.00  0.00    +0.000 C 
BRANCH  18  19
ATOM     19  N   UNL     1       2.314  17.653  16.983  0.00  0.00    +0.000 NA
ATOM     20  H   UNL     1       2.343  16.698  17.338  0.00  0.00    +0.000 HD
ATOM     21  H   UNL     1       3.140  18.092  17.394  0.00  0.00    +0.000 HD
ENDBRANCH  18  19
ENDBRANCH  16  18
ENDBRANCH  12  16
ENDBRANCH   1  13
BRANCH   3  22
ATOM     22  N   UNL     1       0.991  10.461  19.591  0.00  0.00    +0.000 N 
ATOM     23  C   UNL     1       1.709   9.703  18.609  0.00  0.00    +0.000 C 
ATOM     24  O   UNL     1       2.072  10.246  17.579  0.00  0.00    +0.000 OA
ATOM     25  H   UNL     1       0.829  10.070  20.515  0.00  0.00    +0.000 HD
BRANCH  23  26
ATOM     26  C   UNL     1       2.110   8.316  18.966  0.00  0.00    +0.000 A 
ATOM     27  C   UNL     1       3.010   7.655  18.100  0.00  0.00    +0.000 A 
ATOM     28  C   UNL     1       3.422   6.323  18.326  0.00  0.00    +0.000 A 
ATOM     29  C   UNL     1       2.921   5.685  19.471  0.00  0.00    +0.000 A 
ATOM     30  C   UNL     1       2.037   6.328  20.338  0.00  0.00    +0.000 A 
ATOM     31  C   UNL     1       1.629   7.640  20.091  0.00  0.00    +0.000 A 
ATOM     32 CL   UNL     1       0.513   8.326  21.214  0.00  0.00    +0.000 Cl
BRANCH  28  33
ATOM     33  C   UNL     1       4.344   5.632  17.397  0.00  0.00    +0.000 A 
ATOM     34  N   UNL     1       3.966   4.377  17.024  0.00  0.00    +0.000 NA
ATOM     35  C   UNL     1       4.769   3.713  16.155  0.00  0.00    +0.000 A 
ATOM     36  C   UNL     1       5.942   4.234  15.629  0.00  0.00    +0.000 A 
ATOM     37  C   UNL     1       6.324   5.509  16.020  0.00  0.00    +0.000 A 
ATOM     38  C   UNL     1       5.525   6.208  16.914  0.00  0.00    +0.000 A 
ATOM     39  F   UNL     1       5.917   7.431  17.297  0.00  0.00    +0.000 F 
ENDBRANCH  28  33
ENDBRANCH  23  26
ENDBRANCH   3  22
TORSDOF 8
ENDMDL
