MODEL 1
REMARK VINA RESULT:      -7.7      0.000      0.000
REMARK  Name = 
REMARK  10 active torsions:
REMARK  status: ('A' for Active; 'I' for Inactive)
REMARK    1  A    between atoms: C_1  and  O_2
REMARK    2  A    between atoms: O_2  and  C_3
REMARK    3  A    between atoms: C_7  and  C_8
REMARK    4  A    between atoms: C_8  and  O_10
REMARK    5  A    between atoms: O_10  and  C_11
REMARK    6  A    between atoms: C_16  and  C_17
REMARK    7  A    between atoms: C_18  and  C_19
REMARK    8  A    between atoms: C_19  and  C_20
REMARK    9  A    between atoms: C_19  and  C_21
REMARK   10  A    between atoms: C_24  and  C_25
REMARK                            x       y       z     vdW  Elec       q    Type
REMARK                         _______ _______ _______ _____ _____    ______ ____
ROOT
ATOM      1  C   UNL     1       5.007   5.268  17.212  0.00  0.00    +0.000 A 
ATOM      2  C   UNL     1       4.802   3.909  17.532  0.00  0.00    +0.000 A 
ATOM      3  C   UNL     1       3.579   3.498  18.090  0.00  0.00    +0.000 A 
ATOM      4  C   UNL     1       2.687   4.507  18.522  0.00  0.00    +0.000 A 
ATOM      5  C   UNL     1       2.824   5.818  18.057  0.00  0.00    +0.000 A 
ATOM      6  C   UNL     1       3.945   6.182  17.303  0.00  0.00    +0.000 A 
ATOM      7  C   UNL     1       3.934   7.507  16.600  0.00  0.00    +0.000 C 
ATOM      8  C   UNL     1       1.543   4.110  19.447  0.00  0.00    +0.000 C 
ATOM      9  C   UNL     1       0.792   3.008  18.669  0.00  0.00    +0.000 C 
ATOM     10  C   UNL     1       1.748   1.886  18.359  0.00  0.00    +0.000 C 
ATOM     11  C   UNL     1       3.078   2.088  18.192  0.00  0.00    +0.000 C 
ATOM     12  C   UNL     1       3.980   0.893  18.123  0.00  0.00    +0.000 C 
ENDROOT
BRANCH   8  13
ATOM     13  C   UNL     1       2.100   3.611  20.838  0.00  0.00    +0.000 C 
ATOM     14  C   UNL     1       2.538   4.767  21.745  0.00  0.00    +0.000 C 
ATOM     15  C   UNL     1       1.129   2.713  21.609  0.00  0.00    +0.000 C 
ENDBRANCH   8  13
BRANCH   1  16
ATOM     16  O   UNL     1       6.253   5.768  16.738  0.00  0.00    +0.000 OA
BRANCH  16  17
ATOM     17  C   UNL     1       7.187   4.853  16.245  0.00  0.00    +0.000 C 
ATOM     18  O   UNL     1       8.022   4.251  16.906  0.00  0.00    +0.000 OA
BRANCH  17  23
ATOM     19  C   UNL     1       6.139   3.683  12.740  0.00  0.00    +0.000 A 
ATOM     20  C   UNL     1       7.002   4.450  11.951  0.00  0.00    +0.000 A 
ATOM     21  C   UNL     1       7.901   5.333  12.546  0.00  0.00    +0.000 A 
ATOM     22  C   UNL     1       7.939   5.439  13.937  0.00  0.00    +0.000 A 
ATOM     23  C   UNL     1       7.090   4.667  14.754  0.00  0.00    +0.000 A 
ATOM     24  C   UNL     1       6.177   3.795  14.139  0.00  0.00    +0.000 A 
BRANCH  19  26
ATOM     25  C   UNL     1       5.903   1.718  11.417  0.00  0.00    +0.000 C 
ATOM     26  O   UNL     1       5.314   2.863  12.016  0.00  0.00    +0.000 OA
ENDBRANCH  19  26
ENDBRANCH  17  23
ENDBRANCH  16  17
ENDBRANCH   1  16
TORSDOF 5
ENDMDL
MODEL 2
REMARK VINA RESULT:      -7.3      6.256      8.691
REMARK  Name = 
REMARK  10 active torsions:
REMARK  status: ('A' for Active; 'I' for Inactive)
REMARK    1  A    between atoms: C_1  and  O_2
REMARK    2  A    between atoms: O_2  and  C_3
REMARK    3  A    between atoms: C_7  and  C_8
REMARK    4  A    between atoms: C_8  and  O_10
REMARK    5  A    between atoms: O_10  and  C_11
REMARK    6  A    between atoms: C_16  and  C_17
REMARK    7  A    between atoms: C_18  and  C_19
REMARK    8  A    between atoms: C_19  and  C_20
REMARK    9  A    between atoms: C_19  and  C_21
REMARK   10  A    between atoms: C_24  and  C_25
REMARK                            x       y       z     vdW  Elec       q    Type
REMARK                         _______ _______ _______ _____ _____    ______ ____
ROOT
ATOM      1  C   UNL     1      -0.217   9.953  18.904  0.00  0.00    +0.000 A 
ATOM      2  C   UNL     1      -0.000   9.826  20.292  0.00  0.00    +0.000 A 
ATOM      3  C   UNL     1      -0.646  10.699  21.184  0.00  0.00    +0.000 A 
ATOM      4  C   UNL     1      -1.312  11.820  20.635  0.00  0.00    +0.000 A 
ATOM      5  C   UNL     1      -1.655  11.843  19.279  0.00  0.00    +0.000 A 
ATOM      6  C   UNL     1      -1.192  10.841  18.421  0.00  0.00    +0.000 A 
ATOM      7  C   UNL     1      -1.789  10.744  17.048  0.00  0.00    +0.000 C 
ATOM      8  C   UNL     1      -1.697  12.960  21.569  0.00  0.00    +0.000 C 
ATOM      9  C   UNL     1      -2.563  12.283  22.653  0.00  0.00    +0.000 C 
ATOM     10  C   UNL     1      -1.762  11.193  23.314  0.00  0.00    +0.000 C 
ATOM     11  C   UNL     1      -0.783  10.514  22.667  0.00  0.00    +0.000 C 
ATOM     12  C   UNL     1       0.114   9.619  23.465  0.00  0.00    +0.000 C 
ENDROOT
BRANCH   8  13
ATOM     13  C   UNL     1      -0.408  13.657  22.158  0.00  0.00    +0.000 C 
ATOM     14  C   UNL     1       0.517  14.203  21.063  0.00  0.00    +0.000 C 
ATOM     15  C   UNL     1      -0.709  14.775  23.159  0.00  0.00    +0.000 C 
ENDBRANCH   8  13
BRANCH   1  16
ATOM     16  O   UNL     1       0.479   9.169  17.941  0.00  0.00    +0.000 OA
BRANCH  16  17
ATOM     17  C   UNL     1       1.870   9.280  17.880  0.00  0.00    +0.000 C 
ATOM     18  O   UNL     1       2.500  10.290  17.596  0.00  0.00    +0.000 OA
BRANCH  17  23
ATOM     19  C   UNL     1       2.940   5.969  19.508  0.00  0.00    +0.000 A 
ATOM     20  C   UNL     1       3.954   5.575  18.630  0.00  0.00    +0.000 A 
ATOM     21  C   UNL     1       4.279   6.365  17.530  0.00  0.00    +0.000 A 
ATOM     22  C   UNL     1       3.590   7.559  17.316  0.00  0.00    +0.000 A 
ATOM     23  C   UNL     1       2.573   7.985  18.193  0.00  0.00    +0.000 A 
ATOM     24  C   UNL     1       2.245   7.170  19.287  0.00  0.00    +0.000 A 
BRANCH  19  26
ATOM     25  C   UNL     1       2.060   3.881  20.237  0.00  0.00    +0.000 C 
ATOM     26  O   UNL     1       2.733   5.093  20.541  0.00  0.00    +0.000 OA
ENDBRANCH  19  26
ENDBRANCH  17  23
ENDBRANCH  16  17
ENDBRANCH   1  16
TORSDOF 5
ENDMDL
MODEL 3
REMARK VINA RESULT:      -7.2      1.546      2.216
REMARK  Name = 
REMARK  10 active torsions:
REMARK  status: ('A' for Active; 'I' for Inactive)
REMARK    1  A    between atoms: C_1  and  O_2
REMARK    2  A    between atoms: O_2  and  C_3
REMARK    3  A    between atoms: C_7  and  C_8
REMARK    4  A    between atoms: C_8  and  O_10
REMARK    5  A    between atoms: O_10  and  C_11
REMARK    6  A    between atoms: C_16  and  C_17
REMARK    7  A    between atoms: C_18  and  C_19
REMARK    8  A    between atoms: C_19  and  C_20
REMARK    9  A    between atoms: C_19  and  C_21
REMARK   10  A    between atoms: C_24  and  C_25
REMARK                            x       y       z     vdW  Elec       q    Type
REMARK                         _______ _______ _______ _____ _____    ______ ____
ROOT
ATOM      1  C   UNL     1       5.804   4.465  17.489  0.00  0.00    +0.000 A 
ATOM      2  C   UNL     1       4.428   4.267  17.247  0.00  0.00    +0.000 A 
ATOM      3  C   UNL     1       3.502   4.449  18.289  0.00  0.00    +0.000 A 
ATOM      4  C   UNL     1       4.013   4.602  19.598  0.00  0.00    +0.000 A 
ATOM      5  C   UNL     1       5.351   4.956  19.798  0.00  0.00    +0.000 A 
ATOM      6  C   UNL     1       6.236   4.993  18.716  0.00  0.00    +0.000 A 
ATOM      7  C   UNL     1       7.581   5.628  18.914  0.00  0.00    +0.000 C 
ATOM      8  C   UNL     1       3.054   4.434  20.771  0.00  0.00    +0.000 C 
ATOM      9  C   UNL     1       1.936   5.461  20.495  0.00  0.00    +0.000 C 
ATOM     10  C   UNL     1       1.319   5.169  19.152  0.00  0.00    +0.000 C 
ATOM     11  C   UNL     1       2.016   4.594  18.141  0.00  0.00    +0.000 C 
ATOM     12  C   UNL     1       1.266   4.126  16.931  0.00  0.00    +0.000 C 
ENDROOT
BRANCH   8  13
ATOM     13  C   UNL     1       2.522   2.949  20.846  0.00  0.00    +0.000 C 
ATOM     14  C   UNL     1       3.646   1.932  21.074  0.00  0.00    +0.000 C 
ATOM     15  C   UNL     1       1.433   2.733  21.900  0.00  0.00    +0.000 C 
ENDBRANCH   8  13
BRANCH   1  16
ATOM     16  O   UNL     1       6.803   4.202  16.509  0.00  0.00    +0.000 OA
BRANCH  16  17
ATOM     17  C   UNL     1       7.107   5.209  15.589  0.00  0.00    +0.000 C 
ATOM     18  O   UNL     1       7.429   6.358  15.861  0.00  0.00    +0.000 OA
BRANCH  17  23
ATOM     19  C   UNL     1       5.973   3.449  12.369  0.00  0.00    +0.000 A 
ATOM     20  C   UNL     1       6.863   4.013  11.449  0.00  0.00    +0.000 A 
ATOM     21  C   UNL     1       7.807   4.949  11.866  0.00  0.00    +0.000 A 
ATOM     22  C   UNL     1       7.863   5.313  13.212  0.00  0.00    +0.000 A 
ATOM     23  C   UNL     1       6.987   4.750  14.161  0.00  0.00    +0.000 A 
ATOM     24  C   UNL     1       6.030   3.821  13.722  0.00  0.00    +0.000 A 
BRANCH  19  26
ATOM     25  C   UNL     1       3.949   3.069  11.175  0.00  0.00    +0.000 C 
ATOM     26  O   UNL     1       5.105   2.547  11.814  0.00  0.00    +0.000 OA
ENDBRANCH  19  26
ENDBRANCH  17  23
ENDBRANCH  16  17
ENDBRANCH   1  16
TORSDOF 5
ENDMDL
MODEL 4
REMARK VINA RESULT:      -7.2      6.251      8.558
REMARK  Name = 
REMARK  10 active torsions:
REMARK  status: ('A' for Active; 'I' for Inactive)
REMARK    1  A    between atoms: C_1  and  O_2
REMARK    2  A    between atoms: O_2  and  C_3
REMARK    3  A    between atoms: C_7  and  C_8
REMARK    4  A    between atoms: C_8  and  O_10
REMARK    5  A    between atoms: O_10  and  C_11
REMARK    6  A    between atoms: C_16  and  C_17
REMARK    7  A    between atoms: C_18  and  C_19
REMARK    8  A    between atoms: C_19  and  C_20
REMARK    9  A    between atoms: C_19  and  C_21
REMARK   10  A    between atoms: C_24  and  C_25
REMARK                            x       y       z     vdW  Elec       q    Type
REMARK                         _______ _______ _______ _____ _____    ______ ____
ROOT
ATOM      1  C   UNL     1      -0.250  10.062  18.885  0.00  0.00    +0.000 A 
ATOM      2  C   UNL     1      -0.035   9.910  20.271  0.00  0.00    +0.000 A 
ATOM      3  C   UNL     1      -0.686  10.764  21.178  0.00  0.00    +0.000 A 
ATOM      4  C   UNL     1      -1.356  11.892  20.648  0.00  0.00    +0.000 A 
ATOM      5  C   UNL     1      -1.697  11.939  19.293  0.00  0.00    +0.000 A 
ATOM      6  C   UNL     1      -1.228  10.954  18.417  0.00  0.00    +0.000 A 
ATOM      7  C   UNL     1      -1.822  10.880  17.041  0.00  0.00    +0.000 C 
ATOM      8  C   UNL     1      -1.748  13.012  21.603  0.00  0.00    +0.000 C 
ATOM      9  C   UNL     1      -2.613  12.312  22.673  0.00  0.00    +0.000 C 
ATOM     10  C   UNL     1      -1.808  11.213  23.315  0.00  0.00    +0.000 C 
ATOM     11  C   UNL     1      -0.825  10.551  22.656  0.00  0.00    +0.000 C 
ATOM     12  C   UNL     1       0.075   9.645  23.439  0.00  0.00    +0.000 C 
ENDROOT
BRANCH   8  13
ATOM     13  C   UNL     1      -0.462  13.704  22.206  0.00  0.00    +0.000 C 
ATOM     14  C   UNL     1       0.398  14.384  21.134  0.00  0.00    +0.000 C 
ATOM     15  C   UNL     1      -0.765  14.713  23.317  0.00  0.00    +0.000 C 
ENDBRANCH   8  13
BRANCH   1  16
ATOM     16  O   UNL     1       0.452   9.299  17.909  0.00  0.00    +0.000 OA
BRANCH  16  17
ATOM     17  C   UNL     1       1.846   9.387  17.878  0.00  0.00    +0.000 C 
ATOM     18  O   UNL     1       2.497  10.392  17.626  0.00  0.00    +0.000 OA
BRANCH  17  23
ATOM     19  C   UNL     1       4.101   6.283  17.716  0.00  0.00    +0.000 A 
ATOM     20  C   UNL     1       3.716   5.632  18.892  0.00  0.00    +0.000 A 
ATOM     21  C   UNL     1       2.748   6.193  19.722  0.00  0.00    +0.000 A 
ATOM     22  C   UNL     1       2.160   7.407  19.366  0.00  0.00    +0.000 A 
ATOM     23  C   UNL     1       2.520   8.076  18.179  0.00  0.00    +0.000 A 
ATOM     24  C   UNL     1       3.509   7.506  17.362  0.00  0.00    +0.000 A 
BRANCH  19  26
ATOM     25  C   UNL     1       5.287   6.033  15.667  0.00  0.00    +0.000 C 
ATOM     26  O   UNL     1       5.060   5.612  17.004  0.00  0.00    +0.000 OA
ENDBRANCH  19  26
ENDBRANCH  17  23
ENDBRANCH  16  17
ENDBRANCH   1  16
TORSDOF 5
ENDMDL
MODEL 5
REMARK VINA RESULT:      -7.0      1.805      2.715
REMARK  Name = 
REMARK  10 active torsions:
REMARK  status: ('A' for Active; 'I' for Inactive)
REMARK    1  A    between atoms: C_1  and  O_2
REMARK    2  A    between atoms: O_2  and  C_3
REMARK    3  A    between atoms: C_7  and  C_8
REMARK    4  A    between atoms: C_8  and  O_10
REMARK    5  A    between atoms: O_10  and  C_11
REMARK    6  A    between atoms: C_16  and  C_17
REMARK    7  A    between atoms: C_18  and  C_19
REMARK    8  A    between atoms: C_19  and  C_20
REMARK    9  A    between atoms: C_19  and  C_21
REMARK   10  A    between atoms: C_24  and  C_25
REMARK                            x       y       z     vdW  Elec       q    Type
REMARK                         _______ _______ _______ _____ _____    ______ ____
ROOT
ATOM      1  C   UNL     1       5.626   4.133  16.825  0.00  0.00    +0.000 A 
ATOM      2  C   UNL     1       4.217   4.075  16.797  0.00  0.00    +0.000 A 
ATOM      3  C   UNL     1       3.481   4.377  17.957  0.00  0.00    +0.000 A 
ATOM      4  C   UNL     1       4.197   4.504  19.170  0.00  0.00    +0.000 A 
ATOM      5  C   UNL     1       5.579   4.721  19.156  0.00  0.00    +0.000 A 
ATOM      6  C   UNL     1       6.290   4.640  17.953  0.00  0.00    +0.000 A 
ATOM      7  C   UNL     1       7.705   5.136  17.925  0.00  0.00    +0.000 C 
ATOM      8  C   UNL     1       3.416   4.464  20.477  0.00  0.00    +0.000 C 
ATOM      9  C   UNL     1       2.377   5.596  20.331  0.00  0.00    +0.000 C 
ATOM     10  C   UNL     1       1.538   5.340  19.106  0.00  0.00    +0.000 C 
ATOM     11  C   UNL     1       2.012   4.673  18.026  0.00  0.00    +0.000 C 
ATOM     12  C   UNL     1       1.045   4.260  16.959  0.00  0.00    +0.000 C 
ENDROOT
BRANCH   8  13
ATOM     13  C   UNL     1       2.754   3.045  20.686  0.00  0.00    +0.000 C 
ATOM     14  C   UNL     1       3.795   1.932  20.861  0.00  0.00    +0.000 C 
ATOM     15  C   UNL     1       1.763   2.988  21.851  0.00  0.00    +0.000 C 
ENDBRANCH   8  13
BRANCH   1  16
ATOM     16  O   UNL     1       6.434   3.745  15.718  0.00  0.00    +0.000 OA
BRANCH  16  17
ATOM     17  C   UNL     1       6.442   4.565  14.586  0.00  0.00    +0.000 C 
ATOM     18  O   UNL     1       6.705   5.760  14.566  0.00  0.00    +0.000 OA
BRANCH  17  23
ATOM     19  C   UNL     1       4.494   3.108  11.613  0.00  0.00    +0.000 A 
ATOM     20  C   UNL     1       5.521   2.429  10.951  0.00  0.00    +0.000 A 
ATOM     21  C   UNL     1       6.819   2.449  11.456  0.00  0.00    +0.000 A 
ATOM     22  C   UNL     1       7.085   3.146  12.635  0.00  0.00    +0.000 A 
ATOM     23  C   UNL     1       6.065   3.827  13.329  0.00  0.00    +0.000 A 
ATOM     24  C   UNL     1       4.766   3.812  12.798  0.00  0.00    +0.000 A 
BRANCH  19  26
ATOM     25  C   UNL     1       3.074   3.761   9.818  0.00  0.00    +0.000 C 
ATOM     26  O   UNL     1       3.275   2.999  10.999  0.00  0.00    +0.000 OA
ENDBRANCH  19  26
ENDBRANCH  17  23
ENDBRANCH  16  17
ENDBRANCH   1  16
TORSDOF 5
ENDMDL
MODEL 6
REMARK VINA RESULT:      -7.0      5.081      7.600
REMARK  Name = 
REMARK  10 active torsions:
REMARK  status: ('A' for Active; 'I' for Inactive)
REMARK    1  A    between atoms: C_1  and  O_2
REMARK    2  A    between atoms: O_2  and  C_3
REMARK    3  A    between atoms: C_7  and  C_8
REMARK    4  A    between atoms: C_8  and  O_10
REMARK    5  A    between atoms: O_10  and  C_11
REMARK    6  A    between atoms: C_16  and  C_17
REMARK    7  A    between atoms: C_18  and  C_19
REMARK    8  A    between atoms: C_19  and  C_20
REMARK    9  A    between atoms: C_19  and  C_21
REMARK   10  A    between atoms: C_24  and  C_25
REMARK                            x       y       z     vdW  Elec       q    Type
REMARK                         _______ _______ _______ _____ _____    ______ ____
ROOT
ATOM      1  C   UNL     1       1.794   8.411  20.046  0.00  0.00    +0.000 A 
ATOM      2  C   UNL     1       1.041   8.978  21.096  0.00  0.00    +0.000 A 
ATOM      3  C   UNL     1       0.339  10.177  20.886  0.00  0.00    +0.000 A 
ATOM      4  C   UNL     1       0.602  10.887  19.692  0.00  0.00    +0.000 A 
ATOM      5  C   UNL     1       1.209  10.246  18.607  0.00  0.00    +0.000 A 
ATOM      6  C   UNL     1       1.717   8.951  18.752  0.00  0.00    +0.000 A 
ATOM      7  C   UNL     1       2.115   8.197  17.518  0.00  0.00    +0.000 C 
ATOM      8  C   UNL     1       0.149  12.339  19.601  0.00  0.00    +0.000 C 
ATOM      9  C   UNL     1      -1.367  12.280  19.882  0.00  0.00    +0.000 C 
ATOM     10  C   UNL     1      -1.594  11.650  21.231  0.00  0.00    +0.000 C 
ATOM     11  C   UNL     1      -0.741  10.740  21.762  0.00  0.00    +0.000 C 
ATOM     12  C   UNL     1      -0.917  10.347  23.197  0.00  0.00    +0.000 C 
ENDROOT
BRANCH   8  13
ATOM     13  C   UNL     1       0.934  13.233  20.641  0.00  0.00    +0.000 C 
ATOM     14  C   UNL     1       2.436  13.301  20.341  0.00  0.00    +0.000 C 
ATOM     15  C   UNL     1       0.386  14.656  20.774  0.00  0.00    +0.000 C 
ENDBRANCH   8  13
BRANCH   1  16
ATOM     16  O   UNL     1       2.607   7.255  20.219  0.00  0.00    +0.000 OA
BRANCH  16  17
ATOM     17  C   UNL     1       2.009   6.000  20.075  0.00  0.00    +0.000 C 
ATOM     18  O   UNL     1       1.054   5.581  20.715  0.00  0.00    +0.000 OA
BRANCH  17  23
ATOM     19  C   UNL     1       4.612   4.351  17.781  0.00  0.00    +0.000 A 
ATOM     20  C   UNL     1       3.791   3.483  17.055  0.00  0.00    +0.000 A 
ATOM     21  C   UNL     1       2.422   3.430  17.310  0.00  0.00    +0.000 A 
ATOM     22  C   UNL     1       1.875   4.258  18.291  0.00  0.00    +0.000 A 
ATOM     23  C   UNL     1       2.678   5.152  19.027  0.00  0.00    +0.000 A 
ATOM     24  C   UNL     1       4.058   5.181  18.770  0.00  0.00    +0.000 A 
BRANCH  19  26
ATOM     25  C   UNL     1       6.220   4.172  16.035  0.00  0.00    +0.000 C 
ATOM     26  O   UNL     1       5.932   4.293  17.420  0.00  0.00    +0.000 OA
ENDBRANCH  19  26
ENDBRANCH  17  23
ENDBRANCH  16  17
ENDBRANCH   1  16
TORSDOF 5
ENDMDL
MODEL 7
REMARK VINA RESULT:      -7.0      1.857      2.841
REMARK  Name = 
REMARK  10 active torsions:
REMARK  status: ('A' for Active; 'I' for Inactive)
REMARK    1  A    between atoms: C_1  and  O_2
REMARK    2  A    between atoms: O_2  and  C_3
REMARK    3  A    between atoms: C_7  and  C_8
REMARK    4  A    between atoms: C_8  and  O_10
REMARK    5  A    between atoms: O_10  and  C_11
REMARK    6  A    between atoms: C_16  and  C_17
REMARK    7  A    between atoms: C_18  and  C_19
REMARK    8  A    between atoms: C_19  and  C_20
REMARK    9  A    between atoms: C_19  and  C_21
REMARK   10  A    between atoms: C_24  and  C_25
REMARK                            x       y       z     vdW  Elec       q    Type
REMARK                         _______ _______ _______ _____ _____    ______ ____
ROOT
ATOM      1  C   UNL     1       5.652   4.071  16.628  0.00  0.00    +0.000 A 
ATOM      2  C   UNL     1       4.241   4.029  16.641  0.00  0.00    +0.000 A 
ATOM      3  C   UNL     1       3.541   4.377  17.808  0.00  0.00    +0.000 A 
ATOM      4  C   UNL     1       4.290   4.537  18.997  0.00  0.00    +0.000 A 
ATOM      5  C   UNL     1       5.673   4.737  18.939  0.00  0.00    +0.000 A 
ATOM      6  C   UNL     1       6.351   4.608  17.722  0.00  0.00    +0.000 A 
ATOM      7  C   UNL     1       7.770   5.086  17.640  0.00  0.00    +0.000 C 
ATOM      8  C   UNL     1       3.544   4.549  20.325  0.00  0.00    +0.000 C 
ATOM      9  C   UNL     1       2.513   5.688  20.168  0.00  0.00    +0.000 C 
ATOM     10  C   UNL     1       1.639   5.401  18.976  0.00  0.00    +0.000 C 
ATOM     11  C   UNL     1       2.077   4.692  17.906  0.00  0.00    +0.000 C 
ATOM     12  C   UNL     1       1.077   4.255  16.880  0.00  0.00    +0.000 C 
ENDROOT
BRANCH   8  13
ATOM     13  C   UNL     1       2.873   3.145  20.599  0.00  0.00    +0.000 C 
ATOM     14  C   UNL     1       3.897   2.005  20.650  0.00  0.00    +0.000 C 
ATOM     15  C   UNL     1       2.017   3.104  21.867  0.00  0.00    +0.000 C 
ENDBRANCH   8  13
BRANCH   1  16
ATOM     16  O   UNL     1       6.425   3.637  15.514  0.00  0.00    +0.000 OA
BRANCH  16  17
ATOM     17  C   UNL     1       6.402   4.412  14.352  0.00  0.00    +0.000 C 
ATOM     18  O   UNL     1       6.747   5.583  14.261  0.00  0.00    +0.000 OA
BRANCH  17  23
ATOM     19  C   UNL     1       5.968   1.890  11.488  0.00  0.00    +0.000 A 
ATOM     20  C   UNL     1       4.755   2.330  10.949  0.00  0.00    +0.000 A 
ATOM     21  C   UNL     1       4.089   3.418  11.509  0.00  0.00    +0.000 A 
ATOM     22  C   UNL     1       4.649   4.073  12.607  0.00  0.00    +0.000 A 
ATOM     23  C   UNL     1       5.876   3.658  13.160  0.00  0.00    +0.000 A 
ATOM     24  C   UNL     1       6.526   2.549  12.595  0.00  0.00    +0.000 A 
BRANCH  19  26
ATOM     25  C   UNL     1       6.059  -0.475  11.237  0.00  0.00    +0.000 C 
ATOM     26  O   UNL     1       6.503   0.812  10.834  0.00  0.00    +0.000 OA
ENDBRANCH  19  26
ENDBRANCH  17  23
ENDBRANCH  16  17
ENDBRANCH   1  16
TORSDOF 5
ENDMDL
MODEL 8
REMARK VINA RESULT:      -6.8      2.717      6.510
REMARK  Name = 
REMARK  10 active torsions:
REMARK  status: ('A' for Active; 'I' for Inactive)
REMARK    1  A    between atoms: C_1  and  O_2
REMARK    2  A    between atoms: O_2  and  C_3
REMARK    3  A    between atoms: C_7  and  C_8
REMARK    4  A    between atoms: C_8  and  O_10
REMARK    5  A    between atoms: O_10  and  C_11
REMARK    6  A    between atoms: C_16  and  C_17
REMARK    7  A    between atoms: C_18  and  C_19
REMARK    8  A    between atoms: C_19  and  C_20
REMARK    9  A    between atoms: C_19  and  C_21
REMARK   10  A    between atoms: C_24  and  C_25
REMARK                            x       y       z     vdW  Elec       q    Type
REMARK                         _______ _______ _______ _____ _____    ______ ____
ROOT
ATOM      1  C   UNL     1       3.284   6.095  19.449  0.00  0.00    +0.000 A 
ATOM      2  C   UNL     1       4.634   5.717  19.606  0.00  0.00    +0.000 A 
ATOM      3  C   UNL     1       5.565   6.009  18.595  0.00  0.00    +0.000 A 
ATOM      4  C   UNL     1       5.061   6.470  17.356  0.00  0.00    +0.000 A 
ATOM      5  C   UNL     1       3.766   6.990  17.269  0.00  0.00    +0.000 A 
ATOM      6  C   UNL     1       2.898   6.898  18.363  0.00  0.00    +0.000 A 
ATOM      7  C   UNL     1       1.626   7.692  18.334  0.00  0.00    +0.000 C 
ATOM      8  C   UNL     1       5.987   6.445  16.146  0.00  0.00    +0.000 C 
ATOM      9  C   UNL     1       7.209   7.279  16.587  0.00  0.00    +0.000 C 
ATOM     10  C   UNL     1       7.803   6.664  17.827  0.00  0.00    +0.000 C 
ATOM     11  C   UNL     1       7.059   5.972  18.724  0.00  0.00    +0.000 C 
ATOM     12  C   UNL     1       7.767   5.200  19.796  0.00  0.00    +0.000 C 
ENDROOT
BRANCH   8  13
ATOM     13  C   UNL     1       6.362   4.959  15.764  0.00  0.00    +0.000 C 
ATOM     14  C   UNL     1       5.164   4.006  15.865  0.00  0.00    +0.000 C 
ATOM     15  C   UNL     1       6.997   4.816  14.379  0.00  0.00    +0.000 C 
ENDBRANCH   8  13
BRANCH   1  16
ATOM     16  O   UNL     1       2.272   5.744  20.386  0.00  0.00    +0.000 OA
BRANCH  16  17
ATOM     17  C   UNL     1       1.528   4.584  20.152  0.00  0.00    +0.000 C 
ATOM     18  O   UNL     1       0.345   4.423  20.418  0.00  0.00    +0.000 OA
BRANCH  17  23
ATOM     19  C   UNL     1       4.106   1.804  19.540  0.00  0.00    +0.000 A 
ATOM     20  C   UNL     1       3.759   1.423  18.240  0.00  0.00    +0.000 A 
ATOM     21  C   UNL     1       2.707   2.052  17.580  0.00  0.00    +0.000 A 
ATOM     22  C   UNL     1       2.006   3.073  18.223  0.00  0.00    +0.000 A 
ATOM     23  C   UNL     1       2.345   3.485  19.527  0.00  0.00    +0.000 A 
ATOM     24  C   UNL     1       3.396   2.829  20.186  0.00  0.00    +0.000 A 
BRANCH  19  26
ATOM     25  C   UNL     1       5.311   1.105  21.471  0.00  0.00    +0.000 C 
ATOM     26  O   UNL     1       5.159   1.097  20.059  0.00  0.00    +0.000 OA
ENDBRANCH  19  26
ENDBRANCH  17  23
ENDBRANCH  16  17
ENDBRANCH   1  16
TORSDOF 5
ENDMDL
MODEL 9
REMARK VINA RESULT:      -6.8      2.663      6.791
REMARK  Name = 
REMARK  10 active torsions:
REMARK  status: ('A' for Active; 'I' for Inactive)
REMARK    1  A    between atoms: C_1  and  O_2
REMARK    2  A    between atoms: O_2  and  C_3
REMARK    3  A    between atoms: C_7  and  C_8
REMARK    4  A    between atoms: C_8  and  O_10
REMARK    5  A    between atoms: O_10  and  C_11
REMARK    6  A    between atoms: C_16  and  C_17
REMARK    7  A    between atoms: C_18  and  C_19
REMARK    8  A    between atoms: C_19  and  C_20
REMARK    9  A    between atoms: C_19  and  C_21
REMARK   10  A    between atoms: C_24  and  C_25
REMARK                            x       y       z     vdW  Elec       q    Type
REMARK                         _______ _______ _______ _____ _____    ______ ____
ROOT
ATOM      1  C   UNL     1       3.604   2.855  18.269  0.00  0.00    +0.000 A 
ATOM      2  C   UNL     1       3.968   3.258  16.967  0.00  0.00    +0.000 A 
ATOM      3  C   UNL     1       5.183   3.932  16.758  0.00  0.00    +0.000 A 
ATOM      4  C   UNL     1       5.887   4.382  17.899  0.00  0.00    +0.000 A 
ATOM      5  C   UNL     1       5.608   3.842  19.159  0.00  0.00    +0.000 A 
ATOM      6  C   UNL     1       4.517   2.983  19.328  0.00  0.00    +0.000 A 
ATOM      7  C   UNL     1       4.403   2.217  20.613  0.00  0.00    +0.000 C 
ATOM      8  C   UNL     1       6.991   5.414  17.707  0.00  0.00    +0.000 C 
ATOM      9  C   UNL     1       7.951   4.755  16.694  0.00  0.00    +0.000 C 
ATOM     10  C   UNL     1       7.192   4.428  15.435  0.00  0.00    +0.000 C 
ATOM     11  C   UNL     1       5.866   4.145  15.439  0.00  0.00    +0.000 C 
ATOM     12  C   UNL     1       5.149   4.066  14.125  0.00  0.00    +0.000 C 
ENDROOT
BRANCH   8  13
ATOM     13  C   UNL     1       6.391   6.780  17.188  0.00  0.00    +0.000 C 
ATOM     14  C   UNL     1       5.011   7.080  17.785  0.00  0.00    +0.000 C 
ATOM     15  C   UNL     1       7.306   7.986  17.416  0.00  0.00    +0.000 C 
ENDBRANCH   8  13
BRANCH   1  16
ATOM     16  O   UNL     1       2.346   2.258  18.566  0.00  0.00    +0.000 OA
BRANCH  16  17
ATOM     17  C   UNL     1       1.210   3.071  18.557  0.00  0.00    +0.000 C 
ATOM     18  O   UNL     1       0.079   2.724  18.244  0.00  0.00    +0.000 OA
BRANCH  17  23
ATOM     19  C   UNL     1       1.890   6.851  18.527  0.00  0.00    +0.000 A 
ATOM     20  C   UNL     1       2.024   7.092  19.898  0.00  0.00    +0.000 A 
ATOM     21  C   UNL     1       1.890   6.050  20.812  0.00  0.00    +0.000 A 
ATOM     22  C   UNL     1       1.630   4.760  20.348  0.00  0.00    +0.000 A 
ATOM     23  C   UNL     1       1.504   4.488  18.971  0.00  0.00    +0.000 A 
ATOM     24  C   UNL     1       1.624   5.553  18.063  0.00  0.00    +0.000 A 
BRANCH  19  26
ATOM     25  C   UNL     1       1.670   9.213  18.327  0.00  0.00    +0.000 C 
ATOM     26  O   UNL     1       2.046   7.970  17.753  0.00  0.00    +0.000 OA
ENDBRANCH  19  26
ENDBRANCH  17  23
ENDBRANCH  16  17
ENDBRANCH   1  16
TORSDOF 5
ENDMDL
