MODEL 1
REMARK VINA RESULT:      -8.4      0.000      0.000
REMARK  Name = 
REMARK  6 active torsions:
REMARK  status: ('A' for Active; 'I' for Inactive)
REMARK    1  A    between atoms: N_1  and  C_2
REMARK    2  A    between atoms: C_2  and  C_3
REMARK    3  A    between atoms: C_3  and  C_4
REMARK    4  A    between atoms: C_4  and  C_5
REMARK    5  A    between atoms: C_5  and  N_6
REMARK    6  A    between atoms: C_7  and  C_9
REMARK                            x       y       z     vdW  Elec       q    Type
REMARK                         _______ _______ _______ _____ _____    ______ ____
ROOT
ATOM      1  C   UNL     1       6.516   4.772  15.813  0.00  0.00    +0.000 A 
ATOM      2  C   UNL     1       5.216   4.495  16.074  0.00  0.00    +0.000 A 
ATOM      3  C   UNL     1       4.787   4.620  17.458  0.00  0.00    +0.000 A 
ATOM      4  C   UNL     1       3.598   4.411  18.023  0.00  0.00    +0.000 A 
ATOM      5  C   UNL     1       2.305   3.977  17.602  0.00  0.00    +0.000 A 
ATOM      6  C   UNL     1       1.326   3.895  18.518  0.00  0.00    +0.000 A 
ATOM      7  C   UNL     1       1.554   4.244  19.913  0.00  0.00    +0.000 A 
ATOM      8  C   UNL     1       2.741   4.672  20.377  0.00  0.00    +0.000 A 
ATOM      9  C   UNL     1       3.874   4.785  19.433  0.00  0.00    +0.000 A 
ATOM     10  N   UNL     1       5.085   5.177  19.701  0.00  0.00    +0.000 NA
ATOM     11  C   UNL     1       5.714   5.078  18.490  0.00  0.00    +0.000 A 
ATOM     12  C   UNL     1       6.982   5.333  18.135  0.00  0.00    +0.000 A 
ATOM     13  N   UNL     1       7.419   5.135  16.829  0.00  0.00    +0.000 N 
ATOM     14  H   UNL     1       8.233   5.666  16.535  0.00  0.00    +0.000 HD
ENDROOT
BRANCH   1  16
ATOM     15  N   UNL     1       6.325   3.747  13.635  0.00  0.00    +0.000 N 
ATOM     16  C   UNL     1       6.969   4.711  14.378  0.00  0.00    +0.000 C 
ATOM     17  O   UNL     1       7.821   5.466  13.927  0.00  0.00    +0.000 OA
ATOM     18  H   UNL     1       5.530   3.273  14.045  0.00  0.00    +0.000 HD
BRANCH  15  19
ATOM     19  C   UNL     1       6.621   3.542  12.232  0.00  0.00    +0.000 C 
BRANCH  19  20
ATOM     20  C   UNL     1       5.774   2.433  11.604  0.00  0.00    +0.000 C 
BRANCH  20  21
ATOM     21  C   UNL     1       6.614   1.222  11.189  0.00  0.00    +0.000 C 
BRANCH  21  22
ATOM     22  C   UNL     1       5.744  -0.013  10.962  0.00  0.00    +0.000 C 
BRANCH  22  23
ATOM     23  N   UNL     1       6.353  -1.174  11.603  0.00  0.00    +0.000 NA
ATOM     24  H   UNL     1       5.624  -1.836  11.864  0.00  0.00    +0.000 HD
ATOM     25  H   UNL     1       6.803  -0.892  12.472  0.00  0.00    +0.000 HD
ENDBRANCH  22  23
ENDBRANCH  21  22
ENDBRANCH  20  21
ENDBRANCH  19  20
ENDBRANCH  15  19
ENDBRANCH   1  16
TORSDOF 6
ENDMDL
MODEL 2
REMARK VINA RESULT:      -8.4      1.492      1.906
REMARK  Name = 
REMARK  6 active torsions:
REMARK  status: ('A' for Active; 'I' for Inactive)
REMARK    1  A    between atoms: N_1  and  C_2
REMARK    2  A    between atoms: C_2  and  C_3
REMARK    3  A    between atoms: C_3  and  C_4
REMARK    4  A    between atoms: C_4  and  C_5
REMARK    5  A    between atoms: C_5  and  N_6
REMARK    6  A    between atoms: C_7  and  C_9
REMARK                            x       y       z     vdW  Elec       q    Type
REMARK                         _______ _______ _______ _____ _____    ______ ____
ROOT
ATOM      1  C   UNL     1       6.237   4.813  16.064  0.00  0.00    +0.000 A 
ATOM      2  C   UNL     1       4.996   4.324  16.300  0.00  0.00    +0.000 A 
ATOM      3  C   UNL     1       4.462   4.514  17.639  0.00  0.00    +0.000 A 
ATOM      4  C   UNL     1       3.298   4.145  18.173  0.00  0.00    +0.000 A 
ATOM      5  C   UNL     1       2.137   3.431  17.750  0.00  0.00    +0.000 A 
ATOM      6  C   UNL     1       1.132   3.265  18.625  0.00  0.00    +0.000 A 
ATOM      7  C   UNL     1       1.201   3.799  19.978  0.00  0.00    +0.000 A 
ATOM      8  C   UNL     1       2.256   4.493  20.439  0.00  0.00    +0.000 A 
ATOM      9  C   UNL     1       3.408   4.715  19.539  0.00  0.00    +0.000 A 
ATOM     10  N   UNL     1       4.507   5.356  19.811  0.00  0.00    +0.000 NA
ATOM     11  C   UNL     1       5.221   5.249  18.649  0.00  0.00    +0.000 A 
ATOM     12  C   UNL     1       6.440   5.700  18.322  0.00  0.00    +0.000 A 
ATOM     13  N   UNL     1       6.991   5.448  17.069  0.00  0.00    +0.000 N 
ATOM     14  H   UNL     1       7.710   6.089  16.750  0.00  0.00    +0.000 HD
ENDROOT
BRANCH   1  16
ATOM     15  N   UNL     1       6.118   3.762  13.893  0.00  0.00    +0.000 N 
ATOM     16  C   UNL     1       6.786   4.684  14.668  0.00  0.00    +0.000 C 
ATOM     17  O   UNL     1       7.731   5.354  14.270  0.00  0.00    +0.000 OA
ATOM     18  H   UNL     1       5.257   3.365  14.251  0.00  0.00    +0.000 HD
BRANCH  15  19
ATOM     19  C   UNL     1       6.496   3.503  12.519  0.00  0.00    +0.000 C 
BRANCH  19  20
ATOM     20  C   UNL     1       5.405   2.775  11.732  0.00  0.00    +0.000 C 
BRANCH  20  21
ATOM     21  C   UNL     1       4.202   3.676  11.433  0.00  0.00    +0.000 C 
BRANCH  21  22
ATOM     22  C   UNL     1       3.279   3.050  10.390  0.00  0.00    +0.000 C 
BRANCH  22  23
ATOM     23  N   UNL     1       2.893   4.052   9.403  0.00  0.00    +0.000 NA
ATOM     24  H   UNL     1       3.384   3.873   8.529  0.00  0.00    +0.000 HD
ATOM     25  H   UNL     1       3.193   4.975   9.712  0.00  0.00    +0.000 HD
ENDBRANCH  22  23
ENDBRANCH  21  22
ENDBRANCH  20  21
ENDBRANCH  19  20
ENDBRANCH  15  19
ENDBRANCH   1  16
TORSDOF 6
ENDMDL
MODEL 3
REMARK VINA RESULT:      -8.0      1.404      1.585
REMARK  Name = 
REMARK  6 active torsions:
REMARK  status: ('A' for Active; 'I' for Inactive)
REMARK    1  A    between atoms: N_1  and  C_2
REMARK    2  A    between atoms: C_2  and  C_3
REMARK    3  A    between atoms: C_3  and  C_4
REMARK    4  A    between atoms: C_4  and  C_5
REMARK    5  A    between atoms: C_5  and  N_6
REMARK    6  A    between atoms: C_7  and  C_9
REMARK                            x       y       z     vdW  Elec       q    Type
REMARK                         _______ _______ _______ _____ _____    ______ ____
ROOT
ATOM      1  C   UNL     1       5.369   5.104  15.815  0.00  0.00    +0.000 A 
ATOM      2  C   UNL     1       4.681   4.099  16.408  0.00  0.00    +0.000 A 
ATOM      3  C   UNL     1       3.742   4.479  17.451  0.00  0.00    +0.000 A 
ATOM      4  C   UNL     1       2.940   3.735  18.214  0.00  0.00    +0.000 A 
ATOM      5  C   UNL     1       2.660   2.346  18.387  0.00  0.00    +0.000 A 
ATOM      6  C   UNL     1       1.742   1.986  19.299  0.00  0.00    +0.000 A 
ATOM      7  C   UNL     1       1.031   2.973  20.098  0.00  0.00    +0.000 A 
ATOM      8  C   UNL     1       1.235   4.297  19.980  0.00  0.00    +0.000 A 
ATOM      9  C   UNL     1       2.234   4.776  19.000  0.00  0.00    +0.000 A 
ATOM     10  N   UNL     1       2.563   6.011  18.751  0.00  0.00    +0.000 NA
ATOM     11  C   UNL     1       3.526   5.884  17.788  0.00  0.00    +0.000 A 
ATOM     12  C   UNL     1       4.251   6.809  17.144  0.00  0.00    +0.000 A 
ATOM     13  N   UNL     1       5.211   6.447  16.203  0.00  0.00    +0.000 N 
ATOM     14  H   UNL     1       5.455   7.145  15.508  0.00  0.00    +0.000 HD
ENDROOT
BRANCH   1  16
ATOM     15  N   UNL     1       5.702   4.012  13.687  0.00  0.00    +0.000 N 
ATOM     16  C   UNL     1       6.301   4.742  14.688  0.00  0.00    +0.000 C 
ATOM     17  O   UNL     1       7.477   5.086  14.674  0.00  0.00    +0.000 OA
ATOM     18  H   UNL     1       4.695   3.903  13.706  0.00  0.00    +0.000 HD
BRANCH  15  19
ATOM     19  C   UNL     1       6.435   3.577  12.516  0.00  0.00    +0.000 C 
BRANCH  19  20
ATOM     20  C   UNL     1       5.689   2.511  11.712  0.00  0.00    +0.000 C 
BRANCH  20  21
ATOM     21  C   UNL     1       6.599   1.350  11.298  0.00  0.00    +0.000 C 
BRANCH  21  22
ATOM     22  C   UNL     1       5.792   0.096  10.967  0.00  0.00    +0.000 C 
BRANCH  22  23
ATOM     23  N   UNL     1       6.468  -1.083  11.497  0.00  0.00    +0.000 NA
ATOM     24  H   UNL     1       6.494  -1.029  12.514  0.00  0.00    +0.000 HD
ATOM     25  H   UNL     1       7.439  -1.093  11.189  0.00  0.00    +0.000 HD
ENDBRANCH  22  23
ENDBRANCH  21  22
ENDBRANCH  20  21
ENDBRANCH  19  20
ENDBRANCH  15  19
ENDBRANCH   1  16
TORSDOF 6
ENDMDL
MODEL 4
REMARK VINA RESULT:      -8.0      2.753      6.800
REMARK  Name = 
REMARK  6 active torsions:
REMARK  status: ('A' for Active; 'I' for Inactive)
REMARK    1  A    between atoms: N_1  and  C_2
REMARK    2  A    between atoms: C_2  and  C_3
REMARK    3  A    between atoms: C_3  and  C_4
REMARK    4  A    between atoms: C_4  and  C_5
REMARK    5  A    between atoms: C_5  and  N_6
REMARK    6  A    between atoms: C_7  and  C_9
REMARK                            x       y       z     vdW  Elec       q    Type
REMARK                         _______ _______ _______ _____ _____    ______ ____
ROOT
ATOM      1  C   UNL     1       5.234   4.528  18.026  0.00  0.00    +0.000 A 
ATOM      2  C   UNL     1       5.036   4.017  16.788  0.00  0.00    +0.000 A 
ATOM      3  C   UNL     1       5.943   4.464  15.744  0.00  0.00    +0.000 A 
ATOM      4  C   UNL     1       5.998   4.156  14.447  0.00  0.00    +0.000 A 
ATOM      5  C   UNL     1       5.256   3.348  13.535  0.00  0.00    +0.000 A 
ATOM      6  C   UNL     1       5.650   3.300  12.253  0.00  0.00    +0.000 A 
ATOM      7  C   UNL     1       6.812   4.042  11.783  0.00  0.00    +0.000 A 
ATOM      8  C   UNL     1       7.564   4.812  12.588  0.00  0.00    +0.000 A 
ATOM      9  C   UNL     1       7.193   4.923  14.015  0.00  0.00    +0.000 A 
ATOM     10  N   UNL     1       7.799   5.617  14.934  0.00  0.00    +0.000 NA
ATOM     11  C   UNL     1       7.042   5.377  16.048  0.00  0.00    +0.000 A 
ATOM     12  C   UNL     1       7.162   5.828  17.305  0.00  0.00    +0.000 A 
ATOM     13  N   UNL     1       6.247   5.469  18.290  0.00  0.00    +0.000 N 
ATOM     14  H   UNL     1       6.568   5.523  19.252  0.00  0.00    +0.000 HD
ENDROOT
BRANCH   1  16
ATOM     15  N   UNL     1       3.527   5.002  19.667  0.00  0.00    +0.000 N 
ATOM     16  C   UNL     1       4.348   4.032  19.138  0.00  0.00    +0.000 C 
ATOM     17  O   UNL     1       4.359   2.866  19.515  0.00  0.00    +0.000 OA
ATOM     18  H   UNL     1       3.474   5.898  19.196  0.00  0.00    +0.000 HD
BRANCH  15  19
ATOM     19  C   UNL     1       2.599   4.714  20.741  0.00  0.00    +0.000 C 
BRANCH  19  20
ATOM     20  C   UNL     1       1.191   4.393  20.236  0.00  0.00    +0.000 C 
BRANCH  20  21
ATOM     21  C   UNL     1       0.917   2.886  20.193  0.00  0.00    +0.000 C 
BRANCH  21  22
ATOM     22  C   UNL     1       0.739   2.389  18.760  0.00  0.00    +0.000 C 
BRANCH  22  23
ATOM     23  N   UNL     1       1.943   1.689  18.325  0.00  0.00    +0.000 NA
ATOM     24  H   UNL     1       2.321   1.150  19.103  0.00  0.00    +0.000 HD
ATOM     25  H   UNL     1       2.663   2.363  18.071  0.00  0.00    +0.000 HD
ENDBRANCH  22  23
ENDBRANCH  21  22
ENDBRANCH  20  21
ENDBRANCH  19  20
ENDBRANCH  15  19
ENDBRANCH   1  16
TORSDOF 6
ENDMDL
MODEL 5
REMARK VINA RESULT:      -8.0      2.866      7.181
REMARK  Name = 
REMARK  6 active torsions:
REMARK  status: ('A' for Active; 'I' for Inactive)
REMARK    1  A    between atoms: N_1  and  C_2
REMARK    2  A    between atoms: C_2  and  C_3
REMARK    3  A    between atoms: C_3  and  C_4
REMARK    4  A    between atoms: C_4  and  C_5
REMARK    5  A    between atoms: C_5  and  N_6
REMARK    6  A    between atoms: C_7  and  C_9
REMARK                            x       y       z     vdW  Elec       q    Type
REMARK                         _______ _______ _______ _____ _____    ______ ____
ROOT
ATOM      1  C   UNL     1       4.593   3.579  17.623  0.00  0.00    +0.000 A 
ATOM      2  C   UNL     1       4.714   3.335  16.296  0.00  0.00    +0.000 A 
ATOM      3  C   UNL     1       5.736   4.086  15.585  0.00  0.00    +0.000 A 
ATOM      4  C   UNL     1       6.086   4.078  14.299  0.00  0.00    +0.000 A 
ATOM      5  C   UNL     1       5.657   3.422  13.106  0.00  0.00    +0.000 A 
ATOM      6  C   UNL     1       6.298   3.695  11.957  0.00  0.00    +0.000 A 
ATOM      7  C   UNL     1       7.413   4.630  11.909  0.00  0.00    +0.000 A 
ATOM      8  C   UNL     1       7.879   5.272  12.994  0.00  0.00    +0.000 A 
ATOM      9  C   UNL     1       7.224   5.031  14.298  0.00  0.00    +0.000 A 
ATOM     10  N   UNL     1       7.535   5.561  15.445  0.00  0.00    +0.000 NA
ATOM     11  C   UNL     1       6.616   5.011  16.296  0.00  0.00    +0.000 A 
ATOM     12  C   UNL     1       6.423   5.184  17.611  0.00  0.00    +0.000 A 
ATOM     13  N   UNL     1       5.393   4.531  18.282  0.00  0.00    +0.000 N 
ATOM     14  H   UNL     1       5.509   4.403  19.282  0.00  0.00    +0.000 HD
ENDROOT
BRANCH   1  16
ATOM     15  N   UNL     1       2.279   3.128  18.147  0.00  0.00    +0.000 N 
ATOM     16  C   UNL     1       3.584   2.768  18.393  0.00  0.00    +0.000 C 
ATOM     17  O   UNL     1       3.912   1.866  19.154  0.00  0.00    +0.000 OA
ATOM     18  H   UNL     1       2.093   3.778  17.392  0.00  0.00    +0.000 HD
BRANCH  15  19
ATOM     19  C   UNL     1       1.168   2.458  18.790  0.00  0.00    +0.000 C 
BRANCH  19  20
ATOM     20  C   UNL     1       0.964   2.907  20.238  0.00  0.00    +0.000 C 
BRANCH  20  21
ATOM     21  C   UNL     1       0.957   4.432  20.380  0.00  0.00    +0.000 C 
BRANCH  21  22
ATOM     22  C   UNL     1       2.201   4.933  21.110  0.00  0.00    +0.000 C 
BRANCH  22  23
ATOM     23  N   UNL     1       3.063   5.658  20.183  0.00  0.00    +0.000 NA
ATOM     24  H   UNL     1       3.915   5.942  20.666  0.00  0.00    +0.000 HD
ATOM     25  H   UNL     1       2.606   6.518  19.887  0.00  0.00    +0.000 HD
ENDBRANCH  22  23
ENDBRANCH  21  22
ENDBRANCH  20  21
ENDBRANCH  19  20
ENDBRANCH  15  19
ENDBRANCH   1  16
TORSDOF 6
ENDMDL
MODEL 6
REMARK VINA RESULT:      -7.8      2.053      2.480
REMARK  Name = 
REMARK  6 active torsions:
REMARK  status: ('A' for Active; 'I' for Inactive)
REMARK    1  A    between atoms: N_1  and  C_2
REMARK    2  A    between atoms: C_2  and  C_3
REMARK    3  A    between atoms: C_3  and  C_4
REMARK    4  A    between atoms: C_4  and  C_5
REMARK    5  A    between atoms: C_5  and  N_6
REMARK    6  A    between atoms: C_7  and  C_9
REMARK                            x       y       z     vdW  Elec       q    Type
REMARK                         _______ _______ _______ _____ _____    ______ ____
ROOT
ATOM      1  C   UNL     1       5.533   5.369  15.973  0.00  0.00    +0.000 A 
ATOM      2  C   UNL     1       5.125   4.441  16.872  0.00  0.00    +0.000 A 
ATOM      3  C   UNL     1       4.254   4.906  17.940  0.00  0.00    +0.000 A 
ATOM      4  C   UNL     1       3.704   4.251  18.962  0.00  0.00    +0.000 A 
ATOM      5  C   UNL     1       3.720   2.920  19.477  0.00  0.00    +0.000 A 
ATOM      6  C   UNL     1       2.999   2.649  20.577  0.00  0.00    +0.000 A 
ATOM      7  C   UNL     1       2.206   3.673  21.242  0.00  0.00    +0.000 A 
ATOM      8  C   UNL     1       2.134   4.942  20.806  0.00  0.00    +0.000 A 
ATOM      9  C   UNL     1       2.903   5.324  19.602  0.00  0.00    +0.000 A 
ATOM     10  N   UNL     1       2.956   6.497  19.041  0.00  0.00    +0.000 NA
ATOM     11  C   UNL     1       3.809   6.297  17.991  0.00  0.00    +0.000 A 
ATOM     12  C   UNL     1       4.263   7.142  17.054  0.00  0.00    +0.000 A 
ATOM     13  N   UNL     1       5.162   6.722  16.078  0.00  0.00    +0.000 N 
ATOM     14  H   UNL     1       5.185   7.260  15.218  0.00  0.00    +0.000 HD
ENDROOT
BRANCH   1  16
ATOM     15  N   UNL     1       5.699   4.133  13.905  0.00  0.00    +0.000 N 
ATOM     16  C   UNL     1       6.383   4.900  14.822  0.00  0.00    +0.000 C 
ATOM     17  O   UNL     1       7.568   5.193  14.719  0.00  0.00    +0.000 OA
ATOM     18  H   UNL     1       4.691   4.067  13.988  0.00  0.00    +0.000 HD
BRANCH  15  19
ATOM     19  C   UNL     1       6.346   3.596  12.726  0.00  0.00    +0.000 C 
BRANCH  19  20
ATOM     20  C   UNL     1       5.378   2.846  11.810  0.00  0.00    +0.000 C 
BRANCH  20  21
ATOM     21  C   UNL     1       4.136   3.675  11.469  0.00  0.00    +0.000 C 
BRANCH  21  22
ATOM     22  C   UNL     1       3.303   3.013  10.373  0.00  0.00    +0.000 C 
BRANCH  22  23
ATOM     23  N   UNL     1       2.925   4.003   9.370  0.00  0.00    +0.000 NA
ATOM     24  H   UNL     1       1.909   4.068   9.326  0.00  0.00    +0.000 HD
ATOM     25  H   UNL     1       3.229   3.694   8.448  0.00  0.00    +0.000 HD
ENDBRANCH  22  23
ENDBRANCH  21  22
ENDBRANCH  20  21
ENDBRANCH  19  20
ENDBRANCH  15  19
ENDBRANCH   1  16
TORSDOF 6
ENDMDL
MODEL 7
REMARK VINA RESULT:      -7.8      2.476      2.864
REMARK  Name = 
REMARK  6 active torsions:
REMARK  status: ('A' for Active; 'I' for Inactive)
REMARK    1  A    between atoms: N_1  and  C_2
REMARK    2  A    between atoms: C_2  and  C_3
REMARK    3  A    between atoms: C_3  and  C_4
REMARK    4  A    between atoms: C_4  and  C_5
REMARK    5  A    between atoms: C_5  and  N_6
REMARK    6  A    between atoms: C_7  and  C_9
REMARK                            x       y       z     vdW  Elec       q    Type
REMARK                         _______ _______ _______ _____ _____    ______ ____
ROOT
ATOM      1  C   UNL     1       5.563   4.812  16.202  0.00  0.00    +0.000 A 
ATOM      2  C   UNL     1       4.789   5.912  16.360  0.00  0.00    +0.000 A 
ATOM      3  C   UNL     1       4.070   6.030  17.618  0.00  0.00    +0.000 A 
ATOM      4  C   UNL     1       3.237   6.972  18.061  0.00  0.00    +0.000 A 
ATOM      5  C   UNL     1       2.675   8.185  17.560  0.00  0.00    +0.000 A 
ATOM      6  C   UNL     1       1.840   8.879  18.351  0.00  0.00    +0.000 A 
ATOM      7  C   UNL     1       1.510   8.428  19.696  0.00  0.00    +0.000 A 
ATOM      8  C   UNL     1       2.012   7.304  20.236  0.00  0.00    +0.000 A 
ATOM      9  C   UNL     1       2.936   6.478  19.427  0.00  0.00    +0.000 A 
ATOM     10  N   UNL     1       3.513   5.367  19.781  0.00  0.00    +0.000 NA
ATOM     11  C   UNL     1       4.234   5.028  18.669  0.00  0.00    +0.000 A 
ATOM     12  C   UNL     1       5.025   3.974  18.423  0.00  0.00    +0.000 A 
ATOM     13  N   UNL     1       5.650   3.814  17.190  0.00  0.00    +0.000 N 
ATOM     14  H   UNL     1       6.487   3.241  17.174  0.00  0.00    +0.000 HD
ENDROOT
BRANCH   1  16
ATOM     15  N   UNL     1       5.808   3.860  13.996  0.00  0.00    +0.000 N 
ATOM     16  C   UNL     1       6.367   4.700  14.933  0.00  0.00    +0.000 C 
ATOM     17  O   UNL     1       7.412   5.315  14.762  0.00  0.00    +0.000 OA
ATOM     18  H   UNL     1       4.870   3.513  14.158  0.00  0.00    +0.000 HD
BRANCH  15  19
ATOM     19  C   UNL     1       6.432   3.629  12.710  0.00  0.00    +0.000 C 
BRANCH  19  20
ATOM     20  C   UNL     1       5.509   2.910  11.724  0.00  0.00    +0.000 C 
BRANCH  20  21
ATOM     21  C   UNL     1       4.152   3.606  11.582  0.00  0.00    +0.000 C 
BRANCH  21  22
ATOM     22  C   UNL     1       3.329   3.004  10.445  0.00  0.00    +0.000 C 
BRANCH  22  23
ATOM     23  N   UNL     1       3.028   4.029   9.452  0.00  0.00    +0.000 NA
ATOM     24  H   UNL     1       3.751   4.025   8.733  0.00  0.00    +0.000 HD
ATOM     25  H   UNL     1       3.063   4.950   9.884  0.00  0.00    +0.000 HD
ENDBRANCH  22  23
ENDBRANCH  21  22
ENDBRANCH  20  21
ENDBRANCH  19  20
ENDBRANCH  15  19
ENDBRANCH   1  16
TORSDOF 6
ENDMDL
MODEL 8
REMARK VINA RESULT:      -7.7      2.814      6.952
REMARK  Name = 
REMARK  6 active torsions:
REMARK  status: ('A' for Active; 'I' for Inactive)
REMARK    1  A    between atoms: N_1  and  C_2
REMARK    2  A    between atoms: C_2  and  C_3
REMARK    3  A    between atoms: C_3  and  C_4
REMARK    4  A    between atoms: C_4  and  C_5
REMARK    5  A    between atoms: C_5  and  N_6
REMARK    6  A    between atoms: C_7  and  C_9
REMARK                            x       y       z     vdW  Elec       q    Type
REMARK                         _______ _______ _______ _____ _____    ______ ____
ROOT
ATOM      1  C   UNL     1       4.235   5.345  17.566  0.00  0.00    +0.000 A 
ATOM      2  C   UNL     1       4.231   4.729  16.360  0.00  0.00    +0.000 A 
ATOM      3  C   UNL     1       5.420   4.894  15.539  0.00  0.00    +0.000 A 
ATOM      4  C   UNL     1       5.709   4.429  14.323  0.00  0.00    +0.000 A 
ATOM      5  C   UNL     1       5.056   3.651  13.321  0.00  0.00    +0.000 A 
ATOM      6  C   UNL     1       5.716   3.387  12.182  0.00  0.00    +0.000 A 
ATOM      7  C   UNL     1       7.072   3.866  11.957  0.00  0.00    +0.000 A 
ATOM      8  C   UNL     1       7.753   4.592  12.860  0.00  0.00    +0.000 A 
ATOM      9  C   UNL     1       7.094   4.931  14.140  0.00  0.00    +0.000 A 
ATOM     10  N   UNL     1       7.594   5.621  15.124  0.00  0.00    +0.000 NA
ATOM     11  C   UNL     1       6.572   5.643  16.033  0.00  0.00    +0.000 A 
ATOM     12  C   UNL     1       6.485   6.215  17.243  0.00  0.00    +0.000 A 
ATOM     13  N   UNL     1       5.319   6.131  17.998  0.00  0.00    +0.000 N 
ATOM     14  H   UNL     1       5.417   6.245  19.002  0.00  0.00    +0.000 HD
ENDROOT
BRANCH   1  16
ATOM     15  N   UNL     1       3.339   5.195  19.804  0.00  0.00    +0.000 N 
ATOM     16  C   UNL     1       3.041   5.137  18.461  0.00  0.00    +0.000 C 
ATOM     17  O   UNL     1       1.915   4.949  18.019  0.00  0.00    +0.000 OA
ATOM     18  H   UNL     1       4.264   5.505  20.080  0.00  0.00    +0.000 HD
BRANCH  15  19
ATOM     19  C   UNL     1       2.320   5.026  20.819  0.00  0.00    +0.000 C 
BRANCH  19  20
ATOM     20  C   UNL     1       2.278   3.604  21.384  0.00  0.00    +0.000 C 
BRANCH  20  21
ATOM     21  C   UNL     1       1.187   2.750  20.732  0.00  0.00    +0.000 C 
BRANCH  21  22
ATOM     22  C   UNL     1       1.743   1.906  19.588  0.00  0.00    +0.000 C 
BRANCH  22  23
ATOM     23  N   UNL     1       0.911   2.068  18.401  0.00  0.00    +0.000 NA
ATOM     24  H   UNL     1       0.054   1.529  18.513  0.00  0.00    +0.000 HD
ATOM     25  H   UNL     1       1.387   1.677  17.589  0.00  0.00    +0.000 HD
ENDBRANCH  22  23
ENDBRANCH  21  22
ENDBRANCH  20  21
ENDBRANCH  19  20
ENDBRANCH  15  19
ENDBRANCH   1  16
TORSDOF 6
ENDMDL
MODEL 9
REMARK VINA RESULT:      -7.6      2.249      2.450
REMARK  Name = 
REMARK  6 active torsions:
REMARK  status: ('A' for Active; 'I' for Inactive)
REMARK    1  A    between atoms: N_1  and  C_2
REMARK    2  A    between atoms: C_2  and  C_3
REMARK    3  A    between atoms: C_3  and  C_4
REMARK    4  A    between atoms: C_4  and  C_5
REMARK    5  A    between atoms: C_5  and  N_6
REMARK    6  A    between atoms: C_7  and  C_9
REMARK                            x       y       z     vdW  Elec       q    Type
REMARK                         _______ _______ _______ _____ _____    ______ ____
ROOT
ATOM      1  C   UNL     1       5.536   4.774  16.687  0.00  0.00    +0.000 A 
ATOM      2  C   UNL     1       4.804   5.912  16.730  0.00  0.00    +0.000 A 
ATOM      3  C   UNL     1       3.963   6.104  17.901  0.00  0.00    +0.000 A 
ATOM      4  C   UNL     1       3.135   7.096  18.225  0.00  0.00    +0.000 A 
ATOM      5  C   UNL     1       2.687   8.315  17.634  0.00  0.00    +0.000 A 
ATOM      6  C   UNL     1       1.808   9.072  18.311  0.00  0.00    +0.000 A 
ATOM      7  C   UNL     1       1.317   8.682  19.625  0.00  0.00    +0.000 A 
ATOM      8  C   UNL     1       1.705   7.555  20.248  0.00  0.00    +0.000 A 
ATOM      9  C   UNL     1       2.668   6.662  19.566  0.00  0.00    +0.000 A 
ATOM     10  N   UNL     1       3.151   5.539  20.011  0.00  0.00    +0.000 NA
ATOM     11  C   UNL     1       3.967   5.131  18.992  0.00  0.00    +0.000 A 
ATOM     12  C   UNL     1       4.728   4.035  18.861  0.00  0.00    +0.000 A 
ATOM     13  N   UNL     1       5.471   3.806  17.706  0.00  0.00    +0.000 N 
ATOM     14  H   UNL     1       6.276   3.195  17.796  0.00  0.00    +0.000 HD
ENDROOT
BRANCH   1  16
ATOM     15  N   UNL     1       5.819   4.214  14.355  0.00  0.00    +0.000 N 
ATOM     16  C   UNL     1       6.463   4.583  15.515  0.00  0.00    +0.000 C 
ATOM     17  O   UNL     1       7.672   4.756  15.600  0.00  0.00    +0.000 OA
ATOM     18  H   UNL     1       4.806   4.242  14.336  0.00  0.00    +0.000 HD
BRANCH  15  19
ATOM     19  C   UNL     1       6.542   3.991  13.120  0.00  0.00    +0.000 C 
BRANCH  19  20
ATOM     20  C   UNL     1       5.793   3.070  12.154  0.00  0.00    +0.000 C 
BRANCH  20  21
ATOM     21  C   UNL     1       6.725   2.079  11.452  0.00  0.00    +0.000 C 
BRANCH  21  22
ATOM     22  C   UNL     1       5.950   0.906  10.854  0.00  0.00    +0.000 C 
BRANCH  22  23
ATOM     23  N   UNL     1       6.286  -0.324  11.563  0.00  0.00    +0.000 NA
ATOM     24  H   UNL     1       5.951  -1.124  11.028  0.00  0.00    +0.000 HD
ATOM     25  H   UNL     1       5.795  -0.354  12.455  0.00  0.00    +0.000 HD
ENDBRANCH  22  23
ENDBRANCH  21  22
ENDBRANCH  20  21
ENDBRANCH  19  20
ENDBRANCH  15  19
ENDBRANCH   1  16
TORSDOF 6
ENDMDL
