MODEL 1
REMARK VINA RESULT:      -7.5      0.000      0.000
REMARK  Name = 
REMARK  7 active torsions:
REMARK  status: ('A' for Active; 'I' for Inactive)
REMARK    1  A    between atoms: C_1  and  N_2
REMARK    2  A    between atoms: N_2  and  N_3
REMARK    3  A    between atoms: C_4  and  C_6
REMARK    4  A    between atoms: C_6  and  S_7
REMARK    5  A    between atoms: S_7  and  C_8
REMARK    6  A    between atoms: C_13  and  C_14
REMARK    7  A    between atoms: N_24  and  C_25
REMARK                            x       y       z     vdW  Elec       q    Type
REMARK                         _______ _______ _______ _____ _____    ______ ____
ROOT
ATOM      1  C   UNL     1       2.933   7.113  18.298  0.00  0.00    +0.000 A 
ATOM      2  N   UNL     1       3.067   8.288  17.767  0.00  0.00    +0.000 NA
ATOM      3  C   UNL     1       2.313   9.266  18.322  0.00  0.00    +0.000 A 
ATOM      4  S   UNL     1       2.316  10.837  17.668  0.00  0.00    +0.000 S 
ATOM      5  C   UNL     1       1.175  11.382  18.816  0.00  0.00    +0.000 A 
ATOM      6  C   UNL     1       0.797  10.401  19.719  0.00  0.00    +0.000 A 
ATOM      7  C   UNL     1       1.469   9.154  19.405  0.00  0.00    +0.000 A 
ATOM      8  C   UNL     1       1.407   7.850  20.051  0.00  0.00    +0.000 A 
ATOM      9  O   UNL     1       0.810   7.676  21.115  0.00  0.00    +0.000 OA
ATOM     10  N   UNL     1       2.108   6.828  19.392  0.00  0.00    +0.000 N 
ENDROOT
BRANCH   6  11
ATOM     11  C   UNL     1      -0.140  10.713  20.810  0.00  0.00    +0.000 A 
ATOM     12  C   UNL     1       0.033  10.171  22.093  0.00  0.00    +0.000 A 
ATOM     13  C   UNL     1      -0.771  10.577  23.160  0.00  0.00    +0.000 A 
ATOM     14  C   UNL     1      -1.803  11.475  22.938  0.00  0.00    +0.000 A 
ATOM     15  F   UNL     1      -2.569  11.872  23.962  0.00  0.00    +0.000 F 
ATOM     16  C   UNL     1      -2.050  11.967  21.664  0.00  0.00    +0.000 A 
ATOM     17  C   UNL     1      -1.215  11.596  20.605  0.00  0.00    +0.000 A 
ENDBRANCH   6  11
BRANCH  10  18
ATOM     18  C   UNL     1       1.969   5.521  19.945  0.00  0.00    +0.000 A 
ATOM     19  C   UNL     1       1.142   4.586  19.299  0.00  0.00    +0.000 A 
ATOM     20  C   UNL     1       0.969   3.312  19.843  0.00  0.00    +0.000 A 
ATOM     21  C   UNL     1       1.600   2.987  21.037  0.00  0.00    +0.000 A 
ATOM     22  F   UNL     1       1.427   1.768  21.562  0.00  0.00    +0.000 F 
ATOM     23  C   UNL     1       2.401   3.911  21.700  0.00  0.00    +0.000 A 
ATOM     24  C   UNL     1       2.588   5.183  21.156  0.00  0.00    +0.000 A 
ENDBRANCH  10  18
BRANCH   1  25
ATOM     25  S   UNL     1       3.763   5.778  17.500  0.00  0.00    +0.000 S 
BRANCH  25  26
ATOM     26  C   UNL     1       5.436   5.965  18.180  0.00  0.00    +0.000 C 
BRANCH  26  28
ATOM     27  N   UNL     1       4.997   3.667  18.884  0.00  0.00    +0.000 N 
ATOM     28  C   UNL     1       5.761   4.809  19.109  0.00  0.00    +0.000 C 
ATOM     29  O   UNL     1       6.674   4.855  19.934  0.00  0.00    +0.000 OA
ATOM     30  H   UNL     1       4.102   3.774  18.408  0.00  0.00    +0.000 HD
BRANCH  27  32
ATOM     31  C   UNL     1       4.317   1.447  19.299  0.00  0.00    +0.000 C 
ATOM     32  N   UNL     1       5.168   2.550  19.734  0.00  0.00    +0.000 NA
ATOM     33  H   UNL     1       6.152   2.256  19.655  0.00  0.00    +0.000 HD
ENDBRANCH  27  32
ENDBRANCH  26  28
ENDBRANCH  25  26
ENDBRANCH   1  25
TORSDOF 6
ENDMDL
MODEL 2
REMARK VINA RESULT:      -7.4      1.794      2.306
REMARK  Name = 
REMARK  7 active torsions:
REMARK  status: ('A' for Active; 'I' for Inactive)
REMARK    1  A    between atoms: C_1  and  N_2
REMARK    2  A    between atoms: N_2  and  N_3
REMARK    3  A    between atoms: C_4  and  C_6
REMARK    4  A    between atoms: C_6  and  S_7
REMARK    5  A    between atoms: S_7  and  C_8
REMARK    6  A    between atoms: C_13  and  C_14
REMARK    7  A    between atoms: N_24  and  C_25
REMARK                            x       y       z     vdW  Elec       q    Type
REMARK                         _______ _______ _______ _____ _____    ______ ____
ROOT
ATOM      1  C   UNL     1       2.892   6.795  18.465  0.00  0.00    +0.000 A 
ATOM      2  N   UNL     1       3.068   7.940  17.884  0.00  0.00    +0.000 NA
ATOM      3  C   UNL     1       2.340   8.965  18.388  0.00  0.00    +0.000 A 
ATOM      4  S   UNL     1       2.397  10.504  17.664  0.00  0.00    +0.000 S 
ATOM      5  C   UNL     1       1.266  11.134  18.778  0.00  0.00    +0.000 A 
ATOM      6  C   UNL     1       0.851  10.207  19.720  0.00  0.00    +0.000 A 
ATOM      7  C   UNL     1       1.486   8.927  19.468  0.00  0.00    +0.000 A 
ATOM      8  C   UNL     1       1.378   7.656  20.171  0.00  0.00    +0.000 A 
ATOM      9  O   UNL     1       0.768   7.548  21.236  0.00  0.00    +0.000 OA
ATOM     10  N   UNL     1       2.051   6.585  19.564  0.00  0.00    +0.000 N 
ENDROOT
BRANCH   6  11
ATOM     11  C   UNL     1      -0.084  10.596  20.789  0.00  0.00    +0.000 A 
ATOM     12  C   UNL     1       0.035  10.071  22.084  0.00  0.00    +0.000 A 
ATOM     13  C   UNL     1      -0.760  10.547  23.130  0.00  0.00    +0.000 A 
ATOM     14  C   UNL     1      -1.733  11.500  22.871  0.00  0.00    +0.000 A 
ATOM     15  F   UNL     1      -2.490  11.962  23.874  0.00  0.00    +0.000 F 
ATOM     16  C   UNL     1      -1.930  11.979  21.584  0.00  0.00    +0.000 A 
ATOM     17  C   UNL     1      -1.100  11.537  20.548  0.00  0.00    +0.000 A 
ENDBRANCH   6  11
BRANCH  10  18
ATOM     18  C   UNL     1       1.867   5.308  20.173  0.00  0.00    +0.000 A 
ATOM     19  C   UNL     1       2.655   4.956  21.282  0.00  0.00    +0.000 A 
ATOM     20  C   UNL     1       2.510   3.699  21.872  0.00  0.00    +0.000 A 
ATOM     21  C   UNL     1       1.601   2.795  21.339  0.00  0.00    +0.000 A 
ATOM     22  F   UNL     1       1.468   1.587  21.901  0.00  0.00    +0.000 F 
ATOM     23  C   UNL     1       0.832   3.121  20.227  0.00  0.00    +0.000 A 
ATOM     24  C   UNL     1       0.963   4.381  19.639  0.00  0.00    +0.000 A 
ENDBRANCH  10  18
BRANCH   1  25
ATOM     25  S   UNL     1       3.685   5.400  17.735  0.00  0.00    +0.000 S 
BRANCH  25  26
ATOM     26  C   UNL     1       5.410   5.968  17.705  0.00  0.00    +0.000 C 
BRANCH  26  28
ATOM     27  N   UNL     1       7.046   5.413  15.977  0.00  0.00    +0.000 N 
ATOM     28  C   UNL     1       5.888   6.128  16.272  0.00  0.00    +0.000 C 
ATOM     29  O   UNL     1       5.261   6.770  15.429  0.00  0.00    +0.000 OA
ATOM     30  H   UNL     1       7.655   5.146  16.749  0.00  0.00    +0.000 HD
BRANCH  27  32
ATOM     31  C   UNL     1       7.070   4.535  13.788  0.00  0.00    +0.000 C 
ATOM     32  N   UNL     1       7.620   5.541  14.692  0.00  0.00    +0.000 NA
ATOM     33  H   UNL     1       7.366   6.474  14.336  0.00  0.00    +0.000 HD
ENDBRANCH  27  32
ENDBRANCH  26  28
ENDBRANCH  25  26
ENDBRANCH   1  25
TORSDOF 6
ENDMDL
MODEL 3
REMARK VINA RESULT:      -7.3      1.552      1.864
REMARK  Name = 
REMARK  7 active torsions:
REMARK  status: ('A' for Active; 'I' for Inactive)
REMARK    1  A    between atoms: C_1  and  N_2
REMARK    2  A    between atoms: N_2  and  N_3
REMARK    3  A    between atoms: C_4  and  C_6
REMARK    4  A    between atoms: C_6  and  S_7
REMARK    5  A    between atoms: S_7  and  C_8
REMARK    6  A    between atoms: C_13  and  C_14
REMARK    7  A    between atoms: N_24  and  C_25
REMARK                            x       y       z     vdW  Elec       q    Type
REMARK                         _______ _______ _______ _____ _____    ______ ____
ROOT
ATOM      1  C   UNL     1       2.994   6.912  18.360  0.00  0.00    +0.000 A 
ATOM      2  N   UNL     1       3.143   8.072  17.803  0.00  0.00    +0.000 NA
ATOM      3  C   UNL     1       2.393   9.070  18.329  0.00  0.00    +0.000 A 
ATOM      4  S   UNL     1       2.415  10.625  17.638  0.00  0.00    +0.000 S 
ATOM      5  C   UNL     1       1.271  11.207  18.765  0.00  0.00    +0.000 A 
ATOM      6  C   UNL     1       0.878  10.251  19.688  0.00  0.00    +0.000 A 
ATOM      7  C   UNL     1       1.541   8.991  19.409  0.00  0.00    +0.000 A 
ATOM      8  C   UNL     1       1.463   7.703  20.085  0.00  0.00    +0.000 A 
ATOM      9  O   UNL     1       0.858   7.560  21.148  0.00  0.00    +0.000 OA
ATOM     10  N   UNL     1       2.160   6.660  19.455  0.00  0.00    +0.000 N 
ENDROOT
BRANCH   6  11
ATOM     11  C   UNL     1      -0.063  10.596  20.765  0.00  0.00    +0.000 A 
ATOM     12  C   UNL     1       0.076  10.056  22.053  0.00  0.00    +0.000 A 
ATOM     13  C   UNL     1      -0.729  10.492  23.108  0.00  0.00    +0.000 A 
ATOM     14  C   UNL     1      -1.731  11.420  22.867  0.00  0.00    +0.000 A 
ATOM     15  F   UNL     1      -2.498  11.845  23.879  0.00  0.00    +0.000 F 
ATOM     16  C   UNL     1      -1.946  11.912  21.587  0.00  0.00    +0.000 A 
ATOM     17  C   UNL     1      -1.108  11.511  20.542  0.00  0.00    +0.000 A 
ENDBRANCH   6  11
BRANCH  10  18
ATOM     18  C   UNL     1       2.005   5.368  20.038  0.00  0.00    +0.000 A 
ATOM     19  C   UNL     1       1.092   4.462  19.470  0.00  0.00    +0.000 A 
ATOM     20  C   UNL     1       0.904   3.205  20.046  0.00  0.00    +0.000 A 
ATOM     21  C   UNL     1       1.608   2.867  21.194  0.00  0.00    +0.000 A 
ATOM     22  F   UNL     1       1.422   1.663  21.751  0.00  0.00    +0.000 F 
ATOM     23  C   UNL     1       2.497   3.762  21.781  0.00  0.00    +0.000 A 
ATOM     24  C   UNL     1       2.698   5.018  21.204  0.00  0.00    +0.000 A 
ENDBRANCH  10  18
BRANCH   1  25
ATOM     25  S   UNL     1       3.818   5.551  17.600  0.00  0.00    +0.000 S 
BRANCH  25  26
ATOM     26  C   UNL     1       5.540   5.901  18.055  0.00  0.00    +0.000 C 
BRANCH  26  28
ATOM     27  N   UNL     1       6.068   5.815  15.670  0.00  0.00    +0.000 N 
ATOM     28  C   UNL     1       6.480   5.452  16.950  0.00  0.00    +0.000 C 
ATOM     29  O   UNL     1       7.550   4.887  17.176  0.00  0.00    +0.000 OA
ATOM     30  H   UNL     1       5.079   6.016  15.524  0.00  0.00    +0.000 HD
BRANCH  27  32
ATOM     31  C   UNL     1       6.288   4.152  14.012  0.00  0.00    +0.000 C 
ATOM     32  N   UNL     1       6.831   5.392  14.559  0.00  0.00    +0.000 NA
ATOM     33  H   UNL     1       6.755   6.127  13.841  0.00  0.00    +0.000 HD
ENDBRANCH  27  32
ENDBRANCH  26  28
ENDBRANCH  25  26
ENDBRANCH   1  25
TORSDOF 6
ENDMDL
MODEL 4
REMARK VINA RESULT:      -7.3      1.336      1.569
REMARK  Name = 
REMARK  7 active torsions:
REMARK  status: ('A' for Active; 'I' for Inactive)
REMARK    1  A    between atoms: C_1  and  N_2
REMARK    2  A    between atoms: N_2  and  N_3
REMARK    3  A    between atoms: C_4  and  C_6
REMARK    4  A    between atoms: C_6  and  S_7
REMARK    5  A    between atoms: S_7  and  C_8
REMARK    6  A    between atoms: C_13  and  C_14
REMARK    7  A    between atoms: N_24  and  C_25
REMARK                            x       y       z     vdW  Elec       q    Type
REMARK                         _______ _______ _______ _____ _____    ______ ____
ROOT
ATOM      1  C   UNL     1       2.939   6.876  18.381  0.00  0.00    +0.000 A 
ATOM      2  N   UNL     1       3.090   8.032  17.816  0.00  0.00    +0.000 NA
ATOM      3  C   UNL     1       2.350   9.038  18.341  0.00  0.00    +0.000 A 
ATOM      4  S   UNL     1       2.375  10.588  17.640  0.00  0.00    +0.000 S 
ATOM      5  C   UNL     1       1.244  11.184  18.772  0.00  0.00    +0.000 A 
ATOM      6  C   UNL     1       0.852  10.237  19.704  0.00  0.00    +0.000 A 
ATOM      7  C   UNL     1       1.506   8.971  19.428  0.00  0.00    +0.000 A 
ATOM      8  C   UNL     1       1.426   7.688  20.113  0.00  0.00    +0.000 A 
ATOM      9  O   UNL     1       0.828   7.555  21.182  0.00  0.00    +0.000 OA
ATOM     10  N   UNL     1       2.111   6.637  19.485  0.00  0.00    +0.000 N 
ENDROOT
BRANCH   6  11
ATOM     11  C   UNL     1      -0.079  10.594  20.786  0.00  0.00    +0.000 A 
ATOM     12  C   UNL     1       0.097  10.103  22.088  0.00  0.00    +0.000 A 
ATOM     13  C   UNL     1      -0.700  10.554  23.143  0.00  0.00    +0.000 A 
ATOM     14  C   UNL     1      -1.730  11.446  22.889  0.00  0.00    +0.000 A 
ATOM     15  F   UNL     1      -2.490  11.886  23.900  0.00  0.00    +0.000 F 
ATOM     16  C   UNL     1      -1.981  11.889  21.598  0.00  0.00    +0.000 A 
ATOM     17  C   UNL     1      -1.151  11.473  20.551  0.00  0.00    +0.000 A 
ENDBRANCH   6  11
BRANCH  10  18
ATOM     18  C   UNL     1       1.953   5.349  20.077  0.00  0.00    +0.000 A 
ATOM     19  C   UNL     1       1.015   4.453  19.536  0.00  0.00    +0.000 A 
ATOM     20  C   UNL     1       0.825   3.201  20.122  0.00  0.00    +0.000 A 
ATOM     21  C   UNL     1       1.552   2.859  21.255  0.00  0.00    +0.000 A 
ATOM     22  F   UNL     1       1.363   1.660  21.821  0.00  0.00    +0.000 F 
ATOM     23  C   UNL     1       2.466   3.745  21.816  0.00  0.00    +0.000 A 
ATOM     24  C   UNL     1       2.669   4.995  21.228  0.00  0.00    +0.000 A 
ENDBRANCH  10  18
BRANCH   1  25
ATOM     25  S   UNL     1       3.748   5.506  17.624  0.00  0.00    +0.000 S 
BRANCH  25  26
ATOM     26  C   UNL     1       4.923   6.364  16.538  0.00  0.00    +0.000 C 
BRANCH  26  28
ATOM     27  N   UNL     1       6.452   5.075  17.943  0.00  0.00    +0.000 N 
ATOM     28  C   UNL     1       6.350   6.035  16.939  0.00  0.00    +0.000 C 
ATOM     29  O   UNL     1       7.329   6.517  16.370  0.00  0.00    +0.000 OA
ATOM     30  H   UNL     1       5.646   4.929  18.550  0.00  0.00    +0.000 HD
BRANCH  27  32
ATOM     31  C   UNL     1       8.087   5.613  19.555  0.00  0.00    +0.000 C 
ATOM     32  N   UNL     1       7.730   4.738  18.442  0.00  0.00    +0.000 NA
ATOM     33  H   UNL     1       7.675   3.771  18.791  0.00  0.00    +0.000 HD
ENDBRANCH  27  32
ENDBRANCH  26  28
ENDBRANCH  25  26
ENDBRANCH   1  25
TORSDOF 6
ENDMDL
MODEL 5
REMARK VINA RESULT:      -7.3      1.337      2.094
REMARK  Name = 
REMARK  7 active torsions:
REMARK  status: ('A' for Active; 'I' for Inactive)
REMARK    1  A    between atoms: C_1  and  N_2
REMARK    2  A    between atoms: N_2  and  N_3
REMARK    3  A    between atoms: C_4  and  C_6
REMARK    4  A    between atoms: C_6  and  S_7
REMARK    5  A    between atoms: S_7  and  C_8
REMARK    6  A    between atoms: C_13  and  C_14
REMARK    7  A    between atoms: N_24  and  C_25
REMARK                            x       y       z     vdW  Elec       q    Type
REMARK                         _______ _______ _______ _____ _____    ______ ____
ROOT
ATOM      1  C   UNL     1       2.847   6.940  18.472  0.00  0.00    +0.000 A 
ATOM      2  N   UNL     1       3.020   8.086  17.892  0.00  0.00    +0.000 NA
ATOM      3  C   UNL     1       2.314   9.115  18.417  0.00  0.00    +0.000 A 
ATOM      4  S   UNL     1       2.368  10.657  17.699  0.00  0.00    +0.000 S 
ATOM      5  C   UNL     1       1.269  11.293  18.841  0.00  0.00    +0.000 A 
ATOM      6  C   UNL     1       0.868  10.366  19.789  0.00  0.00    +0.000 A 
ATOM      7  C   UNL     1       1.485   9.081  19.517  0.00  0.00    +0.000 A 
ATOM      8  C   UNL     1       1.382   7.808  20.217  0.00  0.00    +0.000 A 
ATOM      9  O   UNL     1       0.797   7.701  21.296  0.00  0.00    +0.000 OA
ATOM     10  N   UNL     1       2.031   6.733  19.590  0.00  0.00    +0.000 N 
ENDROOT
BRANCH   6  11
ATOM     11  C   UNL     1      -0.037  10.759  20.881  0.00  0.00    +0.000 A 
ATOM     12  C   UNL     1      -1.076  11.677  20.668  0.00  0.00    +0.000 A 
ATOM     13  C   UNL     1      -2.020  11.940  21.664  0.00  0.00    +0.000 A 
ATOM     14  C   UNL     1      -1.887  11.343  22.909  0.00  0.00    +0.000 A 
ATOM     15  F   UNL     1      -2.795  11.589  23.861  0.00  0.00    +0.000 F 
ATOM     16  C   UNL     1      -0.824  10.493  23.175  0.00  0.00    +0.000 A 
ATOM     17  C   UNL     1       0.093  10.192  22.162  0.00  0.00    +0.000 A 
ENDBRANCH   6  11
BRANCH  10  18
ATOM     18  C   UNL     1       1.849   5.456  20.199  0.00  0.00    +0.000 A 
ATOM     19  C   UNL     1       2.665   5.088  21.283  0.00  0.00    +0.000 A 
ATOM     20  C   UNL     1       2.523   3.831  21.870  0.00  0.00    +0.000 A 
ATOM     21  C   UNL     1       1.588   2.940  21.360  0.00  0.00    +0.000 A 
ATOM     22  F   UNL     1       1.457   1.730  21.919  0.00  0.00    +0.000 F 
ATOM     23  C   UNL     1       0.791   3.281  20.272  0.00  0.00    +0.000 A 
ATOM     24  C   UNL     1       0.919   4.542  19.687  0.00  0.00    +0.000 A 
ENDBRANCH  10  18
BRANCH   1  25
ATOM     25  S   UNL     1       3.610   5.541  17.718  0.00  0.00    +0.000 S 
BRANCH  25  26
ATOM     26  C   UNL     1       5.140   5.424  18.689  0.00  0.00    +0.000 C 
BRANCH  26  28
ATOM     27  N   UNL     1       6.294   5.785  16.565  0.00  0.00    +0.000 N 
ATOM     28  C   UNL     1       6.318   5.111  17.784  0.00  0.00    +0.000 C 
ATOM     29  O   UNL     1       7.251   4.387  18.132  0.00  0.00    +0.000 OA
ATOM     30  H   UNL     1       5.396   6.130  16.226  0.00  0.00    +0.000 HD
BRANCH  27  32
ATOM     31  C   UNL     1       6.777   4.706  14.525  0.00  0.00    +0.000 C 
ATOM     32  N   UNL     1       7.306   5.520  15.615  0.00  0.00    +0.000 NA
ATOM     33  H   UNL     1       7.606   6.427  15.231  0.00  0.00    +0.000 HD
ENDBRANCH  27  32
ENDBRANCH  26  28
ENDBRANCH  25  26
ENDBRANCH   1  25
TORSDOF 6
ENDMDL
MODEL 6
REMARK VINA RESULT:      -7.3      1.787      2.291
REMARK  Name = 
REMARK  7 active torsions:
REMARK  status: ('A' for Active; 'I' for Inactive)
REMARK    1  A    between atoms: C_1  and  N_2
REMARK    2  A    between atoms: N_2  and  N_3
REMARK    3  A    between atoms: C_4  and  C_6
REMARK    4  A    between atoms: C_6  and  S_7
REMARK    5  A    between atoms: S_7  and  C_8
REMARK    6  A    between atoms: C_13  and  C_14
REMARK    7  A    between atoms: N_24  and  C_25
REMARK                            x       y       z     vdW  Elec       q    Type
REMARK                         _______ _______ _______ _____ _____    ______ ____
ROOT
ATOM      1  C   UNL     1       2.860   6.767  18.420  0.00  0.00    +0.000 A 
ATOM      2  N   UNL     1       3.014   7.906  17.821  0.00  0.00    +0.000 NA
ATOM      3  C   UNL     1       2.326   8.942  18.356  0.00  0.00    +0.000 A 
ATOM      4  S   UNL     1       2.358  10.475  17.618  0.00  0.00    +0.000 S 
ATOM      5  C   UNL     1       1.296  11.126  18.787  0.00  0.00    +0.000 A 
ATOM      6  C   UNL     1       0.925  10.211  19.758  0.00  0.00    +0.000 A 
ATOM      7  C   UNL     1       1.533   8.922  19.482  0.00  0.00    +0.000 A 
ATOM      8  C   UNL     1       1.452   7.658  20.201  0.00  0.00    +0.000 A 
ATOM      9  O   UNL     1       0.901   7.565  21.299  0.00  0.00    +0.000 OA
ATOM     10  N   UNL     1       2.080   6.575  19.566  0.00  0.00    +0.000 N 
ENDROOT
BRANCH   6  11
ATOM     11  C   UNL     1       0.055  10.618  20.874  0.00  0.00    +0.000 A 
ATOM     12  C   UNL     1      -0.942  11.589  20.700  0.00  0.00    +0.000 A 
ATOM     13  C   UNL     1      -1.857  11.871  21.717  0.00  0.00    +0.000 A 
ATOM     14  C   UNL     1      -1.736  11.236  22.943  0.00  0.00    +0.000 A 
ATOM     15  F   UNL     1      -2.617  11.499  23.916  0.00  0.00    +0.000 F 
ATOM     16  C   UNL     1      -0.710  10.330  23.172  0.00  0.00    +0.000 A 
ATOM     17  C   UNL     1       0.177  10.013  22.137  0.00  0.00    +0.000 A 
ENDBRANCH   6  11
BRANCH  10  18
ATOM     18  C   UNL     1       1.917   5.305  20.196  0.00  0.00    +0.000 A 
ATOM     19  C   UNL     1       0.889   4.450  19.764  0.00  0.00    +0.000 A 
ATOM     20  C   UNL     1       0.695   3.218  20.389  0.00  0.00    +0.000 A 
ATOM     21  C   UNL     1       1.510   2.856  21.454  0.00  0.00    +0.000 A 
ATOM     22  F   UNL     1       1.318   1.677  22.059  0.00  0.00    +0.000 F 
ATOM     23  C   UNL     1       2.516   3.703  21.908  0.00  0.00    +0.000 A 
ATOM     24  C   UNL     1       2.723   4.932  21.280  0.00  0.00    +0.000 A 
ENDBRANCH  10  18
BRANCH   1  25
ATOM     25  S   UNL     1       3.598   5.359  17.659  0.00  0.00    +0.000 S 
BRANCH  25  26
ATOM     26  C   UNL     1       5.351   5.832  17.699  0.00  0.00    +0.000 C 
BRANCH  26  28
ATOM     27  N   UNL     1       6.964   5.238  15.962  0.00  0.00    +0.000 N 
ATOM     28  C   UNL     1       5.874   6.040  16.289  0.00  0.00    +0.000 C 
ATOM     29  O   UNL     1       5.330   6.794  15.482  0.00  0.00    +0.000 OA
ATOM     30  H   UNL     1       7.528   4.861  16.724  0.00  0.00    +0.000 HD
BRANCH  27  32
ATOM     31  C   UNL     1       6.993   4.466  13.734  0.00  0.00    +0.000 C 
ATOM     32  N   UNL     1       7.576   5.394  14.698  0.00  0.00    +0.000 NA
ATOM     33  H   UNL     1       7.383   6.356  14.384  0.00  0.00    +0.000 HD
ENDBRANCH  27  32
ENDBRANCH  26  28
ENDBRANCH  25  26
ENDBRANCH   1  25
TORSDOF 6
ENDMDL
MODEL 7
REMARK VINA RESULT:      -7.3      1.363      1.980
REMARK  Name = 
REMARK  7 active torsions:
REMARK  status: ('A' for Active; 'I' for Inactive)
REMARK    1  A    between atoms: C_1  and  N_2
REMARK    2  A    between atoms: N_2  and  N_3
REMARK    3  A    between atoms: C_4  and  C_6
REMARK    4  A    between atoms: C_6  and  S_7
REMARK    5  A    between atoms: S_7  and  C_8
REMARK    6  A    between atoms: C_13  and  C_14
REMARK    7  A    between atoms: N_24  and  C_25
REMARK                            x       y       z     vdW  Elec       q    Type
REMARK                         _______ _______ _______ _____ _____    ______ ____
ROOT
ATOM      1  C   UNL     1       2.985   6.664  18.432  0.00  0.00    +0.000 A 
ATOM      2  N   UNL     1       3.149   7.806  17.843  0.00  0.00    +0.000 NA
ATOM      3  C   UNL     1       2.416   8.829  18.346  0.00  0.00    +0.000 A 
ATOM      4  S   UNL     1       2.457  10.364  17.613  0.00  0.00    +0.000 S 
ATOM      5  C   UNL     1       1.328  10.993  18.730  0.00  0.00    +0.000 A 
ATOM      6  C   UNL     1       0.925  10.068  19.679  0.00  0.00    +0.000 A 
ATOM      7  C   UNL     1       1.568   8.792  19.431  0.00  0.00    +0.000 A 
ATOM      8  C   UNL     1       1.474   7.524  20.142  0.00  0.00    +0.000 A 
ATOM      9  O   UNL     1       0.872   7.417  21.211  0.00  0.00    +0.000 OA
ATOM     10  N   UNL     1       2.152   6.454  19.537  0.00  0.00    +0.000 N 
ENDROOT
BRANCH   6  11
ATOM     11  C   UNL     1      -0.006  10.456  20.751  0.00  0.00    +0.000 A 
ATOM     12  C   UNL     1       0.122   9.936  22.048  0.00  0.00    +0.000 A 
ATOM     13  C   UNL     1      -0.670  10.412  23.096  0.00  0.00    +0.000 A 
ATOM     14  C   UNL     1      -1.650  11.359  22.839  0.00  0.00    +0.000 A 
ATOM     15  F   UNL     1      -2.404  11.821  23.844  0.00  0.00    +0.000 F 
ATOM     16  C   UNL     1      -1.855  11.832  21.551  0.00  0.00    +0.000 A 
ATOM     17  C   UNL     1      -1.028  11.391  20.512  0.00  0.00    +0.000 A 
ENDBRANCH   6  11
BRANCH  10  18
ATOM     18  C   UNL     1       1.981   5.179  20.155  0.00  0.00    +0.000 A 
ATOM     19  C   UNL     1       1.062   4.268  19.607  0.00  0.00    +0.000 A 
ATOM     20  C   UNL     1       0.858   3.029  20.217  0.00  0.00    +0.000 A 
ATOM     21  C   UNL     1       1.553   2.716  21.378  0.00  0.00    +0.000 A 
ATOM     22  F   UNL     1       1.351   1.531  21.967  0.00  0.00    +0.000 F 
ATOM     23  C   UNL     1       2.447   3.619  21.945  0.00  0.00    +0.000 A 
ATOM     24  C   UNL     1       2.664   4.855  21.334  0.00  0.00    +0.000 A 
ENDBRANCH  10  18
BRANCH   1  25
ATOM     25  S   UNL     1       3.785   5.270  17.705  0.00  0.00    +0.000 S 
BRANCH  25  26
ATOM     26  C   UNL     1       5.139   5.005  18.884  0.00  0.00    +0.000 C 
BRANCH  26  28
ATOM     27  N   UNL     1       6.329   6.706  17.595  0.00  0.00    +0.000 N 
ATOM     28  C   UNL     1       6.449   5.516  18.309  0.00  0.00    +0.000 C 
ATOM     29  O   UNL     1       7.529   4.968  18.524  0.00  0.00    +0.000 OA
ATOM     30  H   UNL     1       5.413   6.951  17.220  0.00  0.00    +0.000 HD
BRANCH  27  32
ATOM     31  C   UNL     1       7.964   8.404  17.691  0.00  0.00    +0.000 C 
ATOM     32  N   UNL     1       7.472   7.241  16.958  0.00  0.00    +0.000 NA
ATOM     33  H   UNL     1       8.199   6.511  16.977  0.00  0.00    +0.000 HD
ENDBRANCH  27  32
ENDBRANCH  26  28
ENDBRANCH  25  26
ENDBRANCH   1  25
TORSDOF 6
ENDMDL
MODEL 8
REMARK VINA RESULT:      -7.1      1.641      2.488
REMARK  Name = 
REMARK  7 active torsions:
REMARK  status: ('A' for Active; 'I' for Inactive)
REMARK    1  A    between atoms: C_1  and  N_2
REMARK    2  A    between atoms: N_2  and  N_3
REMARK    3  A    between atoms: C_4  and  C_6
REMARK    4  A    between atoms: C_6  and  S_7
REMARK    5  A    between atoms: S_7  and  C_8
REMARK    6  A    between atoms: C_13  and  C_14
REMARK    7  A    between atoms: N_24  and  C_25
REMARK                            x       y       z     vdW  Elec       q    Type
REMARK                         _______ _______ _______ _____ _____    ______ ____
ROOT
ATOM      1  C   UNL     1       2.851   6.807  18.443  0.00  0.00    +0.000 A 
ATOM      2  N   UNL     1       3.011   7.953  17.859  0.00  0.00    +0.000 NA
ATOM      3  C   UNL     1       2.283   8.973  18.371  0.00  0.00    +0.000 A 
ATOM      4  S   UNL     1       2.320  10.512  17.647  0.00  0.00    +0.000 S 
ATOM      5  C   UNL     1       1.198  11.136  18.774  0.00  0.00    +0.000 A 
ATOM      6  C   UNL     1       0.801  10.207  19.721  0.00  0.00    +0.000 A 
ATOM      7  C   UNL     1       1.442   8.931  19.462  0.00  0.00    +0.000 A 
ATOM      8  C   UNL     1       1.352   7.659  20.167  0.00  0.00    +0.000 A 
ATOM      9  O   UNL     1       0.756   7.548  21.240  0.00  0.00    +0.000 OA
ATOM     10  N   UNL     1       2.025   6.592  19.552  0.00  0.00    +0.000 N 
ENDROOT
BRANCH   6  11
ATOM     11  C   UNL     1      -0.122  10.590  20.801  0.00  0.00    +0.000 A 
ATOM     12  C   UNL     1       0.019  10.069  22.096  0.00  0.00    +0.000 A 
ATOM     13  C   UNL     1      -0.767  10.540  23.151  0.00  0.00    +0.000 A 
ATOM     14  C   UNL     1      -1.752  11.484  22.904  0.00  0.00    +0.000 A 
ATOM     15  F   UNL     1      -2.500  11.942  23.915  0.00  0.00    +0.000 F 
ATOM     16  C   UNL     1      -1.970  11.958  21.618  0.00  0.00    +0.000 A 
ATOM     17  C   UNL     1      -1.150  11.521  20.571  0.00  0.00    +0.000 A 
ENDBRANCH   6  11
BRANCH  10  18
ATOM     18  C   UNL     1       1.857   5.315  20.165  0.00  0.00    +0.000 A 
ATOM     19  C   UNL     1       2.664   4.967  21.262  0.00  0.00    +0.000 A 
ATOM     20  C   UNL     1       2.535   3.710  21.854  0.00  0.00    +0.000 A 
ATOM     21  C   UNL     1       1.622   2.800  21.335  0.00  0.00    +0.000 A 
ATOM     22  F   UNL     1       1.505   1.591  21.899  0.00  0.00    +0.000 F 
ATOM     23  C   UNL     1       0.835   3.122  20.235  0.00  0.00    +0.000 A 
ATOM     24  C   UNL     1       0.950   4.383  19.645  0.00  0.00    +0.000 A 
ENDBRANCH  10  18
BRANCH   1  25
ATOM     25  S   UNL     1       3.644   5.417  17.704  0.00  0.00    +0.000 S 
BRANCH  25  26
ATOM     26  C   UNL     1       5.346   5.646  18.294  0.00  0.00    +0.000 C 
BRANCH  26  28
ATOM     27  N   UNL     1       7.226   7.170  17.954  0.00  0.00    +0.000 N 
ATOM     28  C   UNL     1       6.103   6.587  17.373  0.00  0.00    +0.000 C 
ATOM     29  O   UNL     1       5.793   6.756  16.194  0.00  0.00    +0.000 OA
ATOM     30  H   UNL     1       7.269   7.219  18.972  0.00  0.00    +0.000 HD
BRANCH  27  32
ATOM     31  C   UNL     1       8.284   9.276  18.038  0.00  0.00    +0.000 C 
ATOM     32  N   UNL     1       7.969   8.115  17.212  0.00  0.00    +0.000 NA
ATOM     33  H   UNL     1       8.852   7.659  16.937  0.00  0.00    +0.000 HD
ENDBRANCH  27  32
ENDBRANCH  26  28
ENDBRANCH  25  26
ENDBRANCH   1  25
TORSDOF 6
ENDMDL
MODEL 9
REMARK VINA RESULT:      -7.1      5.197      8.033
REMARK  Name = 
REMARK  7 active torsions:
REMARK  status: ('A' for Active; 'I' for Inactive)
REMARK    1  A    between atoms: C_1  and  N_2
REMARK    2  A    between atoms: N_2  and  N_3
REMARK    3  A    between atoms: C_4  and  C_6
REMARK    4  A    between atoms: C_6  and  S_7
REMARK    5  A    between atoms: S_7  and  C_8
REMARK    6  A    between atoms: C_13  and  C_14
REMARK    7  A    between atoms: N_24  and  C_25
REMARK                            x       y       z     vdW  Elec       q    Type
REMARK                         _______ _______ _______ _____ _____    ______ ____
ROOT
ATOM      1  C   UNL     1      -0.571  11.867  18.651  0.00  0.00    +0.000 A 
ATOM      2  N   UNL     1      -0.985  13.092  18.568  0.00  0.00    +0.000 NA
ATOM      3  C   UNL     1      -0.022  14.039  18.667  0.00  0.00    +0.000 A 
ATOM      4  S   UNL     1      -0.430  15.691  18.671  0.00  0.00    +0.000 S 
ATOM      5  C   UNL     1       1.203  16.155  18.858  0.00  0.00    +0.000 A 
ATOM      6  C   UNL     1       2.076  15.080  18.894  0.00  0.00    +0.000 A 
ATOM      7  C   UNL     1       1.336  13.837  18.792  0.00  0.00    +0.000 A 
ATOM      8  C   UNL     1       1.793  12.454  18.782  0.00  0.00    +0.000 A 
ATOM      9  O   UNL     1       2.988  12.162  18.731  0.00  0.00    +0.000 OA
ATOM     10  N   UNL     1       0.770  11.492  18.793  0.00  0.00    +0.000 N 
ENDROOT
BRANCH   6  11
ATOM     11  C   UNL     1       3.528  15.301  18.998  0.00  0.00    +0.000 A 
ATOM     12  C   UNL     1       4.132  15.594  20.230  0.00  0.00    +0.000 A 
ATOM     13  C   UNL     1       5.522  15.662  20.353  0.00  0.00    +0.000 A 
ATOM     14  C   UNL     1       6.317  15.511  19.227  0.00  0.00    +0.000 A 
ATOM     15  F   UNL     1       7.649  15.568  19.345  0.00  0.00    +0.000 F 
ATOM     16  C   UNL     1       5.745  15.302  17.980  0.00  0.00    +0.000 A 
ATOM     17  C   UNL     1       4.356  15.186  17.867  0.00  0.00    +0.000 A 
ENDBRANCH   6  11
BRANCH  10  18
ATOM     18  C   UNL     1       1.195  10.134  18.896  0.00  0.00    +0.000 A 
ATOM     19  C   UNL     1       1.174   9.501  20.150  0.00  0.00    +0.000 A 
ATOM     20  C   UNL     1       1.615   8.183  20.276  0.00  0.00    +0.000 A 
ATOM     21  C   UNL     1       2.096   7.514  19.158  0.00  0.00    +0.000 A 
ATOM     22  F   UNL     1       2.526   6.252  19.280  0.00  0.00    +0.000 F 
ATOM     23  C   UNL     1       2.145   8.137  17.915  0.00  0.00    +0.000 A 
ATOM     24  C   UNL     1       1.695   9.451  17.780  0.00  0.00    +0.000 A 
ENDBRANCH  10  18
BRANCH   1  25
ATOM     25  S   UNL     1      -1.805  10.610  18.701  0.00  0.00    +0.000 S 
BRANCH  25  26
ATOM     26  C   UNL     1      -1.996  10.252  16.931  0.00  0.00    +0.000 C 
BRANCH  26  28
ATOM     27  N   UNL     1      -3.811  11.863  17.218  0.00  0.00    +0.000 N 
ATOM     28  C   UNL     1      -3.282  10.864  16.404  0.00  0.00    +0.000 C 
ATOM     29  O   UNL     1      -3.768  10.557  15.315  0.00  0.00    +0.000 OA
ATOM     30  H   UNL     1      -3.541  11.874  18.201  0.00  0.00    +0.000 HD
BRANCH  27  32
ATOM     31  C   UNL     1      -6.116  11.952  17.711  0.00  0.00    +0.000 C 
ATOM     32  N   UNL     1      -5.043  12.457  16.860  0.00  0.00    +0.000 NA
ATOM     33  H   UNL     1      -4.948  13.470  17.018  0.00  0.00    +0.000 HD
ENDBRANCH  27  32
ENDBRANCH  26  28
ENDBRANCH  25  26
ENDBRANCH   1  25
TORSDOF 6
ENDMDL
