MODEL 1
REMARK VINA RESULT:      -7.9      0.000      0.000
REMARK  Name = 
REMARK  7 active torsions:
REMARK  status: ('A' for Active; 'I' for Inactive)
REMARK    1  A    between atoms: C_1  and  O_2
REMARK    2  A    between atoms: O_2  and  C_3
REMARK    3  A    between atoms: C_6  and  C_7
REMARK    4  A    between atoms: C_10  and  C_11
REMARK    5  A    between atoms: N_12  and  C_13
REMARK    6  A    between atoms: C_16  and  C_17
REMARK    7  A    between atoms: C_17  and  C_18
REMARK                            x       y       z     vdW  Elec       q    Type
REMARK                         _______ _______ _______ _____ _____    ______ ____
ROOT
ATOM      1  C   UNL     1       4.312   3.424  17.249  0.00  0.00    +0.000 C 
ATOM      2  C   UNL     1       3.440   4.133  17.973  0.00  0.00    +0.000 C 
ATOM      3  N   UNL     1       2.550   3.577  18.873  0.00  0.00    +0.000 NA
ATOM      4  C   UNL     1       1.984   4.599  19.448  0.00  0.00    +0.000 C 
ATOM      5  C   UNL     1       0.897   4.436  20.461  0.00  0.00    +0.000 C 
ATOM      6  N   UNL     1       2.393   5.813  19.008  0.00  0.00    +0.000 N 
ATOM      7  C   UNL     1       3.306   5.621  18.001  0.00  0.00    +0.000 C 
ATOM      8  O   UNL     1       3.877   6.442  17.307  0.00  0.00    +0.000 OA
ENDROOT
BRANCH   1  12
ATOM      9  C   UNL     1       7.335   5.079  14.726  0.00  0.00    +0.000 A 
ATOM     10  C   UNL     1       6.156   4.569  14.182  0.00  0.00    +0.000 A 
ATOM     11  C   UNL     1       5.167   4.035  15.011  0.00  0.00    +0.000 A 
ATOM     12  C   UNL     1       5.358   3.989  16.396  0.00  0.00    +0.000 A 
ATOM     13  C   UNL     1       6.551   4.473  16.938  0.00  0.00    +0.000 A 
ATOM     14  C   UNL     1       7.538   5.016  16.105  0.00  0.00    +0.000 A 
BRANCH   9  16
ATOM     15  C   UNL     1       7.863   5.425  12.451  0.00  0.00    +0.000 C 
ATOM     16  O   UNL     1       8.229   5.577  13.818  0.00  0.00    +0.000 OA
ENDBRANCH   9  16
ENDBRANCH   1  12
BRANCH   6  17
ATOM     17  C   UNL     1       2.024   7.085  19.462  0.00  0.00    +0.000 A 
ATOM     18  C   UNL     1       1.718   7.270  20.813  0.00  0.00    +0.000 A 
ATOM     19  C   UNL     1       1.240   8.499  21.278  0.00  0.00    +0.000 A 
ATOM     20  C   UNL     1       1.014   9.550  20.384  0.00  0.00    +0.000 A 
ATOM     21  C   UNL     1       1.318   9.357  19.024  0.00  0.00    +0.000 A 
ATOM     22  C   UNL     1       1.839   8.140  18.567  0.00  0.00    +0.000 A 
BRANCH  20  23
ATOM     23  C   UNL     1       0.440  10.870  20.794  0.00  0.00    +0.000 C 
ATOM     24  C   UNL     1      -0.167  11.811  19.782  0.00  0.00    +0.000 C 
ATOM     25  O   UNL     1       0.459  11.184  21.985  0.00  0.00    +0.000 OA
ENDBRANCH  20  23
ENDBRANCH   6  17
TORSDOF 4
ENDMDL
MODEL 2
REMARK VINA RESULT:      -7.8      1.691      8.038
REMARK  Name = 
REMARK  7 active torsions:
REMARK  status: ('A' for Active; 'I' for Inactive)
REMARK    1  A    between atoms: C_1  and  O_2
REMARK    2  A    between atoms: O_2  and  C_3
REMARK    3  A    between atoms: C_6  and  C_7
REMARK    4  A    between atoms: C_10  and  C_11
REMARK    5  A    between atoms: N_12  and  C_13
REMARK    6  A    between atoms: C_16  and  C_17
REMARK    7  A    between atoms: C_17  and  C_18
REMARK                            x       y       z     vdW  Elec       q    Type
REMARK                         _______ _______ _______ _____ _____    ______ ____
ROOT
ATOM      1  C   UNL     1       0.650   8.482  20.834  0.00  0.00    +0.000 C 
ATOM      2  C   UNL     1       1.493   7.573  20.331  0.00  0.00    +0.000 C 
ATOM      3  N   UNL     1       1.671   6.309  20.859  0.00  0.00    +0.000 NA
ATOM      4  C   UNL     1       2.464   5.711  20.016  0.00  0.00    +0.000 C 
ATOM      5  C   UNL     1       2.962   4.320  20.248  0.00  0.00    +0.000 C 
ATOM      6  N   UNL     1       2.864   6.461  18.962  0.00  0.00    +0.000 N 
ATOM      7  C   UNL     1       2.331   7.718  19.101  0.00  0.00    +0.000 C 
ATOM      8  O   UNL     1       2.481   8.704  18.404  0.00  0.00    +0.000 OA
ENDROOT
BRANCH   1  12
ATOM      9  C   UNL     1      -0.302  12.235  19.031  0.00  0.00    +0.000 A 
ATOM     10  C   UNL     1      -0.928  11.064  18.606  0.00  0.00    +0.000 A 
ATOM     11  C   UNL     1      -0.619   9.839  19.203  0.00  0.00    +0.000 A 
ATOM     12  C   UNL     1       0.337   9.773  20.221  0.00  0.00    +0.000 A 
ATOM     13  C   UNL     1       0.985  10.942  20.627  0.00  0.00    +0.000 A 
ATOM     14  C   UNL     1       0.668  12.170  20.033  0.00  0.00    +0.000 A 
BRANCH   9  16
ATOM     15  C   UNL     1      -0.005  14.563  18.762  0.00  0.00    +0.000 C 
ATOM     16  O   UNL     1      -0.685  13.374  18.375  0.00  0.00    +0.000 OA
ENDBRANCH   9  16
ENDBRANCH   1  12
BRANCH   6  17
ATOM     17  C   UNL     1       3.657   6.093  17.868  0.00  0.00    +0.000 A 
ATOM     18  C   UNL     1       3.596   4.782  17.386  0.00  0.00    +0.000 A 
ATOM     19  C   UNL     1       4.453   4.352  16.369  0.00  0.00    +0.000 A 
ATOM     20  C   UNL     1       5.422   5.217  15.852  0.00  0.00    +0.000 A 
ATOM     21  C   UNL     1       5.483   6.533  16.345  0.00  0.00    +0.000 A 
ATOM     22  C   UNL     1       4.594   6.977  17.332  0.00  0.00    +0.000 A 
BRANCH  20  23
ATOM     23  C   UNL     1       6.419   4.810  14.812  0.00  0.00    +0.000 C 
ATOM     24  C   UNL     1       6.047   3.861  13.699  0.00  0.00    +0.000 C 
ATOM     25  O   UNL     1       7.560   5.268  14.869  0.00  0.00    +0.000 OA
ENDBRANCH  20  23
ENDBRANCH   6  17
TORSDOF 4
ENDMDL
MODEL 3
REMARK VINA RESULT:      -7.7      1.609      8.039
REMARK  Name = 
REMARK  7 active torsions:
REMARK  status: ('A' for Active; 'I' for Inactive)
REMARK    1  A    between atoms: C_1  and  O_2
REMARK    2  A    between atoms: O_2  and  C_3
REMARK    3  A    between atoms: C_6  and  C_7
REMARK    4  A    between atoms: C_10  and  C_11
REMARK    5  A    between atoms: N_12  and  C_13
REMARK    6  A    between atoms: C_16  and  C_17
REMARK    7  A    between atoms: C_17  and  C_18
REMARK                            x       y       z     vdW  Elec       q    Type
REMARK                         _______ _______ _______ _____ _____    ______ ____
ROOT
ATOM      1  C   UNL     1       0.689   8.298  20.992  0.00  0.00    +0.000 C 
ATOM      2  C   UNL     1       1.517   7.401  20.446  0.00  0.00    +0.000 C 
ATOM      3  N   UNL     1       1.692   6.118  20.927  0.00  0.00    +0.000 NA
ATOM      4  C   UNL     1       2.469   5.544  20.053  0.00  0.00    +0.000 C 
ATOM      5  C   UNL     1       2.960   4.142  20.230  0.00  0.00    +0.000 C 
ATOM      6  N   UNL     1       2.861   6.327  19.021  0.00  0.00    +0.000 N 
ATOM      7  C   UNL     1       2.339   7.583  19.211  0.00  0.00    +0.000 C 
ATOM      8  O   UNL     1       2.488   8.591  18.547  0.00  0.00    +0.000 OA
ENDROOT
BRANCH   1  12
ATOM      9  C   UNL     1      -0.184  12.149  19.364  0.00  0.00    +0.000 A 
ATOM     10  C   UNL     1       0.743  12.008  20.397  0.00  0.00    +0.000 A 
ATOM     11  C   UNL     1       1.031  10.746  20.921  0.00  0.00    +0.000 A 
ATOM     12  C   UNL     1       0.377   9.612  20.429  0.00  0.00    +0.000 A 
ATOM     13  C   UNL     1      -0.573   9.757  19.415  0.00  0.00    +0.000 A 
ATOM     14  C   UNL     1      -0.854  11.023  18.884  0.00  0.00    +0.000 A 
BRANCH   9  16
ATOM     15  C   UNL     1       0.794  14.220  18.787  0.00  0.00    +0.000 C 
ATOM     16  O   UNL     1      -0.383  13.432  18.930  0.00  0.00    +0.000 OA
ENDBRANCH   9  16
ENDBRANCH   1  12
BRANCH   6  17
ATOM     17  C   UNL     1       3.636   5.992  17.904  0.00  0.00    +0.000 A 
ATOM     18  C   UNL     1       3.627   4.676  17.432  0.00  0.00    +0.000 A 
ATOM     19  C   UNL     1       4.472   4.282  16.390  0.00  0.00    +0.000 A 
ATOM     20  C   UNL     1       5.377   5.193  15.836  0.00  0.00    +0.000 A 
ATOM     21  C   UNL     1       5.387   6.514  16.319  0.00  0.00    +0.000 A 
ATOM     22  C   UNL     1       4.508   6.919  17.331  0.00  0.00    +0.000 A 
BRANCH  20  23
ATOM     23  C   UNL     1       6.360   4.828  14.767  0.00  0.00    +0.000 C 
ATOM     24  C   UNL     1       5.995   3.870  13.660  0.00  0.00    +0.000 C 
ATOM     25  O   UNL     1       7.483   5.332  14.794  0.00  0.00    +0.000 OA
ENDBRANCH  20  23
ENDBRANCH   6  17
TORSDOF 4
ENDMDL
MODEL 4
REMARK VINA RESULT:      -7.6      0.326      1.016
REMARK  Name = 
REMARK  7 active torsions:
REMARK  status: ('A' for Active; 'I' for Inactive)
REMARK    1  A    between atoms: C_1  and  O_2
REMARK    2  A    between atoms: O_2  and  C_3
REMARK    3  A    between atoms: C_6  and  C_7
REMARK    4  A    between atoms: C_10  and  C_11
REMARK    5  A    between atoms: N_12  and  C_13
REMARK    6  A    between atoms: C_16  and  C_17
REMARK    7  A    between atoms: C_17  and  C_18
REMARK                            x       y       z     vdW  Elec       q    Type
REMARK                         _______ _______ _______ _____ _____    ______ ____
ROOT
ATOM      1  C   UNL     1       4.438   3.410  17.347  0.00  0.00    +0.000 C 
ATOM      2  C   UNL     1       3.512   4.111  18.011  0.00  0.00    +0.000 C 
ATOM      3  N   UNL     1       2.657   3.566  18.950  0.00  0.00    +0.000 NA
ATOM      4  C   UNL     1       2.016   4.587  19.441  0.00  0.00    +0.000 C 
ATOM      5  C   UNL     1       0.935   4.428  20.462  0.00  0.00    +0.000 C 
ATOM      6  N   UNL     1       2.341   5.789  18.907  0.00  0.00    +0.000 N 
ATOM      7  C   UNL     1       3.273   5.583  17.920  0.00  0.00    +0.000 C 
ATOM      8  O   UNL     1       3.790   6.385  17.164  0.00  0.00    +0.000 OA
ENDROOT
BRANCH   1  12
ATOM      9  C   UNL     1       7.354   5.073  14.706  0.00  0.00    +0.000 A 
ATOM     10  C   UNL     1       6.200   4.472  14.203  0.00  0.00    +0.000 A 
ATOM     11  C   UNL     1       5.245   3.936  15.070  0.00  0.00    +0.000 A 
ATOM     12  C   UNL     1       5.447   3.979  16.453  0.00  0.00    +0.000 A 
ATOM     13  C   UNL     1       6.617   4.554  16.956  0.00  0.00    +0.000 A 
ATOM     14  C   UNL     1       7.569   5.099  16.085  0.00  0.00    +0.000 A 
BRANCH   9  16
ATOM     15  C   UNL     1       7.786   5.431  12.412  0.00  0.00    +0.000 C 
ATOM     16  O   UNL     1       8.216   5.564  13.763  0.00  0.00    +0.000 OA
ENDBRANCH   9  16
ENDBRANCH   1  12
BRANCH   6  17
ATOM     17  C   UNL     1       1.880   7.063  19.257  0.00  0.00    +0.000 A 
ATOM     18  C   UNL     1       1.778   8.051  18.274  0.00  0.00    +0.000 A 
ATOM     19  C   UNL     1       1.428   9.363  18.609  0.00  0.00    +0.000 A 
ATOM     20  C   UNL     1       1.222   9.716  19.945  0.00  0.00    +0.000 A 
ATOM     21  C   UNL     1       1.332   8.720  20.932  0.00  0.00    +0.000 A 
ATOM     22  C   UNL     1       1.638   7.397  20.591  0.00  0.00    +0.000 A 
BRANCH  20  23
ATOM     23  C   UNL     1       0.913  11.112  20.389  0.00  0.00    +0.000 C 
ATOM     24  C   UNL     1       0.386  12.144  19.421  0.00  0.00    +0.000 C 
ATOM     25  O   UNL     1       1.085  11.415  21.569  0.00  0.00    +0.000 OA
ENDBRANCH  20  23
ENDBRANCH   6  17
TORSDOF 4
ENDMDL
MODEL 5
REMARK VINA RESULT:      -7.5      1.748      7.801
REMARK  Name = 
REMARK  7 active torsions:
REMARK  status: ('A' for Active; 'I' for Inactive)
REMARK    1  A    between atoms: C_1  and  O_2
REMARK    2  A    between atoms: O_2  and  C_3
REMARK    3  A    between atoms: C_6  and  C_7
REMARK    4  A    between atoms: C_10  and  C_11
REMARK    5  A    between atoms: N_12  and  C_13
REMARK    6  A    between atoms: C_16  and  C_17
REMARK    7  A    between atoms: C_17  and  C_18
REMARK                            x       y       z     vdW  Elec       q    Type
REMARK                         _______ _______ _______ _____ _____    ______ ____
ROOT
ATOM      1  C   UNL     1       0.436   8.375  21.002  0.00  0.00    +0.000 C 
ATOM      2  C   UNL     1       1.246   7.352  20.708  0.00  0.00    +0.000 C 
ATOM      3  N   UNL     1       1.147   6.099  21.282  0.00  0.00    +0.000 NA
ATOM      4  C   UNL     1       2.020   5.376  20.642  0.00  0.00    +0.000 C 
ATOM      5  C   UNL     1       2.279   3.947  20.998  0.00  0.00    +0.000 C 
ATOM      6  N   UNL     1       2.727   6.027  19.688  0.00  0.00    +0.000 N 
ATOM      7  C   UNL     1       2.338   7.344  19.687  0.00  0.00    +0.000 C 
ATOM      8  O   UNL     1       2.755   8.274  19.024  0.00  0.00    +0.000 OA
ENDROOT
BRANCH   1  12
ATOM      9  C   UNL     1       0.438  12.158  19.019  0.00  0.00    +0.000 A 
ATOM     10  C   UNL     1       1.127  11.986  20.220  0.00  0.00    +0.000 A 
ATOM     11  C   UNL     1       1.129  10.745  20.862  0.00  0.00    +0.000 A 
ATOM     12  C   UNL     1       0.425   9.668  20.315  0.00  0.00    +0.000 A 
ATOM     13  C   UNL     1      -0.288   9.849  19.127  0.00  0.00    +0.000 A 
ATOM     14  C   UNL     1      -0.282  11.091  18.481  0.00  0.00    +0.000 A 
BRANCH   9  16
ATOM     15  C   UNL     1       1.817  13.965  18.376  0.00  0.00    +0.000 C 
ATOM     16  O   UNL     1       0.508  13.415  18.482  0.00  0.00    +0.000 OA
ENDBRANCH   9  16
ENDBRANCH   1  12
BRANCH   6  17
ATOM     17  C   UNL     1       3.682   5.521  18.797  0.00  0.00    +0.000 A 
ATOM     18  C   UNL     1       5.037   5.586  19.134  0.00  0.00    +0.000 A 
ATOM     19  C   UNL     1       6.021   5.192  18.223  0.00  0.00    +0.000 A 
ATOM     20  C   UNL     1       5.664   4.772  16.939  0.00  0.00    +0.000 A 
ATOM     21  C   UNL     1       4.299   4.714  16.602  0.00  0.00    +0.000 A 
ATOM     22  C   UNL     1       3.312   5.066  17.531  0.00  0.00    +0.000 A 
BRANCH  20  23
ATOM     23  C   UNL     1       6.662   4.401  15.887  0.00  0.00    +0.000 C 
ATOM     24  C   UNL     1       6.226   3.980  14.505  0.00  0.00    +0.000 C 
ATOM     25  O   UNL     1       7.862   4.451  16.160  0.00  0.00    +0.000 OA
ENDBRANCH  20  23
ENDBRANCH   6  17
TORSDOF 4
ENDMDL
MODEL 6
REMARK VINA RESULT:      -7.4      4.322      9.300
REMARK  Name = 
REMARK  7 active torsions:
REMARK  status: ('A' for Active; 'I' for Inactive)
REMARK    1  A    between atoms: C_1  and  O_2
REMARK    2  A    between atoms: O_2  and  C_3
REMARK    3  A    between atoms: C_6  and  C_7
REMARK    4  A    between atoms: C_10  and  C_11
REMARK    5  A    between atoms: N_12  and  C_13
REMARK    6  A    between atoms: C_16  and  C_17
REMARK    7  A    between atoms: C_17  and  C_18
REMARK                            x       y       z     vdW  Elec       q    Type
REMARK                         _______ _______ _______ _____ _____    ______ ____
ROOT
ATOM      1  C   UNL     1      -0.058  14.584  18.632  0.00  0.00    +0.000 C 
ATOM      2  C   UNL     1      -0.152  13.253  18.723  0.00  0.00    +0.000 C 
ATOM      3  N   UNL     1      -1.245  12.524  18.294  0.00  0.00    +0.000 NA
ATOM      4  C   UNL     1      -0.888  11.281  18.442  0.00  0.00    +0.000 C 
ATOM      5  C   UNL     1      -1.818  10.148  18.144  0.00  0.00    +0.000 C 
ATOM      6  N   UNL     1       0.350  11.089  18.956  0.00  0.00    +0.000 N 
ATOM      7  C   UNL     1       0.898  12.317  19.229  0.00  0.00    +0.000 C 
ATOM      8  O   UNL     1       1.967  12.592  19.741  0.00  0.00    +0.000 OA
ENDROOT
BRANCH   1  12
ATOM      9  C   UNL     1       3.433  16.882  19.512  0.00  0.00    +0.000 A 
ATOM     10  C   UNL     1       3.302  16.230  18.285  0.00  0.00    +0.000 A 
ATOM     11  C   UNL     1       2.155  15.485  17.998  0.00  0.00    +0.000 A 
ATOM     12  C   UNL     1       1.135  15.370  18.947  0.00  0.00    +0.000 A 
ATOM     13  C   UNL     1       1.279  15.998  20.187  0.00  0.00    +0.000 A 
ATOM     14  C   UNL     1       2.426  16.752  20.469  0.00  0.00    +0.000 A 
BRANCH   9  16
ATOM     15  C   UNL     1       5.137  17.567  20.996  0.00  0.00    +0.000 C 
ATOM     16  O   UNL     1       4.597  17.581  19.679  0.00  0.00    +0.000 OA
ENDBRANCH   9  16
ENDBRANCH   1  12
BRANCH   6  17
ATOM     17  C   UNL     1       1.038   9.889  19.176  0.00  0.00    +0.000 A 
ATOM     18  C   UNL     1       1.691   9.265  18.109  0.00  0.00    +0.000 A 
ATOM     19  C   UNL     1       2.291   8.013  18.269  0.00  0.00    +0.000 A 
ATOM     20  C   UNL     1       2.203   7.342  19.492  0.00  0.00    +0.000 A 
ATOM     21  C   UNL     1       1.540   7.971  20.561  0.00  0.00    +0.000 A 
ATOM     22  C   UNL     1       0.978   9.245  20.413  0.00  0.00    +0.000 A 
BRANCH  20  23
ATOM     23  C   UNL     1       2.760   5.971  19.720  0.00  0.00    +0.000 C 
ATOM     24  C   UNL     1       1.973   4.918  20.461  0.00  0.00    +0.000 C 
ATOM     25  O   UNL     1       3.880   5.703  19.284  0.00  0.00    +0.000 OA
ENDBRANCH  20  23
ENDBRANCH   6  17
TORSDOF 4
ENDMDL
MODEL 7
REMARK VINA RESULT:      -7.4      4.131      5.848
REMARK  Name = 
REMARK  7 active torsions:
REMARK  status: ('A' for Active; 'I' for Inactive)
REMARK    1  A    between atoms: C_1  and  O_2
REMARK    2  A    between atoms: O_2  and  C_3
REMARK    3  A    between atoms: C_6  and  C_7
REMARK    4  A    between atoms: C_10  and  C_11
REMARK    5  A    between atoms: N_12  and  C_13
REMARK    6  A    between atoms: C_16  and  C_17
REMARK    7  A    between atoms: C_17  and  C_18
REMARK                            x       y       z     vdW  Elec       q    Type
REMARK                         _______ _______ _______ _____ _____    ______ ____
ROOT
ATOM      1  C   UNL     1       2.799   7.786  17.908  0.00  0.00    +0.000 C 
ATOM      2  C   UNL     1       2.201   8.867  18.421  0.00  0.00    +0.000 C 
ATOM      3  N   UNL     1       2.253  10.124  17.848  0.00  0.00    +0.000 NA
ATOM      4  C   UNL     1       1.452  10.848  18.575  0.00  0.00    +0.000 C 
ATOM      5  C   UNL     1       1.262  12.311  18.328  0.00  0.00    +0.000 C 
ATOM      6  N   UNL     1       0.866  10.204  19.613  0.00  0.00    +0.000 N 
ATOM      7  C   UNL     1       1.333   8.913  19.637  0.00  0.00    +0.000 C 
ATOM      8  O   UNL     1       1.100   8.021  20.430  0.00  0.00    +0.000 OA
ENDROOT
BRANCH   1  12
ATOM      9  C   UNL     1       2.383   3.810  19.411  0.00  0.00    +0.000 A 
ATOM     10  C   UNL     1       3.346   4.672  19.938  0.00  0.00    +0.000 A 
ATOM     11  C   UNL     1       3.474   5.974  19.448  0.00  0.00    +0.000 A 
ATOM     12  C   UNL     1       2.649   6.420  18.411  0.00  0.00    +0.000 A 
ATOM     13  C   UNL     1       1.705   5.548  17.864  0.00  0.00    +0.000 A 
ATOM     14  C   UNL     1       1.572   4.246  18.362  0.00  0.00    +0.000 A 
BRANCH   9  16
ATOM     15  C   UNL     1       1.723   2.477  21.246  0.00  0.00    +0.000 C 
ATOM     16  O   UNL     1       2.349   2.561  19.970  0.00  0.00    +0.000 OA
ENDBRANCH   9  16
ENDBRANCH   1  12
BRANCH   6  17
ATOM     17  C   UNL     1      -0.078  10.684  20.529  0.00  0.00    +0.000 A 
ATOM     18  C   UNL     1      -1.163  11.435  20.068  0.00  0.00    +0.000 A 
ATOM     19  C   UNL     1      -2.061  12.022  20.964  0.00  0.00    +0.000 A 
ATOM     20  C   UNL     1      -1.857  11.905  22.342  0.00  0.00    +0.000 A 
ATOM     21  C   UNL     1      -0.761  11.153  22.801  0.00  0.00    +0.000 A 
ATOM     22  C   UNL     1       0.113  10.528  21.903  0.00  0.00    +0.000 A 
BRANCH  20  23
ATOM     23  C   UNL     1      -2.735  12.561  23.362  0.00  0.00    +0.000 C 
ATOM     24  C   UNL     1      -2.522  13.998  23.772  0.00  0.00    +0.000 C 
ATOM     25  O   UNL     1      -3.653  11.912  23.864  0.00  0.00    +0.000 OA
ENDBRANCH  20  23
ENDBRANCH   6  17
TORSDOF 4
ENDMDL
MODEL 8
REMARK VINA RESULT:      -7.3      0.440      1.430
REMARK  Name = 
REMARK  7 active torsions:
REMARK  status: ('A' for Active; 'I' for Inactive)
REMARK    1  A    between atoms: C_1  and  O_2
REMARK    2  A    between atoms: O_2  and  C_3
REMARK    3  A    between atoms: C_6  and  C_7
REMARK    4  A    between atoms: C_10  and  C_11
REMARK    5  A    between atoms: N_12  and  C_13
REMARK    6  A    between atoms: C_16  and  C_17
REMARK    7  A    between atoms: C_17  and  C_18
REMARK                            x       y       z     vdW  Elec       q    Type
REMARK                         _______ _______ _______ _____ _____    ______ ____
ROOT
ATOM      1  C   UNL     1       4.464   3.461  17.435  0.00  0.00    +0.000 C 
ATOM      2  C   UNL     1       3.547   4.164  18.110  0.00  0.00    +0.000 C 
ATOM      3  N   UNL     1       2.743   3.633  19.101  0.00  0.00    +0.000 NA
ATOM      4  C   UNL     1       2.096   4.657  19.580  0.00  0.00    +0.000 C 
ATOM      5  C   UNL     1       1.060   4.510  20.648  0.00  0.00    +0.000 C 
ATOM      6  N   UNL     1       2.370   5.845  18.991  0.00  0.00    +0.000 N 
ATOM      7  C   UNL     1       3.268   5.626  17.976  0.00  0.00    +0.000 C 
ATOM      8  O   UNL     1       3.735   6.411  17.173  0.00  0.00    +0.000 OA
ENDROOT
BRANCH   1  12
ATOM      9  C   UNL     1       7.295   5.091  14.684  0.00  0.00    +0.000 A 
ATOM     10  C   UNL     1       7.529   5.143  16.058  0.00  0.00    +0.000 A 
ATOM     11  C   UNL     1       6.604   4.602  16.954  0.00  0.00    +0.000 A 
ATOM     12  C   UNL     1       5.423   4.020  16.482  0.00  0.00    +0.000 A 
ATOM     13  C   UNL     1       5.175   3.995  15.108  0.00  0.00    +0.000 A 
ATOM     14  C   UNL     1       6.108   4.530  14.210  0.00  0.00    +0.000 A 
BRANCH   9  16
ATOM     15  C   UNL     1       8.061   5.557  12.499  0.00  0.00    +0.000 C 
ATOM     16  O   UNL     1       8.271   5.651  13.904  0.00  0.00    +0.000 OA
ENDBRANCH   9  16
ENDBRANCH   1  12
BRANCH   6  17
ATOM     17  C   UNL     1       1.892   7.121  19.314  0.00  0.00    +0.000 A 
ATOM     18  C   UNL     1       1.756   8.079  18.305  0.00  0.00    +0.000 A 
ATOM     19  C   UNL     1       1.388   9.393  18.610  0.00  0.00    +0.000 A 
ATOM     20  C   UNL     1       1.196   9.780  19.940  0.00  0.00    +0.000 A 
ATOM     21  C   UNL     1       1.339   8.813  20.951  0.00  0.00    +0.000 A 
ATOM     22  C   UNL     1       1.665   7.487  20.642  0.00  0.00    +0.000 A 
BRANCH  20  23
ATOM     23  C   UNL     1       0.868  11.182  20.349  0.00  0.00    +0.000 C 
ATOM     24  C   UNL     1       1.311  12.364  19.523  0.00  0.00    +0.000 C 
ATOM     25  O   UNL     1       0.216  11.365  21.377  0.00  0.00    +0.000 OA
ENDBRANCH  20  23
ENDBRANCH   6  17
TORSDOF 4
ENDMDL
MODEL 9
REMARK VINA RESULT:      -7.3      4.273      9.252
REMARK  Name = 
REMARK  7 active torsions:
REMARK  status: ('A' for Active; 'I' for Inactive)
REMARK    1  A    between atoms: C_1  and  O_2
REMARK    2  A    between atoms: O_2  and  C_3
REMARK    3  A    between atoms: C_6  and  C_7
REMARK    4  A    between atoms: C_10  and  C_11
REMARK    5  A    between atoms: N_12  and  C_13
REMARK    6  A    between atoms: C_16  and  C_17
REMARK    7  A    between atoms: C_17  and  C_18
REMARK                            x       y       z     vdW  Elec       q    Type
REMARK                         _______ _______ _______ _____ _____    ______ ____
ROOT
ATOM      1  C   UNL     1       0.184  14.710  18.593  0.00  0.00    +0.000 C 
ATOM      2  C   UNL     1       0.065  13.380  18.671  0.00  0.00    +0.000 C 
ATOM      3  N   UNL     1      -1.060  12.681  18.276  0.00  0.00    +0.000 NA
ATOM      4  C   UNL     1      -0.725  11.428  18.395  0.00  0.00    +0.000 C 
ATOM      5  C   UNL     1      -1.690  10.320  18.121  0.00  0.00    +0.000 C 
ATOM      6  N   UNL     1       0.529  11.203  18.857  0.00  0.00    +0.000 N 
ATOM      7  C   UNL     1       1.114  12.416  19.123  0.00  0.00    +0.000 C 
ATOM      8  O   UNL     1       2.208  12.661  19.595  0.00  0.00    +0.000 OA
ENDROOT
BRANCH   1  12
ATOM      9  C   UNL     1       3.743  16.912  19.445  0.00  0.00    +0.000 A 
ATOM     10  C   UNL     1       2.744  16.775  20.410  0.00  0.00    +0.000 A 
ATOM     11  C   UNL     1       1.585  16.047  20.129  0.00  0.00    +0.000 A 
ATOM     12  C   UNL     1       1.406  15.466  18.870  0.00  0.00    +0.000 A 
ATOM     13  C   UNL     1       2.393  15.629  17.895  0.00  0.00    +0.000 A 
ATOM     14  C   UNL     1       3.558  16.351  18.181  0.00  0.00    +0.000 A 
BRANCH   9  16
ATOM     15  C   UNL     1       6.074  17.244  19.264  0.00  0.00    +0.000 C 
ATOM     16  O   UNL     1       4.833  17.644  19.834  0.00  0.00    +0.000 OA
ENDBRANCH   9  16
ENDBRANCH   1  12
BRANCH   6  17
ATOM     17  C   UNL     1       1.198   9.986  19.035  0.00  0.00    +0.000 A 
ATOM     18  C   UNL     1       1.860   9.401  17.951  0.00  0.00    +0.000 A 
ATOM     19  C   UNL     1       2.442   8.135  18.065  0.00  0.00    +0.000 A 
ATOM     20  C   UNL     1       2.327   7.413  19.257  0.00  0.00    +0.000 A 
ATOM     21  C   UNL     1       1.654   8.003  20.342  0.00  0.00    +0.000 A 
ATOM     22  C   UNL     1       1.111   9.289  20.241  0.00  0.00    +0.000 A 
BRANCH  20  23
ATOM     23  C   UNL     1       2.863   6.026  19.433  0.00  0.00    +0.000 C 
ATOM     24  C   UNL     1       4.186   5.615  18.834  0.00  0.00    +0.000 C 
ATOM     25  O   UNL     1       2.210   5.214  20.088  0.00  0.00    +0.000 OA
ENDBRANCH  20  23
ENDBRANCH   6  17
TORSDOF 4
ENDMDL
