MODEL 1
REMARK VINA RESULT:      -6.6      0.000      0.000
REMARK  Name = 
REMARK  4 active torsions:
REMARK  status: ('A' for Active; 'I' for Inactive)
REMARK    1  A    between atoms: C_2  and  O_3
REMARK    2  A    between atoms: C_2  and  C_4
REMARK    3  A    between atoms: C_4  and  C_5
REMARK    4  A    between atoms: C_5  and  N_6
REMARK                            x       y       z     vdW  Elec       q    Type
REMARK                         _______ _______ _______ _____ _____    ______ ____
ROOT
ATOM      1  N   UNL     1       4.285   3.659  17.526  0.00  0.00    +0.000 N 
ATOM      2  C   UNL     1       4.649   3.590  18.855  0.00  0.00    +0.000 C 
ATOM      3  O   UNL     1       5.734   3.843  19.347  0.00  0.00    +0.000 OA
ATOM      4  C   UNL     1       3.452   3.035  19.582  0.00  0.00    +0.000 C 
ATOM      5  C   UNL     1       3.217   3.376  21.038  0.00  0.00    +0.000 C 
ATOM      6  C   UNL     1       1.869   2.775  21.471  0.00  0.00    +0.000 C 
ATOM      7  C   UNL     1       0.710   3.186  20.546  0.00  0.00    +0.000 C 
ATOM      8  C   UNL     1       1.013   2.918  19.063  0.00  0.00    +0.000 C 
ATOM      9  C   UNL     1       2.327   3.584  18.721  0.00  0.00    +0.000 C 
ATOM     10  C   UNL     1       2.934   3.441  17.355  0.00  0.00    +0.000 C 
ATOM     11  O   UNL     1       2.333   3.288  16.307  0.00  0.00    +0.000 OA
ENDROOT
BRANCH   1  12
ATOM     12  C   UNL     1       5.216   3.891  16.432  0.00  0.00    +0.000 C 
BRANCH  12  13
ATOM     13  C   UNL     1       5.551   5.373  16.277  0.00  0.00    +0.000 C 
BRANCH  13  15
ATOM     14  O   UNL     1       7.560   6.713  16.440  0.00  0.00    +0.000 OA
ATOM     15  C   UNL     1       7.003   5.633  16.564  0.00  0.00    +0.000 C 
BRANCH  15  16
ATOM     16  O   UNL     1       7.656   4.526  16.985  0.00  0.00    +0.000 OA
ATOM     17  H   UNL     1       7.079   3.840  17.371  0.00  0.00    +0.000 HD
ENDBRANCH  15  16
ENDBRANCH  13  15
ENDBRANCH  12  13
ENDBRANCH   1  12
TORSDOF 4
ENDMDL
MODEL 2
REMARK VINA RESULT:      -6.5      0.857      2.454
REMARK  Name = 
REMARK  4 active torsions:
REMARK  status: ('A' for Active; 'I' for Inactive)
REMARK    1  A    between atoms: C_2  and  O_3
REMARK    2  A    between atoms: C_2  and  C_4
REMARK    3  A    between atoms: C_4  and  C_5
REMARK    4  A    between atoms: C_5  and  N_6
REMARK                            x       y       z     vdW  Elec       q    Type
REMARK                         _______ _______ _______ _____ _____    ______ ____
ROOT
ATOM      1  N   UNL     1       3.928   4.518  17.607  0.00  0.00    +0.000 N 
ATOM      2  C   UNL     1       2.764   3.794  17.455  0.00  0.00    +0.000 C 
ATOM      3  O   UNL     1       2.317   3.301  16.435  0.00  0.00    +0.000 OA
ATOM      4  C   UNL     1       2.087   3.814  18.801  0.00  0.00    +0.000 C 
ATOM      5  C   UNL     1       1.169   2.682  19.212  0.00  0.00    +0.000 C 
ATOM      6  C   UNL     1       0.727   2.913  20.667  0.00  0.00    +0.000 C 
ATOM      7  C   UNL     1       1.914   3.122  21.623  0.00  0.00    +0.000 C 
ATOM      8  C   UNL     1       2.883   4.211  21.134  0.00  0.00    +0.000 C 
ATOM      9  C   UNL     1       3.297   3.875  19.718  0.00  0.00    +0.000 C 
ATOM     10  C   UNL     1       4.188   4.794  18.933  0.00  0.00    +0.000 C 
ATOM     11  O   UNL     1       5.044   5.533  19.385  0.00  0.00    +0.000 OA
ENDROOT
BRANCH   1  12
ATOM     12  C   UNL     1       4.759   4.975  16.504  0.00  0.00    +0.000 C 
BRANCH  12  13
ATOM     13  C   UNL     1       5.927   4.027  16.244  0.00  0.00    +0.000 C 
BRANCH  13  15
ATOM     14  O   UNL     1       8.113   4.203  17.271  0.00  0.00    +0.000 OA
ATOM     15  C   UNL     1       7.241   4.684  16.563  0.00  0.00    +0.000 C 
BRANCH  15  16
ATOM     16  O   UNL     1       7.371   5.895  15.977  0.00  0.00    +0.000 OA
ATOM     17  H   UNL     1       8.180   6.000  15.440  0.00  0.00    +0.000 HD
ENDBRANCH  15  16
ENDBRANCH  13  15
ENDBRANCH  12  13
ENDBRANCH   1  12
TORSDOF 4
ENDMDL
MODEL 3
REMARK VINA RESULT:      -6.5      1.713      2.393
REMARK  Name = 
REMARK  4 active torsions:
REMARK  status: ('A' for Active; 'I' for Inactive)
REMARK    1  A    between atoms: C_2  and  O_3
REMARK    2  A    between atoms: C_2  and  C_4
REMARK    3  A    between atoms: C_4  and  C_5
REMARK    4  A    between atoms: C_5  and  N_6
REMARK                            x       y       z     vdW  Elec       q    Type
REMARK                         _______ _______ _______ _____ _____    ______ ____
ROOT
ATOM      1  N   UNL     1       3.969   5.624  17.647  0.00  0.00    +0.000 N 
ATOM      2  C   UNL     1       3.746   4.353  17.159  0.00  0.00    +0.000 C 
ATOM      3  O   UNL     1       4.379   3.759  16.304  0.00  0.00    +0.000 OA
ATOM      4  C   UNL     1       2.485   3.870  17.826  0.00  0.00    +0.000 C 
ATOM      5  C   UNL     1       2.255   2.389  18.044  0.00  0.00    +0.000 C 
ATOM      6  C   UNL     1       0.958   2.208  18.850  0.00  0.00    +0.000 C 
ATOM      7  C   UNL     1       0.944   3.031  20.149  0.00  0.00    +0.000 C 
ATOM      8  C   UNL     1       1.276   4.515  19.913  0.00  0.00    +0.000 C 
ATOM      9  C   UNL     1       2.585   4.592  19.159  0.00  0.00    +0.000 C 
ATOM     10  C   UNL     1       3.143   5.913  18.713  0.00  0.00    +0.000 C 
ATOM     11  O   UNL     1       2.988   6.988  19.263  0.00  0.00    +0.000 OA
ENDROOT
BRANCH   1  12
ATOM     12  C   UNL     1       4.927   6.563  17.083  0.00  0.00    +0.000 C 
BRANCH  12  13
ATOM     13  C   UNL     1       6.314   6.397  17.700  0.00  0.00    +0.000 C 
BRANCH  13  15
ATOM     14  O   UNL     1       7.430   5.899  15.610  0.00  0.00    +0.000 OA
ATOM     15  C   UNL     1       7.227   5.631  16.785  0.00  0.00    +0.000 C 
BRANCH  15  16
ATOM     16  O   UNL     1       7.819   4.583  17.401  0.00  0.00    +0.000 OA
ATOM     17  H   UNL     1       7.477   3.710  17.131  0.00  0.00    +0.000 HD
ENDBRANCH  15  16
ENDBRANCH  13  15
ENDBRANCH  12  13
ENDBRANCH   1  12
TORSDOF 4
ENDMDL
MODEL 4
REMARK VINA RESULT:      -6.5      1.774      2.425
REMARK  Name = 
REMARK  4 active torsions:
REMARK  status: ('A' for Active; 'I' for Inactive)
REMARK    1  A    between atoms: C_2  and  O_3
REMARK    2  A    between atoms: C_2  and  C_4
REMARK    3  A    between atoms: C_4  and  C_5
REMARK    4  A    between atoms: C_5  and  N_6
REMARK                            x       y       z     vdW  Elec       q    Type
REMARK                         _______ _______ _______ _____ _____    ______ ____
ROOT
ATOM      1  N   UNL     1       4.354   5.452  17.241  0.00  0.00    +0.000 N 
ATOM      2  C   UNL     1       4.189   4.113  16.956  0.00  0.00    +0.000 C 
ATOM      3  O   UNL     1       4.909   3.397  16.283  0.00  0.00    +0.000 OA
ATOM      4  C   UNL     1       2.867   3.722  17.566  0.00  0.00    +0.000 C 
ATOM      5  C   UNL     1       2.623   2.294  18.008  0.00  0.00    +0.000 C 
ATOM      6  C   UNL     1       1.251   2.223  18.698  0.00  0.00    +0.000 C 
ATOM      7  C   UNL     1       1.099   3.253  19.830  0.00  0.00    +0.000 C 
ATOM      8  C   UNL     1       1.446   4.682  19.380  0.00  0.00    +0.000 C 
ATOM      9  C   UNL     1       2.825   4.661  18.760  0.00  0.00    +0.000 C 
ATOM     10  C   UNL     1       3.420   5.899  18.153  0.00  0.00    +0.000 C 
ATOM     11  O   UNL     1       3.204   7.048  18.494  0.00  0.00    +0.000 OA
ENDROOT
BRANCH   1  12
ATOM     12  C   UNL     1       5.360   6.304  16.625  0.00  0.00    +0.000 C 
BRANCH  12  13
ATOM     13  C   UNL     1       6.566   6.508  17.539  0.00  0.00    +0.000 C 
BRANCH  13  15
ATOM     14  O   UNL     1       7.814   4.760  18.656  0.00  0.00    +0.000 OA
ATOM     15  C   UNL     1       7.401   5.260  17.622  0.00  0.00    +0.000 C 
BRANCH  15  16
ATOM     16  O   UNL     1       7.659   4.727  16.406  0.00  0.00    +0.000 OA
ATOM     17  H   UNL     1       7.180   5.152  15.669  0.00  0.00    +0.000 HD
ENDBRANCH  15  16
ENDBRANCH  13  15
ENDBRANCH  12  13
ENDBRANCH   1  12
TORSDOF 4
ENDMDL
MODEL 5
REMARK VINA RESULT:      -6.5      0.904      1.183
REMARK  Name = 
REMARK  4 active torsions:
REMARK  status: ('A' for Active; 'I' for Inactive)
REMARK    1  A    between atoms: C_2  and  O_3
REMARK    2  A    between atoms: C_2  and  C_4
REMARK    3  A    between atoms: C_4  and  C_5
REMARK    4  A    between atoms: C_5  and  N_6
REMARK                            x       y       z     vdW  Elec       q    Type
REMARK                         _______ _______ _______ _____ _____    ______ ____
ROOT
ATOM      1  N   UNL     1       3.922   4.542  17.613  0.00  0.00    +0.000 N 
ATOM      2  C   UNL     1       4.210   4.759  18.944  0.00  0.00    +0.000 C 
ATOM      3  O   UNL     1       5.070   5.482  19.415  0.00  0.00    +0.000 OA
ATOM      4  C   UNL     1       3.306   3.835  19.718  0.00  0.00    +0.000 C 
ATOM      5  C   UNL     1       2.874   4.190  21.125  0.00  0.00    +0.000 C 
ATOM      6  C   UNL     1       1.867   3.134  21.610  0.00  0.00    +0.000 C 
ATOM      7  C   UNL     1       0.692   2.941  20.635  0.00  0.00    +0.000 C 
ATOM      8  C   UNL     1       1.157   2.677  19.193  0.00  0.00    +0.000 C 
ATOM      9  C   UNL     1       2.103   3.787  18.791  0.00  0.00    +0.000 C 
ATOM     10  C   UNL     1       2.788   3.772  17.455  0.00  0.00    +0.000 C 
ATOM     11  O   UNL     1       2.359   3.284  16.425  0.00  0.00    +0.000 OA
ENDROOT
BRANCH   1  12
ATOM     12  C   UNL     1       4.736   5.027  16.507  0.00  0.00    +0.000 C 
BRANCH  12  13
ATOM     13  C   UNL     1       5.818   4.023  16.118  0.00  0.00    +0.000 C 
BRANCH  13  15
ATOM     14  O   UNL     1       7.984   4.356  17.146  0.00  0.00    +0.000 OA
ATOM     15  C   UNL     1       7.189   4.623  16.258  0.00  0.00    +0.000 C 
BRANCH  15  16
ATOM     16  O   UNL     1       7.469   5.513  15.279  0.00  0.00    +0.000 OA
ATOM     17  H   UNL     1       8.211   5.256  14.699  0.00  0.00    +0.000 HD
ENDBRANCH  15  16
ENDBRANCH  13  15
ENDBRANCH  12  13
ENDBRANCH   1  12
TORSDOF 4
ENDMDL
MODEL 6
REMARK VINA RESULT:      -6.5      1.747      2.226
REMARK  Name = 
REMARK  4 active torsions:
REMARK  status: ('A' for Active; 'I' for Inactive)
REMARK    1  A    between atoms: C_2  and  O_3
REMARK    2  A    between atoms: C_2  and  C_4
REMARK    3  A    between atoms: C_4  and  C_5
REMARK    4  A    between atoms: C_5  and  N_6
REMARK                            x       y       z     vdW  Elec       q    Type
REMARK                         _______ _______ _______ _____ _____    ______ ____
ROOT
ATOM      1  N   UNL     1       4.294   5.422  17.276  0.00  0.00    +0.000 N 
ATOM      2  C   UNL     1       3.418   5.866  18.244  0.00  0.00    +0.000 C 
ATOM      3  O   UNL     1       3.230   7.012  18.615  0.00  0.00    +0.000 OA
ATOM      4  C   UNL     1       2.797   4.629  18.839  0.00  0.00    +0.000 C 
ATOM      5  C   UNL     1       1.410   4.685  19.444  0.00  0.00    +0.000 C 
ATOM      6  C   UNL     1       0.995   3.262  19.852  0.00  0.00    +0.000 C 
ATOM      7  C   UNL     1       1.124   2.250  18.700  0.00  0.00    +0.000 C 
ATOM      8  C   UNL     1       2.512   2.281  18.039  0.00  0.00    +0.000 C 
ATOM      9  C   UNL     1       2.810   3.707  17.631  0.00  0.00    +0.000 C 
ATOM     10  C   UNL     1       4.132   4.076  17.021  0.00  0.00    +0.000 C 
ATOM     11  O   UNL     1       4.841   3.358  16.339  0.00  0.00    +0.000 OA
ENDROOT
BRANCH   1  12
ATOM     12  C   UNL     1       5.297   6.257  16.632  0.00  0.00    +0.000 C 
BRANCH  12  13
ATOM     13  C   UNL     1       6.522   6.457  17.520  0.00  0.00    +0.000 C 
BRANCH  13  15
ATOM     14  O   UNL     1       7.836   4.708  18.558  0.00  0.00    +0.000 OA
ATOM     15  C   UNL     1       7.379   5.222  17.549  0.00  0.00    +0.000 C 
BRANCH  15  16
ATOM     16  O   UNL     1       7.605   4.718  16.315  0.00  0.00    +0.000 OA
ATOM     17  H   UNL     1       6.812   4.354  15.876  0.00  0.00    +0.000 HD
ENDBRANCH  15  16
ENDBRANCH  13  15
ENDBRANCH  12  13
ENDBRANCH   1  12
TORSDOF 4
ENDMDL
MODEL 7
REMARK VINA RESULT:      -6.4      0.467      2.282
REMARK  Name = 
REMARK  4 active torsions:
REMARK  status: ('A' for Active; 'I' for Inactive)
REMARK    1  A    between atoms: C_2  and  O_3
REMARK    2  A    between atoms: C_2  and  C_4
REMARK    3  A    between atoms: C_4  and  C_5
REMARK    4  A    between atoms: C_5  and  N_6
REMARK                            x       y       z     vdW  Elec       q    Type
REMARK                         _______ _______ _______ _____ _____    ______ ____
ROOT
ATOM      1  N   UNL     1       4.146   3.616  17.525  0.00  0.00    +0.000 N 
ATOM      2  C   UNL     1       2.778   3.476  17.418  0.00  0.00    +0.000 C 
ATOM      3  O   UNL     1       2.115   3.361  16.402  0.00  0.00    +0.000 OA
ATOM      4  C   UNL     1       2.240   3.594  18.820  0.00  0.00    +0.000 C 
ATOM      5  C   UNL     1       0.945   2.907  19.202  0.00  0.00    +0.000 C 
ATOM      6  C   UNL     1       0.716   3.099  20.711  0.00  0.00    +0.000 C 
ATOM      7  C   UNL     1       1.921   2.657  21.558  0.00  0.00    +0.000 C 
ATOM      8  C   UNL     1       3.240   3.294  21.088  0.00  0.00    +0.000 C 
ATOM      9  C   UNL     1       3.401   3.014  19.610  0.00  0.00    +0.000 C 
ATOM     10  C   UNL     1       4.562   3.572  18.839  0.00  0.00    +0.000 C 
ATOM     11  O   UNL     1       5.673   3.813  19.276  0.00  0.00    +0.000 OA
ENDROOT
BRANCH   1  12
ATOM     12  C   UNL     1       5.040   3.828  16.396  0.00  0.00    +0.000 C 
BRANCH  12  13
ATOM     13  C   UNL     1       5.514   5.277  16.314  0.00  0.00    +0.000 C 
BRANCH  13  15
ATOM     14  O   UNL     1       7.597   5.705  15.155  0.00  0.00    +0.000 OA
ATOM     15  C   UNL     1       7.009   5.350  16.165  0.00  0.00    +0.000 C 
BRANCH  15  16
ATOM     16  O   UNL     1       7.661   4.974  17.288  0.00  0.00    +0.000 OA
ATOM     17  H   UNL     1       7.745   4.008  17.402  0.00  0.00    +0.000 HD
ENDBRANCH  15  16
ENDBRANCH  13  15
ENDBRANCH  12  13
ENDBRANCH   1  12
TORSDOF 4
ENDMDL
MODEL 8
REMARK VINA RESULT:      -6.4      2.245      5.095
REMARK  Name = 
REMARK  4 active torsions:
REMARK  status: ('A' for Active; 'I' for Inactive)
REMARK    1  A    between atoms: C_2  and  O_3
REMARK    2  A    between atoms: C_2  and  C_4
REMARK    3  A    between atoms: C_4  and  C_5
REMARK    4  A    between atoms: C_5  and  N_6
REMARK                            x       y       z     vdW  Elec       q    Type
REMARK                         _______ _______ _______ _____ _____    ______ ____
ROOT
ATOM      1  N   UNL     1       3.140   3.502  18.787  0.00  0.00    +0.000 N 
ATOM      2  C   UNL     1       4.465   3.432  19.166  0.00  0.00    +0.000 C 
ATOM      3  O   UNL     1       5.021   2.539  19.780  0.00  0.00    +0.000 OA
ATOM      4  C   UNL     1       5.081   4.744  18.756  0.00  0.00    +0.000 C 
ATOM      5  C   UNL     1       6.558   4.826  18.430  0.00  0.00    +0.000 C 
ATOM      6  C   UNL     1       6.871   6.246  17.929  0.00  0.00    +0.000 C 
ATOM      7  C   UNL     1       5.959   6.683  16.770  0.00  0.00    +0.000 C 
ATOM      8  C   UNL     1       4.466   6.499  17.090  0.00  0.00    +0.000 C 
ATOM      9  C   UNL     1       4.248   5.067  17.526  0.00  0.00    +0.000 C 
ATOM     10  C   UNL     1       2.898   4.594  17.980  0.00  0.00    +0.000 C 
ATOM     11  O   UNL     1       1.818   5.016  17.605  0.00  0.00    +0.000 OA
ENDROOT
BRANCH   1  12
ATOM     12  C   UNL     1       2.113   2.566  19.219  0.00  0.00    +0.000 C 
BRANCH  12  13
ATOM     13  C   UNL     1       1.205   3.174  20.285  0.00  0.00    +0.000 C 
BRANCH  13  15
ATOM     14  O   UNL     1       2.410   2.948  22.372  0.00  0.00    +0.000 OA
ATOM     15  C   UNL     1       2.001   3.656  21.465  0.00  0.00    +0.000 C 
BRANCH  15  16
ATOM     16  O   UNL     1       2.229   4.988  21.427  0.00  0.00    +0.000 OA
ATOM     17  H   UNL     1       1.545   5.528  21.868  0.00  0.00    +0.000 HD
ENDBRANCH  15  16
ENDBRANCH  13  15
ENDBRANCH  12  13
ENDBRANCH   1  12
TORSDOF 4
ENDMDL
MODEL 9
REMARK VINA RESULT:      -6.4      2.248      5.451
REMARK  Name = 
REMARK  4 active torsions:
REMARK  status: ('A' for Active; 'I' for Inactive)
REMARK    1  A    between atoms: C_2  and  O_3
REMARK    2  A    between atoms: C_2  and  C_4
REMARK    3  A    between atoms: C_4  and  C_5
REMARK    4  A    between atoms: C_5  and  N_6
REMARK                            x       y       z     vdW  Elec       q    Type
REMARK                         _______ _______ _______ _____ _____    ______ ____
ROOT
ATOM      1  N   UNL     1       3.083   3.450  18.780  0.00  0.00    +0.000 N 
ATOM      2  C   UNL     1       2.844   4.505  17.925  0.00  0.00    +0.000 C 
ATOM      3  O   UNL     1       1.768   4.927  17.539  0.00  0.00    +0.000 OA
ATOM      4  C   UNL     1       4.199   4.983  17.471  0.00  0.00    +0.000 C 
ATOM      5  C   UNL     1       4.403   6.427  17.061  0.00  0.00    +0.000 C 
ATOM      6  C   UNL     1       5.897   6.647  16.770  0.00  0.00    +0.000 C 
ATOM      7  C   UNL     1       6.801   6.204  17.932  0.00  0.00    +0.000 C 
ATOM      8  C   UNL     1       6.509   4.767  18.395  0.00  0.00    +0.000 C 
ATOM      9  C   UNL     1       5.031   4.660  18.701  0.00  0.00    +0.000 C 
ATOM     10  C   UNL     1       4.419   3.351  19.109  0.00  0.00    +0.000 C 
ATOM     11  O   UNL     1       4.971   2.450  19.714  0.00  0.00    +0.000 OA
ENDROOT
BRANCH   1  12
ATOM     12  C   UNL     1       2.060   2.525  19.247  0.00  0.00    +0.000 C 
BRANCH  12  13
ATOM     13  C   UNL     1       1.170   3.157  20.314  0.00  0.00    +0.000 C 
BRANCH  13  15
ATOM     14  O   UNL     1       2.411   2.983  22.385  0.00  0.00    +0.000 OA
ATOM     15  C   UNL     1       1.986   3.669  21.468  0.00  0.00    +0.000 C 
BRANCH  15  16
ATOM     16  O   UNL     1       2.210   5.000  21.395  0.00  0.00    +0.000 OA
ATOM     17  H   UNL     1       3.153   5.248  21.332  0.00  0.00    +0.000 HD
ENDBRANCH  15  16
ENDBRANCH  13  15
ENDBRANCH  12  13
ENDBRANCH   1  12
TORSDOF 4
ENDMDL
