MODEL 1
REMARK VINA RESULT:      -8.4      0.000      0.000
REMARK  Name = 
REMARK  5 active torsions:
REMARK  status: ('A' for Active; 'I' for Inactive)
REMARK    1  A    between atoms: C_2  and  C_20
REMARK    2  A    between atoms: N_3  and  C_4
REMARK    3  A    between atoms: C_8  and  S_9
REMARK    4  A    between atoms: S_9  and  N_12
REMARK    5  A    between atoms: N_12  and  C_13
REMARK                            x       y       z     vdW  Elec       q    Type
REMARK                         _______ _______ _______ _____ _____    ______ ____
ROOT
ATOM      1  C   UNL     1       8.139   8.057  18.195  0.00  0.00    +0.000 A 
ATOM      2  C   UNL     1       8.540   7.144  19.176  0.00  0.00    +0.000 A 
ATOM      3  C   UNL     1       7.867   5.936  19.353  0.00  0.00    +0.000 A 
ATOM      4  C   UNL     1       6.782   5.620  18.544  0.00  0.00    +0.000 A 
ATOM      5  C   UNL     1       6.379   6.523  17.555  0.00  0.00    +0.000 A 
ATOM      6  C   UNL     1       7.035   7.752  17.392  0.00  0.00    +0.000 A 
ENDROOT
BRANCH   1   9
ATOM      7  O   UNL     1       8.897  10.074  20.180  0.00  0.00    +0.000 OA
ATOM      8  C   UNL     1       9.120  10.204  18.980  0.00  0.00    +0.000 C 
ATOM      9  N   UNL     1       8.801   9.289  17.994  0.00  0.00    +0.000 N 
ATOM     10  H   UNL     1       9.167   9.454  17.062  0.00  0.00    +0.000 HD
BRANCH   8  11
ATOM     11  C   UNL     1       9.807  11.458  18.566  0.00  0.00    +0.000 A 
ATOM     12  C   UNL     1      11.155  11.573  18.960  0.00  0.00    +0.000 A 
ATOM     13  C   UNL     1      11.934  12.655  18.546  0.00  0.00    +0.000 A 
ATOM     14  C   UNL     1      11.370  13.629  17.729  0.00  0.00    +0.000 A 
ATOM     15 CL   UNL     1      12.333  14.939  17.172  0.00  0.00    +0.000 Cl
ATOM     16  C   UNL     1      10.033  13.540  17.342  0.00  0.00    +0.000 A 
ATOM     17  C   UNL     1       9.247  12.459  17.760  0.00  0.00    +0.000 A 
ATOM     18 CL   UNL     1       7.618  12.429  17.185  0.00  0.00    +0.000 Cl
ENDBRANCH   8  11
ENDBRANCH   1   9
BRANCH   5  19
ATOM     19  S   UNL     1       4.968   6.111  16.545  0.00  0.00    +0.000 S 
ATOM     20  O   UNL     1       5.065   6.896  15.335  0.00  0.00    +0.000 OA
ATOM     21  O   UNL     1       4.867   4.667  16.494  0.00  0.00    +0.000 OA
BRANCH  19  22
ATOM     22  N   UNL     1       3.657   6.739  17.409  0.00  0.00    +0.000 N 
ATOM     23  H   UNL     1       3.872   7.650  17.810  0.00  0.00    +0.000 HD
BRANCH  22  24
ATOM     24  C   UNL     1       2.891   5.849  18.212  0.00  0.00    +0.000 A 
ATOM     25  C   UNL     1       2.991   5.918  19.600  0.00  0.00    +0.000 A 
ATOM     26  C   UNL     1       2.315   4.989  20.391  0.00  0.00    +0.000 A 
ATOM     27  C   UNL     1       1.527   4.006  19.792  0.00  0.00    +0.000 A 
ATOM     28  C   UNL     1       1.420   3.946  18.403  0.00  0.00    +0.000 A 
ATOM     29  C   UNL     1       2.114   4.861  17.609  0.00  0.00    +0.000 A 
ENDBRANCH  22  24
ENDBRANCH  19  22
ENDBRANCH   5  19
TORSDOF 5
ENDMDL
MODEL 2
REMARK VINA RESULT:      -8.4      5.495      7.636
REMARK  Name = 
REMARK  5 active torsions:
REMARK  status: ('A' for Active; 'I' for Inactive)
REMARK    1  A    between atoms: C_2  and  C_20
REMARK    2  A    between atoms: N_3  and  C_4
REMARK    3  A    between atoms: C_8  and  S_9
REMARK    4  A    between atoms: S_9  and  N_12
REMARK    5  A    between atoms: N_12  and  C_13
REMARK                            x       y       z     vdW  Elec       q    Type
REMARK                         _______ _______ _______ _____ _____    ______ ____
ROOT
ATOM      1  C   UNL     1       3.683   5.631  19.410  0.00  0.00    +0.000 A 
ATOM      2  C   UNL     1       3.344   4.276  19.480  0.00  0.00    +0.000 A 
ATOM      3  C   UNL     1       4.165   3.298  18.920  0.00  0.00    +0.000 A 
ATOM      4  C   UNL     1       5.346   3.663  18.284  0.00  0.00    +0.000 A 
ATOM      5  C   UNL     1       5.698   5.015  18.217  0.00  0.00    +0.000 A 
ATOM      6  C   UNL     1       4.860   6.005  18.753  0.00  0.00    +0.000 A 
ENDROOT
BRANCH   1   9
ATOM      7  O   UNL     1       2.010   7.601  18.031  0.00  0.00    +0.000 OA
ATOM      8  C   UNL     1       2.110   7.552  19.254  0.00  0.00    +0.000 C 
ATOM      9  N   UNL     1       2.870   6.643  19.967  0.00  0.00    +0.000 N 
ATOM     10  H   UNL     1       2.754   6.620  20.975  0.00  0.00    +0.000 HD
BRANCH   8  11
ATOM     11  C   UNL     1       1.328   8.557  20.023  0.00  0.00    +0.000 A 
ATOM     12  C   UNL     1       0.800   8.110  21.250  0.00  0.00    +0.000 A 
ATOM     13  C   UNL     1       0.135   8.988  22.109  0.00  0.00    +0.000 A 
ATOM     14  C   UNL     1      -0.000  10.324  21.746  0.00  0.00    +0.000 A 
ATOM     15 CL   UNL     1      -0.772  11.425  22.818  0.00  0.00    +0.000 Cl
ATOM     16  C   UNL     1       0.502  10.781  20.529  0.00  0.00    +0.000 A 
ATOM     17  C   UNL     1       1.164   9.902  19.663  0.00  0.00    +0.000 A 
ATOM     18 CL   UNL     1       1.784  10.588  18.202  0.00  0.00    +0.000 Cl
ENDBRANCH   8  11
ENDBRANCH   1   9
BRANCH   5  19
ATOM     19  S   UNL     1       7.202   5.467  17.373  0.00  0.00    +0.000 S 
ATOM     20  O   UNL     1       7.819   6.528  18.136  0.00  0.00    +0.000 OA
ATOM     21  O   UNL     1       7.923   4.246  17.071  0.00  0.00    +0.000 OA
BRANCH  19  22
ATOM     22  N   UNL     1       6.662   6.174  15.935  0.00  0.00    +0.000 N 
ATOM     23  H   UNL     1       5.920   6.851  16.104  0.00  0.00    +0.000 HD
BRANCH  22  24
ATOM     24  C   UNL     1       6.527   5.347  14.787  0.00  0.00    +0.000 A 
ATOM     25  C   UNL     1       5.428   4.496  14.679  0.00  0.00    +0.000 A 
ATOM     26  C   UNL     1       5.335   3.615  13.602  0.00  0.00    +0.000 A 
ATOM     27  C   UNL     1       6.332   3.601  12.626  0.00  0.00    +0.000 A 
ATOM     28  C   UNL     1       7.425   4.460  12.730  0.00  0.00    +0.000 A 
ATOM     29  C   UNL     1       7.531   5.326  13.819  0.00  0.00    +0.000 A 
ENDBRANCH  22  24
ENDBRANCH  19  22
ENDBRANCH   5  19
TORSDOF 5
ENDMDL
MODEL 3
REMARK VINA RESULT:      -8.3      5.581      7.723
REMARK  Name = 
REMARK  5 active torsions:
REMARK  status: ('A' for Active; 'I' for Inactive)
REMARK    1  A    between atoms: C_2  and  C_20
REMARK    2  A    between atoms: N_3  and  C_4
REMARK    3  A    between atoms: C_8  and  S_9
REMARK    4  A    between atoms: S_9  and  N_12
REMARK    5  A    between atoms: N_12  and  C_13
REMARK                            x       y       z     vdW  Elec       q    Type
REMARK                         _______ _______ _______ _____ _____    ______ ____
ROOT
ATOM      1  C   UNL     1       3.388   6.044  18.330  0.00  0.00    +0.000 A 
ATOM      2  C   UNL     1       2.795   4.790  18.154  0.00  0.00    +0.000 A 
ATOM      3  C   UNL     1       3.514   3.721  17.621  0.00  0.00    +0.000 A 
ATOM      4  C   UNL     1       4.846   3.891  17.260  0.00  0.00    +0.000 A 
ATOM      5  C   UNL     1       5.450   5.140  17.440  0.00  0.00    +0.000 A 
ATOM      6  C   UNL     1       4.722   6.226  17.949  0.00  0.00    +0.000 A 
ENDROOT
BRANCH   1   9
ATOM      7  O   UNL     1       1.846   6.194  20.817  0.00  0.00    +0.000 OA
ATOM      8  C   UNL     1       1.963   7.144  20.047  0.00  0.00    +0.000 C 
ATOM      9  N   UNL     1       2.684   7.145  18.867  0.00  0.00    +0.000 N 
ATOM     10  H   UNL     1       2.817   8.034  18.397  0.00  0.00    +0.000 HD
BRANCH   8  11
ATOM     11  C   UNL     1       1.273   8.403  20.439  0.00  0.00    +0.000 A 
ATOM     12  C   UNL     1       0.996   8.544  21.814  0.00  0.00    +0.000 A 
ATOM     13  C   UNL     1       0.444   9.723  22.318  0.00  0.00    +0.000 A 
ATOM     14  C   UNL     1       0.170  10.773  21.449  0.00  0.00    +0.000 A 
ATOM     15 CL   UNL     1      -0.463  12.248  22.065  0.00  0.00    +0.000 Cl
ATOM     16  C   UNL     1       0.423  10.646  20.084  0.00  0.00    +0.000 A 
ATOM     17  C   UNL     1       0.971   9.463  19.574  0.00  0.00    +0.000 A 
ATOM     18 CL   UNL     1       1.284   9.434  17.874  0.00  0.00    +0.000 Cl
ENDBRANCH   8  11
ENDBRANCH   1   9
BRANCH   5  19
ATOM     19  S   UNL     1       7.151   5.346  16.945  0.00  0.00    +0.000 S 
ATOM     20  O   UNL     1       7.715   6.386  17.774  0.00  0.00    +0.000 OA
ATOM     21  O   UNL     1       7.755   4.030  16.880  0.00  0.00    +0.000 OA
BRANCH  19  22
ATOM     22  N   UNL     1       7.042   5.994  15.386  0.00  0.00    +0.000 N 
ATOM     23  H   UNL     1       6.507   6.861  15.376  0.00  0.00    +0.000 HD
BRANCH  22  24
ATOM     24  C   UNL     1       6.839   5.101  14.298  0.00  0.00    +0.000 A 
ATOM     25  C   UNL     1       7.749   5.087  13.243  0.00  0.00    +0.000 A 
ATOM     26  C   UNL     1       7.508   4.281  12.130  0.00  0.00    +0.000 A 
ATOM     27  C   UNL     1       6.368   3.478  12.085  0.00  0.00    +0.000 A 
ATOM     28  C   UNL     1       5.465   3.486  13.147  0.00  0.00    +0.000 A 
ATOM     29  C   UNL     1       5.692   4.309  14.251  0.00  0.00    +0.000 A 
ENDBRANCH  22  24
ENDBRANCH  19  22
ENDBRANCH   5  19
TORSDOF 5
ENDMDL
MODEL 4
REMARK VINA RESULT:      -8.3      1.573      2.116
REMARK  Name = 
REMARK  5 active torsions:
REMARK  status: ('A' for Active; 'I' for Inactive)
REMARK    1  A    between atoms: C_2  and  C_20
REMARK    2  A    between atoms: N_3  and  C_4
REMARK    3  A    between atoms: C_8  and  S_9
REMARK    4  A    between atoms: S_9  and  N_12
REMARK    5  A    between atoms: N_12  and  C_13
REMARK                            x       y       z     vdW  Elec       q    Type
REMARK                         _______ _______ _______ _____ _____    ______ ____
ROOT
ATOM      1  C   UNL     1       8.045   8.225  17.994  0.00  0.00    +0.000 A 
ATOM      2  C   UNL     1       8.546   7.409  19.013  0.00  0.00    +0.000 A 
ATOM      3  C   UNL     1       8.093   6.100  19.176  0.00  0.00    +0.000 A 
ATOM      4  C   UNL     1       7.132   5.585  18.314  0.00  0.00    +0.000 A 
ATOM      5  C   UNL     1       6.631   6.391  17.286  0.00  0.00    +0.000 A 
ATOM      6  C   UNL     1       7.062   7.718  17.136  0.00  0.00    +0.000 A 
ENDROOT
BRANCH   1   9
ATOM      7  O   UNL     1       9.312  10.025  19.927  0.00  0.00    +0.000 OA
ATOM      8  C   UNL     1       9.067  10.356  18.770  0.00  0.00    +0.000 C 
ATOM      9  N   UNL     1       8.484   9.554  17.805  0.00  0.00    +0.000 N 
ATOM     10  H   UNL     1       8.468   9.901  16.852  0.00  0.00    +0.000 HD
BRANCH   8  11
ATOM     11  C   UNL     1       9.450  11.740  18.382  0.00  0.00    +0.000 A 
ATOM     12  C   UNL     1       8.400  12.557  17.918  0.00  0.00    +0.000 A 
ATOM     13  C   UNL     1       8.615  13.904  17.621  0.00  0.00    +0.000 A 
ATOM     14  C   UNL     1       9.884  14.446  17.791  0.00  0.00    +0.000 A 
ATOM     15 CL   UNL     1      10.149  16.115  17.476  0.00  0.00    +0.000 Cl
ATOM     16  C   UNL     1      10.939  13.650  18.234  0.00  0.00    +0.000 A 
ATOM     17  C   UNL     1      10.729  12.297  18.528  0.00  0.00    +0.000 A 
ATOM     18 CL   UNL     1      12.098  11.418  19.111  0.00  0.00    +0.000 Cl
ENDBRANCH   8  11
ENDBRANCH   1   9
BRANCH   5  19
ATOM     19  S   UNL     1       5.378   5.722  16.208  0.00  0.00    +0.000 S 
ATOM     20  O   UNL     1       5.055   6.746  15.240  0.00  0.00    +0.000 OA
ATOM     21  O   UNL     1       5.815   4.406  15.787  0.00  0.00    +0.000 OA
BRANCH  19  22
ATOM     22  N   UNL     1       4.022   5.574  17.208  0.00  0.00    +0.000 N 
ATOM     23  H   UNL     1       3.930   6.370  17.836  0.00  0.00    +0.000 HD
BRANCH  22  24
ATOM     24  C   UNL     1       3.718   4.293  17.744  0.00  0.00    +0.000 A 
ATOM     25  C   UNL     1       2.755   3.500  17.124  0.00  0.00    +0.000 A 
ATOM     26  C   UNL     1       2.385   2.282  17.696  0.00  0.00    +0.000 A 
ATOM     27  C   UNL     1       2.993   1.854  18.876  0.00  0.00    +0.000 A 
ATOM     28  C   UNL     1       3.964   2.644  19.489  0.00  0.00    +0.000 A 
ATOM     29  C   UNL     1       4.319   3.873  18.931  0.00  0.00    +0.000 A 
ENDBRANCH  22  24
ENDBRANCH  19  22
ENDBRANCH   5  19
TORSDOF 5
ENDMDL
MODEL 5
REMARK VINA RESULT:      -8.3      5.499      7.828
REMARK  Name = 
REMARK  5 active torsions:
REMARK  status: ('A' for Active; 'I' for Inactive)
REMARK    1  A    between atoms: C_2  and  C_20
REMARK    2  A    between atoms: N_3  and  C_4
REMARK    3  A    between atoms: C_8  and  S_9
REMARK    4  A    between atoms: S_9  and  N_12
REMARK    5  A    between atoms: N_12  and  C_13
REMARK                            x       y       z     vdW  Elec       q    Type
REMARK                         _______ _______ _______ _____ _____    ______ ____
ROOT
ATOM      1  C   UNL     1       2.616   6.852  18.870  0.00  0.00    +0.000 A 
ATOM      2  C   UNL     1       2.231   5.516  19.015  0.00  0.00    +0.000 A 
ATOM      3  C   UNL     1       2.890   4.498  18.326  0.00  0.00    +0.000 A 
ATOM      4  C   UNL     1       3.953   4.804  17.485  0.00  0.00    +0.000 A 
ATOM      5  C   UNL     1       4.352   6.137  17.341  0.00  0.00    +0.000 A 
ATOM      6  C   UNL     1       3.673   7.167  18.008  0.00  0.00    +0.000 A 
ENDROOT
BRANCH   1   9
ATOM      7  O   UNL     1       1.418   9.287  17.767  0.00  0.00    +0.000 OA
ATOM      8  C   UNL     1       1.430   9.037  18.968  0.00  0.00    +0.000 C 
ATOM      9  N   UNL     1       1.966   7.904  19.554  0.00  0.00    +0.000 N 
ATOM     10  H   UNL     1       1.784   7.752  20.540  0.00  0.00    +0.000 HD
BRANCH   8  11
ATOM     11  C   UNL     1       0.796  10.045  19.861  0.00  0.00    +0.000 A 
ATOM     12  C   UNL     1      -0.005   9.524  20.897  0.00  0.00    +0.000 A 
ATOM     13  C   UNL     1      -0.569  10.364  21.860  0.00  0.00    +0.000 A 
ATOM     14  C   UNL     1      -0.331  11.732  21.794  0.00  0.00    +0.000 A 
ATOM     15 CL   UNL     1      -0.980  12.770  23.002  0.00  0.00    +0.000 Cl
ATOM     16  C   UNL     1       0.445  12.267  20.767  0.00  0.00    +0.000 A 
ATOM     17  C   UNL     1       1.008  11.429  19.797  0.00  0.00    +0.000 A 
ATOM     18 CL   UNL     1       1.988  12.196  18.598  0.00  0.00    +0.000 Cl
ENDBRANCH   8  11
ENDBRANCH   1   9
BRANCH   5  19
ATOM     19  S   UNL     1       5.700   6.512  16.236  0.00  0.00    +0.000 S 
ATOM     20  O   UNL     1       5.120   6.967  14.993  0.00  0.00    +0.000 OA
ATOM     21  O   UNL     1       6.652   7.329  16.961  0.00  0.00    +0.000 OA
BRANCH  19  22
ATOM     22  N   UNL     1       6.386   5.001  15.909  0.00  0.00    +0.000 N 
ATOM     23  H   UNL     1       7.121   4.770  16.576  0.00  0.00    +0.000 HD
BRANCH  22  24
ATOM     24  C   UNL     1       6.615   4.645  14.552  0.00  0.00    +0.000 A 
ATOM     25  C   UNL     1       7.617   5.293  13.832  0.00  0.00    +0.000 A 
ATOM     26  C   UNL     1       7.786   5.015  12.475  0.00  0.00    +0.000 A 
ATOM     27  C   UNL     1       6.967   4.076  11.849  0.00  0.00    +0.000 A 
ATOM     28  C   UNL     1       5.972   3.421  12.574  0.00  0.00    +0.000 A 
ATOM     29  C   UNL     1       5.786   3.715  13.926  0.00  0.00    +0.000 A 
ENDBRANCH  22  24
ENDBRANCH  19  22
ENDBRANCH   5  19
TORSDOF 5
ENDMDL
MODEL 6
REMARK VINA RESULT:      -8.3      1.105      1.520
REMARK  Name = 
REMARK  5 active torsions:
REMARK  status: ('A' for Active; 'I' for Inactive)
REMARK    1  A    between atoms: C_2  and  C_20
REMARK    2  A    between atoms: N_3  and  C_4
REMARK    3  A    between atoms: C_8  and  S_9
REMARK    4  A    between atoms: S_9  and  N_12
REMARK    5  A    between atoms: N_12  and  C_13
REMARK                            x       y       z     vdW  Elec       q    Type
REMARK                         _______ _______ _______ _____ _____    ______ ____
ROOT
ATOM      1  C   UNL     1       8.007   8.283  18.024  0.00  0.00    +0.000 A 
ATOM      2  C   UNL     1       8.568   7.417  18.969  0.00  0.00    +0.000 A 
ATOM      3  C   UNL     1       8.070   6.127  19.148  0.00  0.00    +0.000 A 
ATOM      4  C   UNL     1       7.003   5.681  18.376  0.00  0.00    +0.000 A 
ATOM      5  C   UNL     1       6.442   6.536  17.423  0.00  0.00    +0.000 A 
ATOM      6  C   UNL     1       6.920   7.845  17.260  0.00  0.00    +0.000 A 
ENDROOT
BRANCH   1   9
ATOM      7  O   UNL     1       9.266  10.089  19.958  0.00  0.00    +0.000 OA
ATOM      8  C   UNL     1       9.066  10.401  18.787  0.00  0.00    +0.000 C 
ATOM      9  N   UNL     1       8.490   9.595  17.822  0.00  0.00    +0.000 N 
ATOM     10  H   UNL     1       8.512   9.921  16.861  0.00  0.00    +0.000 HD
BRANCH   8  11
ATOM     11  C   UNL     1       9.500  11.766  18.383  0.00  0.00    +0.000 A 
ATOM     12  C   UNL     1       8.480  12.615  17.911  0.00  0.00    +0.000 A 
ATOM     13  C   UNL     1       8.744  13.950  17.598  0.00  0.00    +0.000 A 
ATOM     14  C   UNL     1      10.033  14.446  17.760  0.00  0.00    +0.000 A 
ATOM     15 CL   UNL     1      10.360  16.100  17.425  0.00  0.00    +0.000 Cl
ATOM     16  C   UNL     1      11.059  13.616  18.210  0.00  0.00    +0.000 A 
ATOM     17  C   UNL     1      10.799  12.275  18.520  0.00  0.00    +0.000 A 
ATOM     18 CL   UNL     1      12.135  11.352  19.111  0.00  0.00    +0.000 Cl
ENDBRANCH   8  11
ENDBRANCH   1   9
BRANCH   5  19
ATOM     19  S   UNL     1       5.057   5.955  16.462  0.00  0.00    +0.000 S 
ATOM     20  O   UNL     1       5.084   6.662  15.202  0.00  0.00    +0.000 OA
ATOM     21  O   UNL     1       5.064   4.507  16.508  0.00  0.00    +0.000 OA
BRANCH  19  22
ATOM     22  N   UNL     1       3.710   6.541  17.301  0.00  0.00    +0.000 N 
ATOM     23  H   UNL     1       3.851   7.498  17.617  0.00  0.00    +0.000 HD
BRANCH  22  24
ATOM     24  C   UNL     1       3.039   5.661  18.195  0.00  0.00    +0.000 A 
ATOM     25  C   UNL     1       3.455   5.584  19.523  0.00  0.00    +0.000 A 
ATOM     26  C   UNL     1       2.864   4.658  20.383  0.00  0.00    +0.000 A 
ATOM     27  C   UNL     1       1.845   3.826  19.916  0.00  0.00    +0.000 A 
ATOM     28  C   UNL     1       1.424   3.913  18.590  0.00  0.00    +0.000 A 
ATOM     29  C   UNL     1       2.030   4.823  17.723  0.00  0.00    +0.000 A 
ENDBRANCH  22  24
ENDBRANCH  19  22
ENDBRANCH   5  19
TORSDOF 5
ENDMDL
MODEL 7
REMARK VINA RESULT:      -8.2      2.735      4.029
REMARK  Name = 
REMARK  5 active torsions:
REMARK  status: ('A' for Active; 'I' for Inactive)
REMARK    1  A    between atoms: C_2  and  C_20
REMARK    2  A    between atoms: N_3  and  C_4
REMARK    3  A    between atoms: C_8  and  S_9
REMARK    4  A    between atoms: S_9  and  N_12
REMARK    5  A    between atoms: N_12  and  C_13
REMARK                            x       y       z     vdW  Elec       q    Type
REMARK                         _______ _______ _______ _____ _____    ______ ____
ROOT
ATOM      1  C   UNL     1       8.019   8.320  17.986  0.00  0.00    +0.000 A 
ATOM      2  C   UNL     1       8.535   7.457  18.958  0.00  0.00    +0.000 A 
ATOM      3  C   UNL     1       8.035   6.165  19.112  0.00  0.00    +0.000 A 
ATOM      4  C   UNL     1       7.010   5.713  18.288  0.00  0.00    +0.000 A 
ATOM      5  C   UNL     1       6.494   6.566  17.307  0.00  0.00    +0.000 A 
ATOM      6  C   UNL     1       6.974   7.877  17.168  0.00  0.00    +0.000 A 
ENDROOT
BRANCH   1   9
ATOM      7  O   UNL     1       9.264  10.094  19.957  0.00  0.00    +0.000 OA
ATOM      8  C   UNL     1       9.075  10.424  18.790  0.00  0.00    +0.000 C 
ATOM      9  N   UNL     1       8.505   9.635  17.808  0.00  0.00    +0.000 N 
ATOM     10  H   UNL     1       8.536   9.975  16.853  0.00  0.00    +0.000 HD
BRANCH   8  11
ATOM     11  C   UNL     1       9.514  11.795  18.410  0.00  0.00    +0.000 A 
ATOM     12  C   UNL     1       8.499  12.652  17.940  0.00  0.00    +0.000 A 
ATOM     13  C   UNL     1       8.768  13.991  17.648  0.00  0.00    +0.000 A 
ATOM     14  C   UNL     1      10.055  14.483  17.832  0.00  0.00    +0.000 A 
ATOM     15 CL   UNL     1      10.386  16.142  17.525  0.00  0.00    +0.000 Cl
ATOM     16  C   UNL     1      11.075  13.646  18.281  0.00  0.00    +0.000 A 
ATOM     17  C   UNL     1      10.811  12.301  18.569  0.00  0.00    +0.000 A 
ATOM     18 CL   UNL     1      12.140  11.369  19.162  0.00  0.00    +0.000 Cl
ENDBRANCH   8  11
ENDBRANCH   1   9
BRANCH   5  19
ATOM     19  S   UNL     1       5.162   5.979  16.278  0.00  0.00    +0.000 S 
ATOM     20  O   UNL     1       4.029   5.736  17.142  0.00  0.00    +0.000 OA
ATOM     21  O   UNL     1       5.057   6.868  15.139  0.00  0.00    +0.000 OA
BRANCH  19  22
ATOM     22  N   UNL     1       5.693   4.458  15.760  0.00  0.00    +0.000 N 
ATOM     23  H   UNL     1       6.185   3.960  16.499  0.00  0.00    +0.000 HD
BRANCH  22  24
ATOM     24  C   UNL     1       6.220   4.341  14.445  0.00  0.00    +0.000 A 
ATOM     25  C   UNL     1       7.353   5.072  14.092  0.00  0.00    +0.000 A 
ATOM     26  C   UNL     1       7.822   5.035  12.779  0.00  0.00    +0.000 A 
ATOM     27  C   UNL     1       7.168   4.251  11.828  0.00  0.00    +0.000 A 
ATOM     28  C   UNL     1       6.041   3.512  12.186  0.00  0.00    +0.000 A 
ATOM     29  C   UNL     1       5.557   3.567  13.494  0.00  0.00    +0.000 A 
ENDBRANCH  22  24
ENDBRANCH  19  22
ENDBRANCH   5  19
TORSDOF 5
ENDMDL
MODEL 8
REMARK VINA RESULT:      -8.1      5.850      8.077
REMARK  Name = 
REMARK  5 active torsions:
REMARK  status: ('A' for Active; 'I' for Inactive)
REMARK    1  A    between atoms: C_2  and  C_20
REMARK    2  A    between atoms: N_3  and  C_4
REMARK    3  A    between atoms: C_8  and  S_9
REMARK    4  A    between atoms: S_9  and  N_12
REMARK    5  A    between atoms: N_12  and  C_13
REMARK                            x       y       z     vdW  Elec       q    Type
REMARK                         _______ _______ _______ _____ _____    ______ ____
ROOT
ATOM      1  C   UNL     1       2.798   6.077  19.141  0.00  0.00    +0.000 A 
ATOM      2  C   UNL     1       2.671   4.693  19.298  0.00  0.00    +0.000 A 
ATOM      3  C   UNL     1       3.495   3.811  18.599  0.00  0.00    +0.000 A 
ATOM      4  C   UNL     1       4.466   4.303  17.735  0.00  0.00    +0.000 A 
ATOM      5  C   UNL     1       4.606   5.686  17.578  0.00  0.00    +0.000 A 
ATOM      6  C   UNL     1       3.760   6.577  18.256  0.00  0.00    +0.000 A 
ENDROOT
BRANCH   1   9
ATOM      7  O   UNL     1       2.078   8.817  18.393  0.00  0.00    +0.000 OA
ATOM      8  C   UNL     1       1.686   8.284  19.427  0.00  0.00    +0.000 C 
ATOM      9  N   UNL     1       1.977   6.994  19.834  0.00  0.00    +0.000 N 
ATOM     10  H   UNL     1       1.475   6.629  20.636  0.00  0.00    +0.000 HD
BRANCH   8  11
ATOM     11  C   UNL     1       0.810   9.107  20.305  0.00  0.00    +0.000 A 
ATOM     12  C   UNL     1       0.975   8.908  21.690  0.00  0.00    +0.000 A 
ATOM     13  C   UNL     1       0.284   9.693  22.615  0.00  0.00    +0.000 A 
ATOM     14  C   UNL     1      -0.575  10.687  22.160  0.00  0.00    +0.000 A 
ATOM     15 CL   UNL     1      -1.393  11.692  23.290  0.00  0.00    +0.000 Cl
ATOM     16  C   UNL     1      -0.763  10.888  20.793  0.00  0.00    +0.000 A 
ATOM     17  C   UNL     1      -0.076  10.099  19.862  0.00  0.00    +0.000 A 
ATOM     18 CL   UNL     1      -0.352  10.466  18.195  0.00  0.00    +0.000 Cl
ENDBRANCH   8  11
ENDBRANCH   1   9
BRANCH   5  19
ATOM     19  S   UNL     1       5.838   6.298  16.444  0.00  0.00    +0.000 S 
ATOM     20  O   UNL     1       5.137   6.842  15.303  0.00  0.00    +0.000 OA
ATOM     21  O   UNL     1       6.774   7.104  17.201  0.00  0.00    +0.000 OA
BRANCH  19  22
ATOM     22  N   UNL     1       6.613   4.897  15.896  0.00  0.00    +0.000 N 
ATOM     23  H   UNL     1       7.446   4.690  16.445  0.00  0.00    +0.000 HD
BRANCH  22  24
ATOM     24  C   UNL     1       6.697   4.679  14.494  0.00  0.00    +0.000 A 
ATOM     25  C   UNL     1       5.891   3.708  13.901  0.00  0.00    +0.000 A 
ATOM     26  C   UNL     1       6.033   3.424  12.543  0.00  0.00    +0.000 A 
ATOM     27  C   UNL     1       6.966   4.125  11.778  0.00  0.00    +0.000 A 
ATOM     28  C   UNL     1       7.763   5.104  12.371  0.00  0.00    +0.000 A 
ATOM     29  C   UNL     1       7.639   5.373  13.735  0.00  0.00    +0.000 A 
ENDBRANCH  22  24
ENDBRANCH  19  22
ENDBRANCH   5  19
TORSDOF 5
ENDMDL
MODEL 9
REMARK VINA RESULT:      -8.1      5.905      7.991
REMARK  Name = 
REMARK  5 active torsions:
REMARK  status: ('A' for Active; 'I' for Inactive)
REMARK    1  A    between atoms: C_2  and  C_20
REMARK    2  A    between atoms: N_3  and  C_4
REMARK    3  A    between atoms: C_8  and  S_9
REMARK    4  A    between atoms: S_9  and  N_12
REMARK    5  A    between atoms: N_12  and  C_13
REMARK                            x       y       z     vdW  Elec       q    Type
REMARK                         _______ _______ _______ _____ _____    ______ ____
ROOT
ATOM      1  C   UNL     1       2.476   5.765  20.158  0.00  0.00    +0.000 A 
ATOM      2  C   UNL     1       2.008   4.452  20.049  0.00  0.00    +0.000 A 
ATOM      3  C   UNL     1       2.827   3.433  19.564  0.00  0.00    +0.000 A 
ATOM      4  C   UNL     1       4.134   3.714  19.183  0.00  0.00    +0.000 A 
ATOM      5  C   UNL     1       4.614   5.022  19.296  0.00  0.00    +0.000 A 
ATOM      6  C   UNL     1       3.785   6.057  19.757  0.00  0.00    +0.000 A 
ENDROOT
BRANCH   1   9
ATOM      7  O   UNL     1       2.035   8.420  19.000  0.00  0.00    +0.000 OA
ATOM      8  C   UNL     1       1.514   8.057  20.051  0.00  0.00    +0.000 C 
ATOM      9  N   UNL     1       1.670   6.818  20.645  0.00  0.00    +0.000 N 
ATOM     10  H   UNL     1       1.073   6.596  21.435  0.00  0.00    +0.000 HD
BRANCH   8  11
ATOM     11  C   UNL     1       0.630   9.044  20.727  0.00  0.00    +0.000 A 
ATOM     12  C   UNL     1       0.656   9.023  22.136  0.00  0.00    +0.000 A 
ATOM     13  C   UNL     1      -0.052   9.966  22.882  0.00  0.00    +0.000 A 
ATOM     14  C   UNL     1      -0.789  10.944  22.222  0.00  0.00    +0.000 A 
ATOM     15 CL   UNL     1      -1.624  12.141  23.129  0.00  0.00    +0.000 Cl
ATOM     16  C   UNL     1      -0.840  10.971  20.829  0.00  0.00    +0.000 A 
ATOM     17  C   UNL     1      -0.135  10.023  20.077  0.00  0.00    +0.000 A 
ATOM     18 CL   UNL     1      -0.235  10.179  18.359  0.00  0.00    +0.000 Cl
ENDBRANCH   8  11
ENDBRANCH   1   9
BRANCH   5  19
ATOM     19  S   UNL     1       6.284   5.368  18.778  0.00  0.00    +0.000 S 
ATOM     20  O   UNL     1       6.232   6.516  17.901  0.00  0.00    +0.000 OA
ATOM     21  O   UNL     1       7.124   5.366  19.959  0.00  0.00    +0.000 OA
BRANCH  19  22
ATOM     22  N   UNL     1       6.685   4.047  17.799  0.00  0.00    +0.000 N 
ATOM     23  H   UNL     1       7.525   3.576  18.129  0.00  0.00    +0.000 HD
BRANCH  22  24
ATOM     24  C   UNL     1       6.534   4.183  16.392  0.00  0.00    +0.000 A 
ATOM     25  C   UNL     1       7.550   4.780  15.647  0.00  0.00    +0.000 A 
ATOM     26  C   UNL     1       7.371   5.000  14.281  0.00  0.00    +0.000 A 
ATOM     27  C   UNL     1       6.185   4.604  13.661  0.00  0.00    +0.000 A 
ATOM     28  C   UNL     1       5.176   3.996  14.406  0.00  0.00    +0.000 A 
ATOM     29  C   UNL     1       5.344   3.796  15.777  0.00  0.00    +0.000 A 
ENDBRANCH  22  24
ENDBRANCH  19  22
ENDBRANCH   5  19
TORSDOF 5
ENDMDL
