MODEL 1
REMARK VINA RESULT:      -7.5      0.000      0.000
REMARK  Name = 
REMARK  7 active torsions:
REMARK  status: ('A' for Active; 'I' for Inactive)
REMARK    1  A    between atoms: S_2  and  N_4
REMARK    2  A    between atoms: S_2  and  C_19
REMARK    3  A    between atoms: N_4  and  C_5
REMARK    4  A    between atoms: C_5  and  C_6
REMARK    5  A    between atoms: C_6  and  C_7
REMARK    6  A    between atoms: C_7  and  C_8
REMARK    7  A    between atoms: C_8  and  N_9
REMARK                            x       y       z     vdW  Elec       q    Type
REMARK                         _______ _______ _______ _____ _____    ______ ____
ROOT
ATOM      1  C   UNL     1       8.050   7.644  18.270  0.00  0.00    +0.000 C 
ENDROOT
BRANCH   1   2
ATOM      2  C   UNL     1       8.098   9.106  17.838  0.00  0.00    +0.000 C 
BRANCH   2   3
ATOM      3  N   UNL     1       8.901   9.912  18.761  0.00  0.00    +0.000 NA
ATOM      4  H   UNL     1       8.603   9.927  19.736  0.00  0.00    +0.000 HD
BRANCH   3   6
ATOM      5  O   UNL     1      10.641  11.373  17.640  0.00  0.00    +0.000 OA
ATOM      6  S   UNL     1       9.307  11.459  18.197  0.00  0.00    +0.000 S 
ATOM      7  O   UNL     1       8.187  11.971  17.439  0.00  0.00    +0.000 OA
BRANCH   6   8
ATOM      8  C   UNL     1       9.429  12.380  19.714  0.00  0.00    +0.000 A 
ATOM      9  C   UNL     1       9.164  11.735  20.929  0.00  0.00    +0.000 A 
ATOM     10  C   UNL     1       9.248  12.457  22.120  0.00  0.00    +0.000 A 
ATOM     11  C   UNL     1       9.602  13.807  22.094  0.00  0.00    +0.000 A 
ATOM     12  C   UNL     1       9.873  14.442  20.880  0.00  0.00    +0.000 A 
ATOM     13  C   UNL     1       9.786  13.731  19.683  0.00  0.00    +0.000 A 
ENDBRANCH   6   8
ENDBRANCH   3   6
ENDBRANCH   2   3
ENDBRANCH   1   2
BRANCH   1  14
ATOM     14  C   UNL     1       7.349   6.791  17.203  0.00  0.00    +0.000 C 
BRANCH  14  15
ATOM     15  C   UNL     1       5.815   6.867  17.308  0.00  0.00    +0.000 C 
BRANCH  15  16
ATOM     16  N   UNL     1       5.199   5.785  18.087  0.00  0.00    +0.000 NA
ATOM     17  C   UNL     1       5.474   4.476  17.444  0.00  0.00    +0.000 C 
ATOM     18  C   UNL     1       4.286   3.820  16.720  0.00  0.00    +0.000 C 
ATOM     19  C   UNL     1       3.144   3.708  17.690  0.00  0.00    +0.000 A 
ATOM     20  C   UNL     1       2.322   2.584  17.771  0.00  0.00    +0.000 A 
ATOM     21  C   UNL     1       1.297   2.546  18.715  0.00  0.00    +0.000 A 
ATOM     22  C   UNL     1       1.084   3.630  19.569  0.00  0.00    +0.000 A 
ATOM     23  C   UNL     1       1.891   4.764  19.477  0.00  0.00    +0.000 A 
ATOM     24  C   UNL     1       2.927   4.803  18.542  0.00  0.00    +0.000 A 
ATOM     25  C   UNL     1       3.765   6.039  18.333  0.00  0.00    +0.000 C 
ENDBRANCH  15  16
ENDBRANCH  14  15
ENDBRANCH   1  14
TORSDOF 7
ENDMDL
MODEL 2
REMARK VINA RESULT:      -7.5      3.060     10.490
REMARK  Name = 
REMARK  7 active torsions:
REMARK  status: ('A' for Active; 'I' for Inactive)
REMARK    1  A    between atoms: S_2  and  N_4
REMARK    2  A    between atoms: S_2  and  C_19
REMARK    3  A    between atoms: N_4  and  C_5
REMARK    4  A    between atoms: C_5  and  C_6
REMARK    5  A    between atoms: C_6  and  C_7
REMARK    6  A    between atoms: C_7  and  C_8
REMARK    7  A    between atoms: C_8  and  N_9
REMARK                            x       y       z     vdW  Elec       q    Type
REMARK                         _______ _______ _______ _____ _____    ______ ____
ROOT
ATOM      1  C   UNL     1       8.199   8.223  18.418  0.00  0.00    +0.000 C 
ENDROOT
BRANCH   1   2
ATOM      2  C   UNL     1       7.549   7.681  17.149  0.00  0.00    +0.000 C 
BRANCH   2   3
ATOM      3  N   UNL     1       6.300   6.977  17.444  0.00  0.00    +0.000 NA
ATOM      4  H   UNL     1       6.014   6.937  18.422  0.00  0.00    +0.000 HD
BRANCH   3   6
ATOM      5  O   UNL     1       6.100   5.735  15.244  0.00  0.00    +0.000 OA
ATOM      6  S   UNL     1       6.120   5.479  16.669  0.00  0.00    +0.000 S 
ATOM      7  O   UNL     1       7.044   4.545  17.272  0.00  0.00    +0.000 OA
BRANCH   6   8
ATOM      8  C   UNL     1       4.467   5.020  17.142  0.00  0.00    +0.000 A 
ATOM      9  C   UNL     1       3.999   3.736  16.836  0.00  0.00    +0.000 A 
ATOM     10  C   UNL     1       2.700   3.376  17.194  0.00  0.00    +0.000 A 
ATOM     11  C   UNL     1       1.881   4.291  17.861  0.00  0.00    +0.000 A 
ATOM     12  C   UNL     1       2.357   5.567  18.170  0.00  0.00    +0.000 A 
ATOM     13  C   UNL     1       3.652   5.938  17.810  0.00  0.00    +0.000 A 
ENDBRANCH   6   8
ENDBRANCH   3   6
ENDBRANCH   2   3
ENDBRANCH   1   2
BRANCH   1  14
ATOM     14  C   UNL     1       8.644   9.678  18.216  0.00  0.00    +0.000 C 
BRANCH  14  15
ATOM     15  C   UNL     1       9.315  10.264  19.472  0.00  0.00    +0.000 C 
BRANCH  15  16
ATOM     16  N   UNL     1      10.420  11.192  19.200  0.00  0.00    +0.000 NA
ATOM     17  C   UNL     1      10.824  11.882  20.450  0.00  0.00    +0.000 C 
ATOM     18  C   UNL     1      10.407  13.358  20.569  0.00  0.00    +0.000 C 
ATOM     19  C   UNL     1      10.922  14.093  19.364  0.00  0.00    +0.000 A 
ATOM     20  C   UNL     1      11.484  15.368  19.434  0.00  0.00    +0.000 A 
ATOM     21  C   UNL     1      11.962  15.975  18.274  0.00  0.00    +0.000 A 
ATOM     22  C   UNL     1      11.870  15.319  17.044  0.00  0.00    +0.000 A 
ATOM     23  C   UNL     1      11.290  14.053  16.968  0.00  0.00    +0.000 A 
ATOM     24  C   UNL     1      10.821  13.434  18.128  0.00  0.00    +0.000 A 
ATOM     25  C   UNL     1      10.098  12.112  18.089  0.00  0.00    +0.000 C 
ENDBRANCH  15  16
ENDBRANCH  14  15
ENDBRANCH   1  14
TORSDOF 7
ENDMDL
MODEL 3
REMARK VINA RESULT:      -7.4      5.561      8.278
REMARK  Name = 
REMARK  7 active torsions:
REMARK  status: ('A' for Active; 'I' for Inactive)
REMARK    1  A    between atoms: S_2  and  N_4
REMARK    2  A    between atoms: S_2  and  C_19
REMARK    3  A    between atoms: N_4  and  C_5
REMARK    4  A    between atoms: C_5  and  C_6
REMARK    5  A    between atoms: C_6  and  C_7
REMARK    6  A    between atoms: C_7  and  C_8
REMARK    7  A    between atoms: C_8  and  N_9
REMARK                            x       y       z     vdW  Elec       q    Type
REMARK                         _______ _______ _______ _____ _____    ______ ____
ROOT
ATOM      1  C   UNL     1       4.245   7.026  17.494  0.00  0.00    +0.000 C 
ENDROOT
BRANCH   1   2
ATOM      2  C   UNL     1       5.204   5.962  18.019  0.00  0.00    +0.000 C 
BRANCH   2   3
ATOM      3  N   UNL     1       5.585   5.018  16.966  0.00  0.00    +0.000 NA
ATOM      4  H   UNL     1       5.337   4.040  17.113  0.00  0.00    +0.000 HD
BRANCH   3   6
ATOM      5  O   UNL     1       7.489   6.602  16.429  0.00  0.00    +0.000 OA
ATOM      6  S   UNL     1       7.171   5.189  16.389  0.00  0.00    +0.000 S 
ATOM      7  O   UNL     1       7.997   4.194  17.035  0.00  0.00    +0.000 OA
BRANCH   6   8
ATOM      8  C   UNL     1       6.986   4.742  14.677  0.00  0.00    +0.000 A 
ATOM      9  C   UNL     1       7.808   5.349  13.719  0.00  0.00    +0.000 A 
ATOM     10  C   UNL     1       7.657   5.010  12.374  0.00  0.00    +0.000 A 
ATOM     11  C   UNL     1       6.700   4.067  11.994  0.00  0.00    +0.000 A 
ATOM     12  C   UNL     1       5.889   3.460  12.956  0.00  0.00    +0.000 A 
ATOM     13  C   UNL     1       6.027   3.797  14.302  0.00  0.00    +0.000 A 
ENDBRANCH   6   8
ENDBRANCH   3   6
ENDBRANCH   2   3
ENDBRANCH   1   2
BRANCH   1  14
ATOM     14  C   UNL     1       2.824   6.776  18.018  0.00  0.00    +0.000 C 
BRANCH  14  15
ATOM     15  C   UNL     1       1.945   8.038  17.951  0.00  0.00    +0.000 C 
BRANCH  15  16
ATOM     16  N   UNL     1       1.887   8.811  19.198  0.00  0.00    +0.000 NA
ATOM     17  C   UNL     1       1.935   7.897  20.365  0.00  0.00    +0.000 C 
ATOM     18  C   UNL     1       0.612   7.706  21.126  0.00  0.00    +0.000 C 
ATOM     19  C   UNL     1       0.098   9.059  21.529  0.00  0.00    +0.000 A 
ATOM     20  C   UNL     1      -0.474   9.314  22.776  0.00  0.00    +0.000 A 
ATOM     21  C   UNL     1      -0.905  10.603  23.084  0.00  0.00    +0.000 A 
ATOM     22  C   UNL     1      -0.779  11.633  22.150  0.00  0.00    +0.000 A 
ATOM     23  C   UNL     1      -0.226  11.376  20.896  0.00  0.00    +0.000 A 
ATOM     24  C   UNL     1       0.220  10.090  20.584  0.00  0.00    +0.000 A 
ATOM     25  C   UNL     1       0.734   9.735  19.212  0.00  0.00    +0.000 C 
ENDBRANCH  15  16
ENDBRANCH  14  15
ENDBRANCH   1  14
TORSDOF 7
ENDMDL
MODEL 4
REMARK VINA RESULT:      -7.4      5.946      8.962
REMARK  Name = 
REMARK  7 active torsions:
REMARK  status: ('A' for Active; 'I' for Inactive)
REMARK    1  A    between atoms: S_2  and  N_4
REMARK    2  A    between atoms: S_2  and  C_19
REMARK    3  A    between atoms: N_4  and  C_5
REMARK    4  A    between atoms: C_5  and  C_6
REMARK    5  A    between atoms: C_6  and  C_7
REMARK    6  A    between atoms: C_7  and  C_8
REMARK    7  A    between atoms: C_8  and  N_9
REMARK                            x       y       z     vdW  Elec       q    Type
REMARK                         _______ _______ _______ _____ _____    ______ ____
ROOT
ATOM      1  C   UNL     1       3.938   7.401  17.084  0.00  0.00    +0.000 C 
ENDROOT
BRANCH   1   2
ATOM      2  C   UNL     1       4.681   6.094  17.340  0.00  0.00    +0.000 C 
BRANCH   2   3
ATOM      3  N   UNL     1       3.770   4.948  17.333  0.00  0.00    +0.000 NA
ATOM      4  H   UNL     1       2.788   5.140  17.529  0.00  0.00    +0.000 HD
BRANCH   3   6
ATOM      5  O   UNL     1       4.183   2.449  17.279  0.00  0.00    +0.000 OA
ATOM      6  S   UNL     1       4.329   3.582  18.169  0.00  0.00    +0.000 S 
ATOM      7  O   UNL     1       5.591   3.917  18.789  0.00  0.00    +0.000 OA
BRANCH   6   8
ATOM      8  C   UNL     1       3.102   3.408  19.445  0.00  0.00    +0.000 A 
ATOM      9  C   UNL     1       3.418   2.688  20.604  0.00  0.00    +0.000 A 
ATOM     10  C   UNL     1       2.454   2.539  21.603  0.00  0.00    +0.000 A 
ATOM     11  C   UNL     1       1.191   3.114  21.445  0.00  0.00    +0.000 A 
ATOM     12  C   UNL     1       0.885   3.838  20.290  0.00  0.00    +0.000 A 
ATOM     13  C   UNL     1       1.839   3.987  19.284  0.00  0.00    +0.000 A 
ENDBRANCH   6   8
ENDBRANCH   3   6
ENDBRANCH   2   3
ENDBRANCH   1   2
BRANCH   1  14
ATOM     14  C   UNL     1       2.797   7.578  18.096  0.00  0.00    +0.000 C 
BRANCH  14  15
ATOM     15  C   UNL     1       1.907   8.791  17.767  0.00  0.00    +0.000 C 
BRANCH  15  16
ATOM     16  N   UNL     1       0.782   8.994  18.688  0.00  0.00    +0.000 NA
ATOM     17  C   UNL     1       0.083  10.263  18.366  0.00  0.00    +0.000 C 
ATOM     18  C   UNL     1       0.315  11.426  19.345  0.00  0.00    +0.000 C 
ATOM     19  C   UNL     1      -0.040  10.959  20.728  0.00  0.00    +0.000 A 
ATOM     20  C   UNL     1      -0.734  11.750  21.644  0.00  0.00    +0.000 A 
ATOM     21  C   UNL     1      -1.048  11.235  22.900  0.00  0.00    +0.000 A 
ATOM     22  C   UNL     1      -0.660   9.940  23.249  0.00  0.00    +0.000 A 
ATOM     23  C   UNL     1       0.052   9.154  22.344  0.00  0.00    +0.000 A 
ATOM     24  C   UNL     1       0.358   9.658  21.079  0.00  0.00    +0.000 A 
ATOM     25  C   UNL     1       1.208   8.891  20.099  0.00  0.00    +0.000 C 
ENDBRANCH  15  16
ENDBRANCH  14  15
ENDBRANCH   1  14
TORSDOF 7
ENDMDL
MODEL 5
REMARK VINA RESULT:      -7.3      5.570      7.212
REMARK  Name = 
REMARK  7 active torsions:
REMARK  status: ('A' for Active; 'I' for Inactive)
REMARK    1  A    between atoms: S_2  and  N_4
REMARK    2  A    between atoms: S_2  and  C_19
REMARK    3  A    between atoms: N_4  and  C_5
REMARK    4  A    between atoms: C_5  and  C_6
REMARK    5  A    between atoms: C_6  and  C_7
REMARK    6  A    between atoms: C_7  and  C_8
REMARK    7  A    between atoms: C_8  and  N_9
REMARK                            x       y       z     vdW  Elec       q    Type
REMARK                         _______ _______ _______ _____ _____    ______ ____
ROOT
ATOM      1  C   UNL     1       4.068   2.254  20.383  0.00  0.00    +0.000 C 
ENDROOT
BRANCH   1   2
ATOM      2  C   UNL     1       4.760   3.573  20.052  0.00  0.00    +0.000 C 
BRANCH   2   3
ATOM      3  N   UNL     1       5.687   3.424  18.929  0.00  0.00    +0.000 NA
ATOM      4  H   UNL     1       6.296   2.607  18.940  0.00  0.00    +0.000 HD
BRANCH   3   6
ATOM      5  O   UNL     1       5.879   5.938  19.177  0.00  0.00    +0.000 OA
ATOM      6  S   UNL     1       6.527   4.834  18.500  0.00  0.00    +0.000 S 
ATOM      7  O   UNL     1       7.943   4.574  18.630  0.00  0.00    +0.000 OA
BRANCH   6   8
ATOM      8  C   UNL     1       6.137   4.979  16.770  0.00  0.00    +0.000 A 
ATOM      9  C   UNL     1       6.376   3.890  15.922  0.00  0.00    +0.000 A 
ATOM     10  C   UNL     1       6.084   4.004  14.562  0.00  0.00    +0.000 A 
ATOM     11  C   UNL     1       5.549   5.192  14.060  0.00  0.00    +0.000 A 
ATOM     12  C   UNL     1       5.306   6.272  14.913  0.00  0.00    +0.000 A 
ATOM     13  C   UNL     1       5.601   6.170  16.272  0.00  0.00    +0.000 A 
ENDBRANCH   6   8
ENDBRANCH   3   6
ENDBRANCH   2   3
ENDBRANCH   1   2
BRANCH   1  14
ATOM     14  C   UNL     1       2.745   2.510  21.118  0.00  0.00    +0.000 C 
BRANCH  14  15
ATOM     15  C   UNL     1       1.532   2.475  20.169  0.00  0.00    +0.000 C 
BRANCH  15  16
ATOM     16  N   UNL     1       1.083   3.791  19.699  0.00  0.00    +0.000 NA
ATOM     17  C   UNL     1       1.363   3.936  18.249  0.00  0.00    +0.000 C 
ATOM     18  C   UNL     1       2.530   4.867  17.878  0.00  0.00    +0.000 C 
ATOM     19  C   UNL     1       2.283   6.208  18.509  0.00  0.00    +0.000 A 
ATOM     20  C   UNL     1       2.531   7.415  17.854  0.00  0.00    +0.000 A 
ATOM     21  C   UNL     1       2.253   8.619  18.499  0.00  0.00    +0.000 A 
ATOM     22  C   UNL     1       1.741   8.622  19.798  0.00  0.00    +0.000 A 
ATOM     23  C   UNL     1       1.512   7.418  20.463  0.00  0.00    +0.000 A 
ATOM     24  C   UNL     1       1.776   6.208  19.819  0.00  0.00    +0.000 A 
ATOM     25  C   UNL     1       1.639   4.883  20.524  0.00  0.00    +0.000 C 
ENDBRANCH  15  16
ENDBRANCH  14  15
ENDBRANCH   1  14
TORSDOF 7
ENDMDL
MODEL 6
REMARK VINA RESULT:      -7.3      5.659      7.845
REMARK  Name = 
REMARK  7 active torsions:
REMARK  status: ('A' for Active; 'I' for Inactive)
REMARK    1  A    between atoms: S_2  and  N_4
REMARK    2  A    between atoms: S_2  and  C_19
REMARK    3  A    between atoms: N_4  and  C_5
REMARK    4  A    between atoms: C_5  and  C_6
REMARK    5  A    between atoms: C_6  and  C_7
REMARK    6  A    between atoms: C_7  and  C_8
REMARK    7  A    between atoms: C_8  and  N_9
REMARK                            x       y       z     vdW  Elec       q    Type
REMARK                         _______ _______ _______ _____ _____    ______ ____
ROOT
ATOM      1  C   UNL     1       4.095   2.567  17.861  0.00  0.00    +0.000 C 
ENDROOT
BRANCH   1   2
ATOM      2  C   UNL     1       5.039   3.765  17.897  0.00  0.00    +0.000 C 
BRANCH   2   3
ATOM      3  N   UNL     1       5.061   4.469  16.613  0.00  0.00    +0.000 NA
ATOM      4  H   UNL     1       4.634   3.992  15.819  0.00  0.00    +0.000 HD
BRANCH   3   6
ATOM      5  O   UNL     1       6.372   6.608  16.259  0.00  0.00    +0.000 OA
ATOM      6  S   UNL     1       6.550   5.172  16.205  0.00  0.00    +0.000 S 
ATOM      7  O   UNL     1       7.587   4.496  16.951  0.00  0.00    +0.000 OA
BRANCH   6   8
ATOM      8  C   UNL     1       6.707   4.726  14.491  0.00  0.00    +0.000 A 
ATOM      9  C   UNL     1       7.675   5.362  13.704  0.00  0.00    +0.000 A 
ATOM     10  C   UNL     1       7.793   5.023  12.356  0.00  0.00    +0.000 A 
ATOM     11  C   UNL     1       6.956   4.051  11.804  0.00  0.00    +0.000 A 
ATOM     12  C   UNL     1       5.997   3.415  12.596  0.00  0.00    +0.000 A 
ATOM     13  C   UNL     1       5.867   3.751  13.943  0.00  0.00    +0.000 A 
ENDBRANCH   6   8
ENDBRANCH   3   6
ENDBRANCH   2   3
ENDBRANCH   1   2
BRANCH   1  14
ATOM     14  C   UNL     1       2.816   2.865  18.653  0.00  0.00    +0.000 C 
BRANCH  14  15
ATOM     15  C   UNL     1       2.996   4.037  19.636  0.00  0.00    +0.000 C 
BRANCH  15  16
ATOM     16  N   UNL     1       2.029   5.130  19.470  0.00  0.00    +0.000 NA
ATOM     17  C   UNL     1       2.052   5.621  18.070  0.00  0.00    +0.000 C 
ATOM     18  C   UNL     1       2.726   6.985  17.846  0.00  0.00    +0.000 C 
ATOM     19  C   UNL     1       2.072   7.990  18.752  0.00  0.00    +0.000 A 
ATOM     20  C   UNL     1       1.764   9.290  18.350  0.00  0.00    +0.000 A 
ATOM     21  C   UNL     1       1.135  10.156  19.243  0.00  0.00    +0.000 A 
ATOM     22  C   UNL     1       0.824   9.733  20.537  0.00  0.00    +0.000 A 
ATOM     23  C   UNL     1       1.150   8.441  20.948  0.00  0.00    +0.000 A 
ATOM     24  C   UNL     1       1.769   7.564  20.056  0.00  0.00    +0.000 A 
ATOM     25  C   UNL     1       2.230   6.192  20.477  0.00  0.00    +0.000 C 
ENDBRANCH  15  16
ENDBRANCH  14  15
ENDBRANCH   1  14
TORSDOF 7
ENDMDL
MODEL 7
REMARK VINA RESULT:      -7.3      0.880      1.323
REMARK  Name = 
REMARK  7 active torsions:
REMARK  status: ('A' for Active; 'I' for Inactive)
REMARK    1  A    between atoms: S_2  and  N_4
REMARK    2  A    between atoms: S_2  and  C_19
REMARK    3  A    between atoms: N_4  and  C_5
REMARK    4  A    between atoms: C_5  and  C_6
REMARK    5  A    between atoms: C_6  and  C_7
REMARK    6  A    between atoms: C_7  and  C_8
REMARK    7  A    between atoms: C_8  and  N_9
REMARK                            x       y       z     vdW  Elec       q    Type
REMARK                         _______ _______ _______ _____ _____    ______ ____
ROOT
ATOM      1  C   UNL     1       7.994   7.719  18.312  0.00  0.00    +0.000 C 
ENDROOT
BRANCH   1   2
ATOM      2  C   UNL     1       8.167   9.138  17.780  0.00  0.00    +0.000 C 
BRANCH   2   3
ATOM      3  N   UNL     1       8.972   9.957  18.688  0.00  0.00    +0.000 NA
ATOM      4  H   UNL     1       8.692   9.968  19.668  0.00  0.00    +0.000 HD
BRANCH   3   6
ATOM      5  O   UNL     1      10.670  11.450  17.545  0.00  0.00    +0.000 OA
ATOM      6  S   UNL     1       9.340  11.511  18.116  0.00  0.00    +0.000 S 
ATOM      7  O   UNL     1       8.203  11.999  17.370  0.00  0.00    +0.000 OA
BRANCH   6   8
ATOM      8  C   UNL     1       9.462  12.437  19.630  0.00  0.00    +0.000 A 
ATOM      9  C   UNL     1       9.321  11.770  20.854  0.00  0.00    +0.000 A 
ATOM     10  C   UNL     1       9.403  12.495  22.043  0.00  0.00    +0.000 A 
ATOM     11  C   UNL     1       9.634  13.872  22.007  0.00  0.00    +0.000 A 
ATOM     12  C   UNL     1       9.780  14.530  20.783  0.00  0.00    +0.000 A 
ATOM     13  C   UNL     1       9.693  13.815  19.589  0.00  0.00    +0.000 A 
ENDBRANCH   6   8
ENDBRANCH   3   6
ENDBRANCH   2   3
ENDBRANCH   1   2
BRANCH   1  14
ATOM     14  C   UNL     1       7.372   6.813  17.241  0.00  0.00    +0.000 C 
BRANCH  14  15
ATOM     15  C   UNL     1       7.368   5.331  17.658  0.00  0.00    +0.000 C 
BRANCH  15  16
ATOM     16  N   UNL     1       6.148   4.597  17.300  0.00  0.00    +0.000 NA
ATOM     17  C   UNL     1       5.221   5.485  16.556  0.00  0.00    +0.000 C 
ATOM     18  C   UNL     1       3.984   5.968  17.332  0.00  0.00    +0.000 C 
ATOM     19  C   UNL     1       3.258   4.764  17.862  0.00  0.00    +0.000 A 
ATOM     20  C   UNL     1       1.868   4.649  17.852  0.00  0.00    +0.000 A 
ATOM     21  C   UNL     1       1.269   3.488  18.340  0.00  0.00    +0.000 A 
ATOM     22  C   UNL     1       2.053   2.450  18.849  0.00  0.00    +0.000 A 
ATOM     23  C   UNL     1       3.441   2.572  18.880  0.00  0.00    +0.000 A 
ATOM     24  C   UNL     1       4.048   3.726  18.380  0.00  0.00    +0.000 A 
ATOM     25  C   UNL     1       5.536   3.950  18.478  0.00  0.00    +0.000 C 
ENDBRANCH  15  16
ENDBRANCH  14  15
ENDBRANCH   1  14
TORSDOF 7
ENDMDL
MODEL 8
REMARK VINA RESULT:      -7.3      6.346      9.885
REMARK  Name = 
REMARK  7 active torsions:
REMARK  status: ('A' for Active; 'I' for Inactive)
REMARK    1  A    between atoms: S_2  and  N_4
REMARK    2  A    between atoms: S_2  and  C_19
REMARK    3  A    between atoms: N_4  and  C_5
REMARK    4  A    between atoms: C_5  and  C_6
REMARK    5  A    between atoms: C_6  and  C_7
REMARK    6  A    between atoms: C_7  and  C_8
REMARK    7  A    between atoms: C_8  and  N_9
REMARK                            x       y       z     vdW  Elec       q    Type
REMARK                         _______ _______ _______ _____ _____    ______ ____
ROOT
ATOM      1  C   UNL     1       0.455   8.580  21.456  0.00  0.00    +0.000 C 
ENDROOT
BRANCH   1   2
ATOM      2  C   UNL     1       1.720   8.407  20.620  0.00  0.00    +0.000 C 
BRANCH   2   3
ATOM      3  N   UNL     1       2.183   7.018  20.630  0.00  0.00    +0.000 NA
ATOM      4  H   UNL     1       2.783   6.738  21.405  0.00  0.00    +0.000 HD
BRANCH   3   6
ATOM      5  O   UNL     1       2.107   7.213  18.105  0.00  0.00    +0.000 OA
ATOM      6  S   UNL     1       2.762   6.444  19.142  0.00  0.00    +0.000 S 
ATOM      7  O   UNL     1       4.201   6.336  19.229  0.00  0.00    +0.000 OA
BRANCH   6   8
ATOM      8  C   UNL     1       2.076   4.804  19.092  0.00  0.00    +0.000 A 
ATOM      9  C   UNL     1       1.332   4.340  20.184  0.00  0.00    +0.000 A 
ATOM     10  C   UNL     1       0.802   3.049  20.154  0.00  0.00    +0.000 A 
ATOM     11  C   UNL     1       1.007   2.236  19.038  0.00  0.00    +0.000 A 
ATOM     12  C   UNL     1       1.744   2.707  17.949  0.00  0.00    +0.000 A 
ATOM     13  C   UNL     1       2.283   3.993  17.972  0.00  0.00    +0.000 A 
ENDBRANCH   6   8
ENDBRANCH   3   6
ENDBRANCH   2   3
ENDBRANCH   1   2
BRANCH   1  14
ATOM     14  C   UNL     1      -0.213   9.927  21.148  0.00  0.00    +0.000 C 
BRANCH  14  15
ATOM     15  C   UNL     1       0.620  10.785  20.178  0.00  0.00    +0.000 C 
BRANCH  15  16
ATOM     16  N   UNL     1      -0.111  11.256  18.995  0.00  0.00    +0.000 NA
ATOM     17  C   UNL     1      -1.038  12.351  19.373  0.00  0.00    +0.000 C 
ATOM     18  C   UNL     1      -2.532  11.986  19.409  0.00  0.00    +0.000 C 
ATOM     19  C   UNL     1      -2.910  11.405  18.076  0.00  0.00    +0.000 A 
ATOM     20  C   UNL     1      -4.107  11.706  17.427  0.00  0.00    +0.000 A 
ATOM     21  C   UNL     1      -4.374  11.145  16.180  0.00  0.00    +0.000 A 
ATOM     22  C   UNL     1      -3.457  10.277  15.585  0.00  0.00    +0.000 A 
ATOM     23  C   UNL     1      -2.268   9.958  16.240  0.00  0.00    +0.000 A 
ATOM     24  C   UNL     1      -1.988  10.526  17.485  0.00  0.00    +0.000 A 
ATOM     25  C   UNL     1      -0.766  10.142  18.280  0.00  0.00    +0.000 C 
ENDBRANCH  15  16
ENDBRANCH  14  15
ENDBRANCH   1  14
TORSDOF 7
ENDMDL
MODEL 9
REMARK VINA RESULT:      -7.3      0.838      1.674
REMARK  Name = 
REMARK  7 active torsions:
REMARK  status: ('A' for Active; 'I' for Inactive)
REMARK    1  A    between atoms: S_2  and  N_4
REMARK    2  A    between atoms: S_2  and  C_19
REMARK    3  A    between atoms: N_4  and  C_5
REMARK    4  A    between atoms: C_5  and  C_6
REMARK    5  A    between atoms: C_6  and  C_7
REMARK    6  A    between atoms: C_7  and  C_8
REMARK    7  A    between atoms: C_8  and  N_9
REMARK                            x       y       z     vdW  Elec       q    Type
REMARK                         _______ _______ _______ _____ _____    ______ ____
ROOT
ATOM      1  C   UNL     1       8.274   7.893  18.200  0.00  0.00    +0.000 C 
ENDROOT
BRANCH   1   2
ATOM      2  C   UNL     1       8.153   9.367  17.825  0.00  0.00    +0.000 C 
BRANCH   2   3
ATOM      3  N   UNL     1       8.944  10.215  18.720  0.00  0.00    +0.000 NA
ATOM      4  H   UNL     1       8.652  10.252  19.696  0.00  0.00    +0.000 HD
BRANCH   3   6
ATOM      5  O   UNL     1      10.627  11.665  17.502  0.00  0.00    +0.000 OA
ATOM      6  S   UNL     1       9.315  11.753  18.109  0.00  0.00    +0.000 S 
ATOM      7  O   UNL     1       8.163  12.242  17.386  0.00  0.00    +0.000 OA
BRANCH   6   8
ATOM      8  C   UNL     1       9.490  12.705  19.601  0.00  0.00    +0.000 A 
ATOM      9  C   UNL     1       9.847  14.057  19.512  0.00  0.00    +0.000 A 
ATOM     10  C   UNL     1       9.997  14.804  20.680  0.00  0.00    +0.000 A 
ATOM     11  C   UNL     1       9.783  14.206  21.924  0.00  0.00    +0.000 A 
ATOM     12  C   UNL     1       9.419  12.860  22.005  0.00  0.00    +0.000 A 
ATOM     13  C   UNL     1       9.273  12.103  20.843  0.00  0.00    +0.000 A 
ENDBRANCH   6   8
ENDBRANCH   3   6
ENDBRANCH   2   3
ENDBRANCH   1   2
BRANCH   1  14
ATOM     14  C   UNL     1       7.165   7.074  17.527  0.00  0.00    +0.000 C 
BRANCH  14  15
ATOM     15  C   UNL     1       6.866   5.764  18.279  0.00  0.00    +0.000 C 
BRANCH  15  16
ATOM     16  N   UNL     1       5.744   4.988  17.737  0.00  0.00    +0.000 NA
ATOM     17  C   UNL     1       4.691   5.902  17.231  0.00  0.00    +0.000 C 
ATOM     18  C   UNL     1       3.421   6.008  18.092  0.00  0.00    +0.000 C 
ATOM     19  C   UNL     1       2.871   4.625  18.297  0.00  0.00    +0.000 A 
ATOM     20  C   UNL     1       1.508   4.332  18.245  0.00  0.00    +0.000 A 
ATOM     21  C   UNL     1       1.079   3.018  18.421  0.00  0.00    +0.000 A 
ATOM     22  C   UNL     1       2.003   1.999  18.660  0.00  0.00    +0.000 A 
ATOM     23  C   UNL     1       3.364   2.292  18.733  0.00  0.00    +0.000 A 
ATOM     24  C   UNL     1       3.803   3.604  18.545  0.00  0.00    +0.000 A 
ATOM     25  C   UNL     1       5.250   3.992  18.710  0.00  0.00    +0.000 C 
ENDBRANCH  15  16
ENDBRANCH  14  15
ENDBRANCH   1  14
TORSDOF 7
ENDMDL
