MODEL 1
REMARK VINA RESULT:      -8.2      0.000      0.000
REMARK  Name = 
REMARK  14 active torsions:
REMARK  status: ('A' for Active; 'I' for Inactive)
REMARK    1  A    between atoms: C_1  and  C_2
REMARK    2  A    between atoms: C_2  and  N_3
REMARK    3  A    between atoms: N_3  and  C_4
REMARK    4  A    between atoms: C_4  and  N_6
REMARK    5  A    between atoms: N_6  and  N_7
REMARK    6  A    between atoms: C_8  and  C_10
REMARK    7  A    between atoms: C_15  and  N_16
REMARK    8  A    between atoms: N_16  and  C_17
REMARK    9  A    between atoms: C_22  and  C_23
REMARK   10  A    between atoms: N_25  and  N_26
REMARK   11  A    between atoms: N_26  and  C_27
REMARK   12  A    between atoms: C_27  and  N_29
REMARK   13  A    between atoms: N_29  and  C_30
REMARK   14  A    between atoms: C_30  and  C_31
REMARK                            x       y       z     vdW  Elec       q    Type
REMARK                         _______ _______ _______ _____ _____    ______ ____
ROOT
ATOM      1  N   UNL     1       2.429   6.401  20.598  0.00  0.00    +0.000 N 
ATOM      2  H   UNL     1       2.200   6.609  21.580  0.00  0.00    +0.000 HD
ENDROOT
BRANCH   1   8
ATOM      3  C   UNL     1       1.419   8.650  20.039  0.00  0.00    +0.000 A 
ATOM      4  C   UNL     1       1.028   9.523  18.998  0.00  0.00    +0.000 A 
ATOM      5  C   UNL     1       1.434   9.320  17.681  0.00  0.00    +0.000 A 
ATOM      6  C   UNL     1       2.280   8.268  17.382  0.00  0.00    +0.000 A 
ATOM      7  C   UNL     1       2.662   7.390  18.395  0.00  0.00    +0.000 A 
ATOM      8  C   UNL     1       2.168   7.495  19.717  0.00  0.00    +0.000 A 
BRANCH   3  10
ATOM      9  N   UNL     1      -0.151   9.838  21.485  0.00  0.00    +0.000 N 
ATOM     10  C   UNL     1       0.959   8.987  21.428  0.00  0.00    +0.000 C 
ATOM     11  O   UNL     1       1.548   8.545  22.408  0.00  0.00    +0.000 OA
ATOM     12  H   UNL     1      -0.337  10.476  20.714  0.00  0.00    +0.000 HD
BRANCH   9  13
ATOM     13  N   UNL     1      -0.666  10.261  22.720  0.00  0.00    +0.000 N 
ATOM     14  H   UNL     1      -0.318   9.798  23.559  0.00  0.00    +0.000 HD
BRANCH  13  15
ATOM     15  C   UNL     1      -1.326  11.467  22.846  0.00  0.00    +0.000 C 
ATOM     16  S   UNL     1      -0.620  12.857  22.255  0.00  0.00    +0.000 S 
BRANCH  15  17
ATOM     17  N   UNL     1      -2.550  11.382  23.478  0.00  0.00    +0.000 N 
ATOM     18  H   UNL     1      -2.512  10.818  24.316  0.00  0.00    +0.000 HD
BRANCH  17  20
ATOM     19  C   UNL     1      -4.381  12.489  24.732  0.00  0.00    +0.000 C 
ATOM     20  C   UNL     1      -3.534  12.464  23.471  0.00  0.00    +0.000 C 
ENDBRANCH  17  20
ENDBRANCH  15  17
ENDBRANCH  13  15
ENDBRANCH   9  13
ENDBRANCH   3  10
ENDBRANCH   1   8
BRANCH   1  21
ATOM     21  C   UNL     1       2.216   5.024  20.242  0.00  0.00    +0.000 A 
ATOM     22  C   UNL     1       0.943   4.440  20.465  0.00  0.00    +0.000 A 
ATOM     23  C   UNL     1       0.604   3.185  19.963  0.00  0.00    +0.000 A 
ATOM     24  C   UNL     1       1.543   2.454  19.257  0.00  0.00    +0.000 A 
ATOM     25  C   UNL     1       2.840   2.947  19.119  0.00  0.00    +0.000 A 
ATOM     26  C   UNL     1       3.195   4.219  19.622  0.00  0.00    +0.000 A 
BRANCH  26  27
ATOM     27  C   UNL     1       4.624   4.595  19.424  0.00  0.00    +0.000 C 
ATOM     28  O   UNL     1       5.073   5.642  19.859  0.00  0.00    +0.000 OA
ATOM     29  N   UNL     1       5.397   3.681  18.736  0.00  0.00    +0.000 N 
ATOM     30  H   UNL     1       5.010   2.820  18.351  0.00  0.00    +0.000 HD
BRANCH  29  31
ATOM     31  N   UNL     1       6.646   4.095  18.273  0.00  0.00    +0.000 N 
ATOM     32  H   UNL     1       7.451   3.696  18.754  0.00  0.00    +0.000 HD
BRANCH  31  33
ATOM     33  C   UNL     1       6.801   4.664  17.037  0.00  0.00    +0.000 C 
ATOM     34  S   UNL     1       6.010   4.183  15.646  0.00  0.00    +0.000 S 
BRANCH  33  35
ATOM     35  N   UNL     1       7.617   5.763  16.994  0.00  0.00    +0.000 N 
ATOM     36  H   UNL     1       7.792   6.109  16.057  0.00  0.00    +0.000 HD
BRANCH  35  37
ATOM     37  C   UNL     1       7.749   6.729  18.078  0.00  0.00    +0.000 C 
ATOM     38  C   UNL     1       7.797   8.169  17.581  0.00  0.00    +0.000 C 
ENDBRANCH  35  37
ENDBRANCH  33  35
ENDBRANCH  31  33
ENDBRANCH  29  31
ENDBRANCH  26  27
ENDBRANCH   1  21
TORSDOF 12
ENDMDL
MODEL 2
REMARK VINA RESULT:      -7.7      3.151      9.036
REMARK  Name = 
REMARK  14 active torsions:
REMARK  status: ('A' for Active; 'I' for Inactive)
REMARK    1  A    between atoms: C_1  and  C_2
REMARK    2  A    between atoms: C_2  and  N_3
REMARK    3  A    between atoms: N_3  and  C_4
REMARK    4  A    between atoms: C_4  and  N_6
REMARK    5  A    between atoms: N_6  and  N_7
REMARK    6  A    between atoms: C_8  and  C_10
REMARK    7  A    between atoms: C_15  and  N_16
REMARK    8  A    between atoms: N_16  and  C_17
REMARK    9  A    between atoms: C_22  and  C_23
REMARK   10  A    between atoms: N_25  and  N_26
REMARK   11  A    between atoms: N_26  and  C_27
REMARK   12  A    between atoms: C_27  and  N_29
REMARK   13  A    between atoms: N_29  and  C_30
REMARK   14  A    between atoms: C_30  and  C_31
REMARK                            x       y       z     vdW  Elec       q    Type
REMARK                         _______ _______ _______ _____ _____    ______ ____
ROOT
ATOM      1  N   UNL     1       2.150   8.079  20.204  0.00  0.00    +0.000 N 
ATOM      2  H   UNL     1       2.604   8.624  19.458  0.00  0.00    +0.000 HD
ENDROOT
BRANCH   1   8
ATOM      3  C   UNL     1       2.606   6.050  18.767  0.00  0.00    +0.000 A 
ATOM      4  C   UNL     1       2.234   4.715  18.487  0.00  0.00    +0.000 A 
ATOM      5  C   UNL     1       1.427   3.983  19.355  0.00  0.00    +0.000 A 
ATOM      6  C   UNL     1       1.015   4.551  20.546  0.00  0.00    +0.000 A 
ATOM      7  C   UNL     1       1.361   5.871  20.829  0.00  0.00    +0.000 A 
ATOM      8  C   UNL     1       2.073   6.682  19.913  0.00  0.00    +0.000 A 
BRANCH   3  10
ATOM      9  N   UNL     1       4.369   5.871  17.085  0.00  0.00    +0.000 N 
ATOM     10  C   UNL     1       3.513   6.732  17.783  0.00  0.00    +0.000 C 
ATOM     11  O   UNL     1       3.487   7.949  17.646  0.00  0.00    +0.000 OA
ATOM     12  H   UNL     1       4.639   4.983  17.501  0.00  0.00    +0.000 HD
BRANCH   9  13
ATOM     13  N   UNL     1       5.293   6.378  16.158  0.00  0.00    +0.000 N 
ATOM     14  H   UNL     1       5.056   7.248  15.684  0.00  0.00    +0.000 HD
BRANCH  13  15
ATOM     15  C   UNL     1       6.603   5.942  16.141  0.00  0.00    +0.000 C 
ATOM     16  S   UNL     1       6.950   4.397  15.619  0.00  0.00    +0.000 S 
BRANCH  15  17
ATOM     17  N   UNL     1       7.519   6.875  16.581  0.00  0.00    +0.000 N 
ATOM     18  H   UNL     1       7.546   7.695  15.990  0.00  0.00    +0.000 HD
BRANCH  17  20
ATOM     19  C   UNL     1       7.575   5.850  18.838  0.00  0.00    +0.000 C 
ATOM     20  C   UNL     1       7.840   7.084  17.992  0.00  0.00    +0.000 C 
ENDBRANCH  17  20
ENDBRANCH  15  17
ENDBRANCH  13  15
ENDBRANCH   9  13
ENDBRANCH   3  10
ENDBRANCH   1   8
BRANCH   1  21
ATOM     21  C   UNL     1       1.119   8.806  20.895  0.00  0.00    +0.000 A 
ATOM     22  C   UNL     1       1.013   8.684  22.304  0.00  0.00    +0.000 A 
ATOM     23  C   UNL     1       0.180   9.507  23.060  0.00  0.00    +0.000 A 
ATOM     24  C   UNL     1      -0.609  10.451  22.424  0.00  0.00    +0.000 A 
ATOM     25  C   UNL     1      -0.616  10.519  21.031  0.00  0.00    +0.000 A 
ATOM     26  C   UNL     1       0.227   9.691  20.255  0.00  0.00    +0.000 A 
BRANCH  26  27
ATOM     27  C   UNL     1       0.085   9.859  18.781  0.00  0.00    +0.000 C 
ATOM     28  O   UNL     1       1.035   9.719  18.030  0.00  0.00    +0.000 OA
ATOM     29  N   UNL     1      -1.185  10.164  18.329  0.00  0.00    +0.000 N 
ATOM     30  H   UNL     1      -1.970  10.306  18.965  0.00  0.00    +0.000 HD
BRANCH  29  31
ATOM     31  N   UNL     1      -1.323  10.611  17.016  0.00  0.00    +0.000 N 
ATOM     32  H   UNL     1      -0.545  10.396  16.391  0.00  0.00    +0.000 HD
BRANCH  31  33
ATOM     33  C   UNL     1      -2.544  10.947  16.496  0.00  0.00    +0.000 C 
ATOM     34  S   UNL     1      -3.227  10.280  15.125  0.00  0.00    +0.000 S 
BRANCH  33  35
ATOM     35  N   UNL     1      -3.269  11.847  17.232  0.00  0.00    +0.000 N 
ATOM     36  H   UNL     1      -3.129  12.813  16.955  0.00  0.00    +0.000 HD
BRANCH  35  37
ATOM     37  C   UNL     1      -4.530  11.537  17.894  0.00  0.00    +0.000 C 
ATOM     38  C   UNL     1      -5.714  12.274  17.278  0.00  0.00    +0.000 C 
ENDBRANCH  35  37
ENDBRANCH  33  35
ENDBRANCH  31  33
ENDBRANCH  29  31
ENDBRANCH  26  27
ENDBRANCH   1  21
TORSDOF 12
ENDMDL
MODEL 3
REMARK VINA RESULT:      -7.6      3.251      5.130
REMARK  Name = 
REMARK  14 active torsions:
REMARK  status: ('A' for Active; 'I' for Inactive)
REMARK    1  A    between atoms: C_1  and  C_2
REMARK    2  A    between atoms: C_2  and  N_3
REMARK    3  A    between atoms: N_3  and  C_4
REMARK    4  A    between atoms: C_4  and  N_6
REMARK    5  A    between atoms: N_6  and  N_7
REMARK    6  A    between atoms: C_8  and  C_10
REMARK    7  A    between atoms: C_15  and  N_16
REMARK    8  A    between atoms: N_16  and  C_17
REMARK    9  A    between atoms: C_22  and  C_23
REMARK   10  A    between atoms: N_25  and  N_26
REMARK   11  A    between atoms: N_26  and  C_27
REMARK   12  A    between atoms: C_27  and  N_29
REMARK   13  A    between atoms: N_29  and  C_30
REMARK   14  A    between atoms: C_30  and  C_31
REMARK                            x       y       z     vdW  Elec       q    Type
REMARK                         _______ _______ _______ _____ _____    ______ ____
ROOT
ATOM      1  N   UNL     1       3.712   5.958  17.740  0.00  0.00    +0.000 N 
ATOM      2  H   UNL     1       3.483   6.948  17.578  0.00  0.00    +0.000 HD
ENDROOT
BRANCH   1   8
ATOM      3  C   UNL     1       2.015   5.792  19.606  0.00  0.00    +0.000 A 
ATOM      4  C   UNL     1       1.253   4.915  20.410  0.00  0.00    +0.000 A 
ATOM      5  C   UNL     1       1.107   3.567  20.089  0.00  0.00    +0.000 A 
ATOM      6  C   UNL     1       1.678   3.076  18.929  0.00  0.00    +0.000 A 
ATOM      7  C   UNL     1       2.446   3.926  18.134  0.00  0.00    +0.000 A 
ATOM      8  C   UNL     1       2.717   5.266  18.497  0.00  0.00    +0.000 A 
BRANCH   3  10
ATOM      9  N   UNL     1       1.745   7.466  21.364  0.00  0.00    +0.000 N 
ATOM     10  C   UNL     1       2.072   7.234  20.023  0.00  0.00    +0.000 C 
ATOM     11  O   UNL     1       2.368   8.108  19.217  0.00  0.00    +0.000 OA
ATOM     12  H   UNL     1       1.137   6.813  21.855  0.00  0.00    +0.000 HD
BRANCH   9  13
ATOM     13  N   UNL     1       1.724   8.771  21.880  0.00  0.00    +0.000 N 
ATOM     14  H   UNL     1       2.620   9.205  22.100  0.00  0.00    +0.000 HD
BRANCH  13  15
ATOM     15  C   UNL     1       0.605   9.571  21.764  0.00  0.00    +0.000 C 
ATOM     16  S   UNL     1      -0.441   9.713  23.055  0.00  0.00    +0.000 S 
BRANCH  15  17
ATOM     17  N   UNL     1       0.470  10.187  20.537  0.00  0.00    +0.000 N 
ATOM     18  H   UNL     1       1.342  10.228  20.029  0.00  0.00    +0.000 HD
BRANCH  17  20
ATOM     19  C   UNL     1      -0.458  10.160  18.237  0.00  0.00    +0.000 C 
ATOM     20  C   UNL     1      -0.746  10.108  19.728  0.00  0.00    +0.000 C 
ENDBRANCH  17  20
ENDBRANCH  15  17
ENDBRANCH  13  15
ENDBRANCH   9  13
ENDBRANCH   3  10
ENDBRANCH   1   8
BRANCH   1  21
ATOM     21  C   UNL     1       5.124   5.712  17.869  0.00  0.00    +0.000 A 
ATOM     22  C   UNL     1       5.722   5.779  19.153  0.00  0.00    +0.000 A 
ATOM     23  C   UNL     1       7.030   5.357  19.386  0.00  0.00    +0.000 A 
ATOM     24  C   UNL     1       7.798   4.894  18.330  0.00  0.00    +0.000 A 
ATOM     25  C   UNL     1       7.279   4.924  17.036  0.00  0.00    +0.000 A 
ATOM     26  C   UNL     1       5.954   5.348  16.789  0.00  0.00    +0.000 A 
BRANCH  26  27
ATOM     27  C   UNL     1       5.555   5.353  15.353  0.00  0.00    +0.000 C 
ATOM     28  O   UNL     1       5.221   6.380  14.788  0.00  0.00    +0.000 OA
ATOM     29  N   UNL     1       5.604   4.130  14.710  0.00  0.00    +0.000 N 
ATOM     30  H   UNL     1       5.858   3.270  15.195  0.00  0.00    +0.000 HD
BRANCH  29  31
ATOM     31  N   UNL     1       4.977   4.017  13.470  0.00  0.00    +0.000 N 
ATOM     32  H   UNL     1       4.102   4.531  13.367  0.00  0.00    +0.000 HD
BRANCH  31  33
ATOM     33  C   UNL     1       5.656   3.595  12.358  0.00  0.00    +0.000 C 
ATOM     34  S   UNL     1       7.216   4.035  11.953  0.00  0.00    +0.000 S 
BRANCH  33  35
ATOM     35  N   UNL     1       5.000   2.675  11.583  0.00  0.00    +0.000 N 
ATOM     36  H   UNL     1       5.327   1.723  11.710  0.00  0.00    +0.000 HD
BRANCH  35  37
ATOM     37  C   UNL     1       3.634   2.834  11.101  0.00  0.00    +0.000 C 
ATOM     38  C   UNL     1       3.491   3.983  10.108  0.00  0.00    +0.000 C 
ENDBRANCH  35  37
ENDBRANCH  33  35
ENDBRANCH  31  33
ENDBRANCH  29  31
ENDBRANCH  26  27
ENDBRANCH   1  21
TORSDOF 12
ENDMDL
MODEL 4
REMARK VINA RESULT:      -7.6      1.230      8.966
REMARK  Name = 
REMARK  14 active torsions:
REMARK  status: ('A' for Active; 'I' for Inactive)
REMARK    1  A    between atoms: C_1  and  C_2
REMARK    2  A    between atoms: C_2  and  N_3
REMARK    3  A    between atoms: N_3  and  C_4
REMARK    4  A    between atoms: C_4  and  N_6
REMARK    5  A    between atoms: N_6  and  N_7
REMARK    6  A    between atoms: C_8  and  C_10
REMARK    7  A    between atoms: C_15  and  N_16
REMARK    8  A    between atoms: N_16  and  C_17
REMARK    9  A    between atoms: C_22  and  C_23
REMARK   10  A    between atoms: N_25  and  N_26
REMARK   11  A    between atoms: N_26  and  C_27
REMARK   12  A    between atoms: C_27  and  N_29
REMARK   13  A    between atoms: N_29  and  C_30
REMARK   14  A    between atoms: C_30  and  C_31
REMARK                            x       y       z     vdW  Elec       q    Type
REMARK                         _______ _______ _______ _____ _____    ______ ____
ROOT
ATOM      1  N   UNL     1       2.557   6.249  20.501  0.00  0.00    +0.000 N 
ATOM      2  H   UNL     1       3.333   6.404  21.159  0.00  0.00    +0.000 HD
ENDROOT
BRANCH   1   8
ATOM      3  C   UNL     1       3.288   4.069  19.452  0.00  0.00    +0.000 A 
ATOM      4  C   UNL     1       2.864   2.809  18.972  0.00  0.00    +0.000 A 
ATOM      5  C   UNL     1       1.597   2.305  19.259  0.00  0.00    +0.000 A 
ATOM      6  C   UNL     1       0.744   3.026  20.074  0.00  0.00    +0.000 A 
ATOM      7  C   UNL     1       1.142   4.278  20.541  0.00  0.00    +0.000 A 
ATOM      8  C   UNL     1       2.370   4.872  20.166  0.00  0.00    +0.000 A 
BRANCH   3  10
ATOM      9  N   UNL     1       5.220   3.903  17.966  0.00  0.00    +0.000 N 
ATOM     10  C   UNL     1       4.688   4.496  19.117  0.00  0.00    +0.000 C 
ATOM     11  O   UNL     1       5.288   5.291  19.831  0.00  0.00    +0.000 OA
ATOM     12  H   UNL     1       4.874   2.995  17.661  0.00  0.00    +0.000 HD
BRANCH   9  13
ATOM     13  N   UNL     1       6.531   4.186  17.555  0.00  0.00    +0.000 N 
ATOM     14  H   UNL     1       7.287   3.666  18.000  0.00  0.00    +0.000 HD
BRANCH  13  15
ATOM     15  C   UNL     1       6.784   4.854  16.373  0.00  0.00    +0.000 C 
ATOM     16  S   UNL     1       6.305   4.177  14.927  0.00  0.00    +0.000 S 
BRANCH  15  17
ATOM     17  N   UNL     1       7.436   6.060  16.530  0.00  0.00    +0.000 N 
ATOM     18  H   UNL     1       8.035   6.277  15.745  0.00  0.00    +0.000 HD
BRANCH  17  20
ATOM     19  C   UNL     1       7.913   8.159  17.761  0.00  0.00    +0.000 C 
ATOM     20  C   UNL     1       6.857   7.201  17.237  0.00  0.00    +0.000 C 
ENDBRANCH  17  20
ENDBRANCH  15  17
ENDBRANCH  13  15
ENDBRANCH   9  13
ENDBRANCH   3  10
ENDBRANCH   1   8
BRANCH   1  21
ATOM     21  C   UNL     1       2.377   7.327  19.566  0.00  0.00    +0.000 A 
ATOM     22  C   UNL     1       2.937   7.216  18.267  0.00  0.00    +0.000 A 
ATOM     23  C   UNL     1       2.635   8.119  17.249  0.00  0.00    +0.000 A 
ATOM     24  C   UNL     1       1.797   9.190  17.511  0.00  0.00    +0.000 A 
ATOM     25  C   UNL     1       1.322   9.394  18.806  0.00  0.00    +0.000 A 
ATOM     26  C   UNL     1       1.620   8.484  19.845  0.00  0.00    +0.000 A 
BRANCH  26  27
ATOM     27  C   UNL     1       1.067   8.853  21.179  0.00  0.00    +0.000 C 
ATOM     28  O   UNL     1       1.080   8.069  22.113  0.00  0.00    +0.000 OA
ATOM     29  N   UNL     1       0.560  10.134  21.287  0.00  0.00    +0.000 N 
ATOM     30  H   UNL     1       0.527  10.775  20.496  0.00  0.00    +0.000 HD
BRANCH  29  31
ATOM     31  N   UNL     1      -0.220  10.437  22.403  0.00  0.00    +0.000 N 
ATOM     32  H   UNL     1      -0.055   9.861  23.228  0.00  0.00    +0.000 HD
BRANCH  31  33
ATOM     33  C   UNL     1      -0.858  11.642  22.527  0.00  0.00    +0.000 C 
ATOM     34  S   UNL     1      -2.348  11.877  23.245  0.00  0.00    +0.000 S 
BRANCH  33  35
ATOM     35  N   UNL     1      -0.150  12.730  22.089  0.00  0.00    +0.000 N 
ATOM     36  H   UNL     1       0.698  12.494  21.583  0.00  0.00    +0.000 HD
BRANCH  35  37
ATOM     37  C   UNL     1      -0.743  14.028  21.791  0.00  0.00    +0.000 C 
ATOM     38  C   UNL     1      -0.252  15.128  22.727  0.00  0.00    +0.000 C 
ENDBRANCH  35  37
ENDBRANCH  33  35
ENDBRANCH  31  33
ENDBRANCH  29  31
ENDBRANCH  26  27
ENDBRANCH   1  21
TORSDOF 12
ENDMDL
MODEL 5
REMARK VINA RESULT:      -7.6      2.691      4.929
REMARK  Name = 
REMARK  14 active torsions:
REMARK  status: ('A' for Active; 'I' for Inactive)
REMARK    1  A    between atoms: C_1  and  C_2
REMARK    2  A    between atoms: C_2  and  N_3
REMARK    3  A    between atoms: N_3  and  C_4
REMARK    4  A    between atoms: C_4  and  N_6
REMARK    5  A    between atoms: N_6  and  N_7
REMARK    6  A    between atoms: C_8  and  C_10
REMARK    7  A    between atoms: C_15  and  N_16
REMARK    8  A    between atoms: N_16  and  C_17
REMARK    9  A    between atoms: C_22  and  C_23
REMARK   10  A    between atoms: N_25  and  N_26
REMARK   11  A    between atoms: N_26  and  C_27
REMARK   12  A    between atoms: C_27  and  N_29
REMARK   13  A    between atoms: N_29  and  C_30
REMARK   14  A    between atoms: C_30  and  C_31
REMARK                            x       y       z     vdW  Elec       q    Type
REMARK                         _______ _______ _______ _____ _____    ______ ____
ROOT
ATOM      1  N   UNL     1       4.954   4.470  19.071  0.00  0.00    +0.000 N 
ATOM      2  H   UNL     1       5.645   4.081  19.727  0.00  0.00    +0.000 HD
ENDROOT
BRANCH   1   8
ATOM      3  C   UNL     1       2.548   4.858  19.742  0.00  0.00    +0.000 A 
ATOM      4  C   UNL     1       1.359   4.254  20.210  0.00  0.00    +0.000 A 
ATOM      5  C   UNL     1       1.186   2.871  20.198  0.00  0.00    +0.000 A 
ATOM      6  C   UNL     1       2.178   2.065  19.670  0.00  0.00    +0.000 A 
ATOM      7  C   UNL     1       3.362   2.645  19.219  0.00  0.00    +0.000 A 
ATOM      8  C   UNL     1       3.619   4.032  19.334  0.00  0.00    +0.000 A 
BRANCH   3  10
ATOM      9  N   UNL     1       1.961   6.955  20.850  0.00  0.00    +0.000 N 
ATOM     10  C   UNL     1       2.612   6.359  19.763  0.00  0.00    +0.000 C 
ATOM     11  O   UNL     1       3.183   6.974  18.871  0.00  0.00    +0.000 OA
ATOM     12  H   UNL     1       1.194   6.467  21.307  0.00  0.00    +0.000 HD
BRANCH   9  13
ATOM     13  N   UNL     1       1.913   8.352  20.977  0.00  0.00    +0.000 N 
ATOM     14  H   UNL     1       2.794   8.841  21.136  0.00  0.00    +0.000 HD
BRANCH  13  15
ATOM     15  C   UNL     1       0.814   9.072  20.556  0.00  0.00    +0.000 C 
ATOM     16  S   UNL     1       0.837   9.810  19.061  0.00  0.00    +0.000 S 
BRANCH  15  17
ATOM     17  N   UNL     1      -0.226   9.106  21.462  0.00  0.00    +0.000 N 
ATOM     18  H   UNL     1      -0.861   8.327  21.347  0.00  0.00    +0.000 HD
BRANCH  17  20
ATOM     19  C   UNL     1      -1.134  10.703  23.128  0.00  0.00    +0.000 C 
ATOM     20  C   UNL     1      -0.095   9.639  22.817  0.00  0.00    +0.000 C 
ENDBRANCH  17  20
ENDBRANCH  15  17
ENDBRANCH  13  15
ENDBRANCH   9  13
ENDBRANCH   3  10
ENDBRANCH   1   8
BRANCH   1  21
ATOM     21  C   UNL     1       5.478   4.676  17.747  0.00  0.00    +0.000 A 
ATOM     22  C   UNL     1       4.826   4.070  16.643  0.00  0.00    +0.000 A 
ATOM     23  C   UNL     1       5.149   4.386  15.325  0.00  0.00    +0.000 A 
ATOM     24  C   UNL     1       6.167   5.288  15.067  0.00  0.00    +0.000 A 
ATOM     25  C   UNL     1       6.907   5.814  16.126  0.00  0.00    +0.000 A 
ATOM     26  C   UNL     1       6.587   5.502  17.467  0.00  0.00    +0.000 A 
BRANCH  26  27
ATOM     27  C   UNL     1       7.485   6.116  18.485  0.00  0.00    +0.000 C 
ATOM     28  O   UNL     1       7.721   5.561  19.544  0.00  0.00    +0.000 OA
ATOM     29  N   UNL     1       8.038   7.336  18.143  0.00  0.00    +0.000 N 
ATOM     30  H   UNL     1       7.816   7.808  17.267  0.00  0.00    +0.000 HD
BRANCH  29  31
ATOM     31  N   UNL     1       8.644   8.085  19.150  0.00  0.00    +0.000 N 
ATOM     32  H   UNL     1       9.120   7.549  19.876  0.00  0.00    +0.000 HD
BRANCH  31  33
ATOM     33  C   UNL     1       8.933   9.413  18.983  0.00  0.00    +0.000 C 
ATOM     34  S   UNL     1       8.411  10.362  17.710  0.00  0.00    +0.000 S 
BRANCH  33  35
ATOM     35  N   UNL     1       9.639   9.995  20.002  0.00  0.00    +0.000 N 
ATOM     36  H   UNL     1      10.638   9.824  19.960  0.00  0.00    +0.000 HD
BRANCH  35  37
ATOM     37  C   UNL     1       9.214  11.195  20.713  0.00  0.00    +0.000 C 
ATOM     38  C   UNL     1      10.309  12.253  20.789  0.00  0.00    +0.000 C 
ENDBRANCH  35  37
ENDBRANCH  33  35
ENDBRANCH  31  33
ENDBRANCH  29  31
ENDBRANCH  26  27
ENDBRANCH   1  21
TORSDOF 12
ENDMDL
MODEL 6
REMARK VINA RESULT:      -7.6      1.336      9.151
REMARK  Name = 
REMARK  14 active torsions:
REMARK  status: ('A' for Active; 'I' for Inactive)
REMARK    1  A    between atoms: C_1  and  C_2
REMARK    2  A    between atoms: C_2  and  N_3
REMARK    3  A    between atoms: N_3  and  C_4
REMARK    4  A    between atoms: C_4  and  N_6
REMARK    5  A    between atoms: N_6  and  N_7
REMARK    6  A    between atoms: C_8  and  C_10
REMARK    7  A    between atoms: C_15  and  N_16
REMARK    8  A    between atoms: N_16  and  C_17
REMARK    9  A    between atoms: C_22  and  C_23
REMARK   10  A    between atoms: N_25  and  N_26
REMARK   11  A    between atoms: N_26  and  C_27
REMARK   12  A    between atoms: C_27  and  N_29
REMARK   13  A    between atoms: N_29  and  C_30
REMARK   14  A    between atoms: C_30  and  C_31
REMARK                            x       y       z     vdW  Elec       q    Type
REMARK                         _______ _______ _______ _____ _____    ______ ____
ROOT
ATOM      1  N   UNL     1       2.744   5.804  20.378  0.00  0.00    +0.000 N 
ATOM      2  H   UNL     1       3.522   5.878  21.048  0.00  0.00    +0.000 HD
ENDROOT
BRANCH   1   8
ATOM      3  C   UNL     1       3.373   3.561  19.396  0.00  0.00    +0.000 A 
ATOM      4  C   UNL     1       2.885   2.357  18.840  0.00  0.00    +0.000 A 
ATOM      5  C   UNL     1       1.544   1.993  18.943  0.00  0.00    +0.000 A 
ATOM      6  C   UNL     1       0.670   2.800  19.649  0.00  0.00    +0.000 A 
ATOM      7  C   UNL     1       1.134   3.999  20.189  0.00  0.00    +0.000 A 
ATOM      8  C   UNL     1       2.458   4.457  19.995  0.00  0.00    +0.000 A 
BRANCH   3  10
ATOM      9  N   UNL     1       5.327   3.795  17.948  0.00  0.00    +0.000 N 
ATOM     10  C   UNL     1       4.843   3.835  19.262  0.00  0.00    +0.000 C 
ATOM     11  O   UNL     1       5.533   4.053  20.250  0.00  0.00    +0.000 OA
ATOM     12  H   UNL     1       4.843   3.234  17.250  0.00  0.00    +0.000 HD
BRANCH   9  13
ATOM     13  N   UNL     1       6.689   3.999  17.680  0.00  0.00    +0.000 N 
ATOM     14  H   UNL     1       7.307   3.191  17.739  0.00  0.00    +0.000 HD
BRANCH  13  15
ATOM     15  C   UNL     1       7.128   5.130  17.022  0.00  0.00    +0.000 C 
ATOM     16  S   UNL     1       7.268   6.566  17.857  0.00  0.00    +0.000 S 
BRANCH  15  17
ATOM     17  N   UNL     1       7.413   4.937  15.686  0.00  0.00    +0.000 N 
ATOM     18  H   UNL     1       8.398   5.039  15.483  0.00  0.00    +0.000 HD
BRANCH  17  20
ATOM     19  C   UNL     1       5.328   4.573  14.393  0.00  0.00    +0.000 C 
ATOM     20  C   UNL     1       6.670   4.011  14.831  0.00  0.00    +0.000 C 
ENDBRANCH  17  20
ENDBRANCH  15  17
ENDBRANCH  13  15
ENDBRANCH   9  13
ENDBRANCH   3  10
ENDBRANCH   1   8
BRANCH   1  21
ATOM     21  C   UNL     1       2.658   6.923  19.478  0.00  0.00    +0.000 A 
ATOM     22  C   UNL     1       3.398   6.896  18.269  0.00  0.00    +0.000 A 
ATOM     23  C   UNL     1       3.209   7.841  17.261  0.00  0.00    +0.000 A 
ATOM     24  C   UNL     1       2.302   8.870  17.450  0.00  0.00    +0.000 A 
ATOM     25  C   UNL     1       1.643   8.993  18.673  0.00  0.00    +0.000 A 
ATOM     26  C   UNL     1       1.825   8.040  19.700  0.00  0.00    +0.000 A 
BRANCH  26  27
ATOM     27  C   UNL     1       1.076   8.322  20.957  0.00  0.00    +0.000 C 
ATOM     28  O   UNL     1       0.484   7.442  21.557  0.00  0.00    +0.000 OA
ATOM     29  N   UNL     1       1.113   9.631  21.399  0.00  0.00    +0.000 N 
ATOM     30  H   UNL     1       1.588  10.368  20.878  0.00  0.00    +0.000 HD
BRANCH  29  31
ATOM     31  N   UNL     1       0.211  10.013  22.391  0.00  0.00    +0.000 N 
ATOM     32  H   UNL     1       0.472   9.767  23.346  0.00  0.00    +0.000 HD
BRANCH  31  33
ATOM     33  C   UNL     1      -0.735  10.978  22.168  0.00  0.00    +0.000 C 
ATOM     34  S   UNL     1      -1.084  11.665  20.686  0.00  0.00    +0.000 S 
BRANCH  33  35
ATOM     35  N   UNL     1      -1.491  11.323  23.257  0.00  0.00    +0.000 N 
ATOM     36  H   UNL     1      -1.209  10.862  24.116  0.00  0.00    +0.000 HD
BRANCH  35  37
ATOM     37  C   UNL     1      -2.189  12.594  23.401  0.00  0.00    +0.000 C 
ATOM     38  C   UNL     1      -3.638  12.423  23.843  0.00  0.00    +0.000 C 
ENDBRANCH  35  37
ENDBRANCH  33  35
ENDBRANCH  31  33
ENDBRANCH  29  31
ENDBRANCH  26  27
ENDBRANCH   1  21
TORSDOF 12
ENDMDL
MODEL 7
REMARK VINA RESULT:      -7.6      3.298      9.248
REMARK  Name = 
REMARK  14 active torsions:
REMARK  status: ('A' for Active; 'I' for Inactive)
REMARK    1  A    between atoms: C_1  and  C_2
REMARK    2  A    between atoms: C_2  and  N_3
REMARK    3  A    between atoms: N_3  and  C_4
REMARK    4  A    between atoms: C_4  and  N_6
REMARK    5  A    between atoms: N_6  and  N_7
REMARK    6  A    between atoms: C_8  and  C_10
REMARK    7  A    between atoms: C_15  and  N_16
REMARK    8  A    between atoms: N_16  and  C_17
REMARK    9  A    between atoms: C_22  and  C_23
REMARK   10  A    between atoms: N_25  and  N_26
REMARK   11  A    between atoms: N_26  and  C_27
REMARK   12  A    between atoms: C_27  and  N_29
REMARK   13  A    between atoms: N_29  and  C_30
REMARK   14  A    between atoms: C_30  and  C_31
REMARK                            x       y       z     vdW  Elec       q    Type
REMARK                         _______ _______ _______ _____ _____    ______ ____
ROOT
ATOM      1  N   UNL     1       3.691   5.073  17.192  0.00  0.00    +0.000 N 
ATOM      2  H   UNL     1       3.479   5.033  16.186  0.00  0.00    +0.000 HD
ENDROOT
BRANCH   1   8
ATOM      3  C   UNL     1       6.124   5.043  16.507  0.00  0.00    +0.000 A 
ATOM      4  C   UNL     1       7.450   4.798  16.932  0.00  0.00    +0.000 A 
ATOM      5  C   UNL     1       7.775   4.681  18.282  0.00  0.00    +0.000 A 
ATOM      6  C   UNL     1       6.793   4.855  19.239  0.00  0.00    +0.000 A 
ATOM      7  C   UNL     1       5.478   5.082  18.834  0.00  0.00    +0.000 A 
ATOM      8  C   UNL     1       5.093   5.082  17.472  0.00  0.00    +0.000 A 
BRANCH   3  10
ATOM      9  N   UNL     1       6.441   4.171  14.247  0.00  0.00    +0.000 N 
ATOM     10  C   UNL     1       5.892   5.193  15.031  0.00  0.00    +0.000 C 
ATOM     11  O   UNL     1       5.281   6.157  14.587  0.00  0.00    +0.000 OA
ATOM     12  H   UNL     1       7.246   3.650  14.590  0.00  0.00    +0.000 HD
BRANCH   9  13
ATOM     13  N   UNL     1       6.329   4.202  12.849  0.00  0.00    +0.000 N 
ATOM     14  H   UNL     1       6.988   4.786  12.336  0.00  0.00    +0.000 HD
BRANCH  13  15
ATOM     15  C   UNL     1       5.621   3.234  12.165  0.00  0.00    +0.000 C 
ATOM     16  S   UNL     1       6.389   1.831  11.693  0.00  0.00    +0.000 S 
BRANCH  15  17
ATOM     17  N   UNL     1       4.298   3.553  11.935  0.00  0.00    +0.000 N 
ATOM     18  H   UNL     1       4.075   4.497  12.219  0.00  0.00    +0.000 HD
BRANCH  17  20
ATOM     19  C   UNL     1       3.066   4.093   9.852  0.00  0.00    +0.000 C 
ATOM     20  C   UNL     1       3.524   3.013  10.817  0.00  0.00    +0.000 C 
ENDBRANCH  17  20
ENDBRANCH  15  17
ENDBRANCH  13  15
ENDBRANCH   9  13
ENDBRANCH   3  10
ENDBRANCH   1   8
BRANCH   1  21
ATOM     21  C   UNL     1       2.721   4.393  18.008  0.00  0.00    +0.000 A 
ATOM     22  C   UNL     1       2.430   3.030  17.744  0.00  0.00    +0.000 A 
ATOM     23  C   UNL     1       1.662   2.254  18.610  0.00  0.00    +0.000 A 
ATOM     24  C   UNL     1       1.122   2.829  19.748  0.00  0.00    +0.000 A 
ATOM     25  C   UNL     1       1.291   4.194  19.978  0.00  0.00    +0.000 A 
ATOM     26  C   UNL     1       2.070   4.990  19.108  0.00  0.00    +0.000 A 
BRANCH  26  27
ATOM     27  C   UNL     1       2.133   6.435  19.468  0.00  0.00    +0.000 C 
ATOM     28  O   UNL     1       2.674   7.250  18.740  0.00  0.00    +0.000 OA
ATOM     29  N   UNL     1       1.530   6.784  20.661  0.00  0.00    +0.000 N 
ATOM     30  H   UNL     1       1.104   6.094  21.279  0.00  0.00    +0.000 HD
BRANCH  29  31
ATOM     31  N   UNL     1       1.802   8.047  21.187  0.00  0.00    +0.000 N 
ATOM     32  H   UNL     1       2.763   8.374  21.080  0.00  0.00    +0.000 HD
BRANCH  31  33
ATOM     33  C   UNL     1       0.803   8.942  21.459  0.00  0.00    +0.000 C 
ATOM     34  S   UNL     1       0.280   9.371  22.987  0.00  0.00    +0.000 S 
BRANCH  33  35
ATOM     35  N   UNL     1       0.268   9.577  20.369  0.00  0.00    +0.000 N 
ATOM     36  H   UNL     1      -0.690   9.882  20.499  0.00  0.00    +0.000 HD
BRANCH  35  37
ATOM     37  C   UNL     1       1.053  10.303  19.378  0.00  0.00    +0.000 C 
ATOM     38  C   UNL     1       0.250  11.394  18.677  0.00  0.00    +0.000 C 
ENDBRANCH  35  37
ENDBRANCH  33  35
ENDBRANCH  31  33
ENDBRANCH  29  31
ENDBRANCH  26  27
ENDBRANCH   1  21
TORSDOF 12
ENDMDL
MODEL 8
REMARK VINA RESULT:      -7.5      3.166      5.250
REMARK  Name = 
REMARK  14 active torsions:
REMARK  status: ('A' for Active; 'I' for Inactive)
REMARK    1  A    between atoms: C_1  and  C_2
REMARK    2  A    between atoms: C_2  and  N_3
REMARK    3  A    between atoms: N_3  and  C_4
REMARK    4  A    between atoms: C_4  and  N_6
REMARK    5  A    between atoms: N_6  and  N_7
REMARK    6  A    between atoms: C_8  and  C_10
REMARK    7  A    between atoms: C_15  and  N_16
REMARK    8  A    between atoms: N_16  and  C_17
REMARK    9  A    between atoms: C_22  and  C_23
REMARK   10  A    between atoms: N_25  and  N_26
REMARK   11  A    between atoms: N_26  and  C_27
REMARK   12  A    between atoms: C_27  and  N_29
REMARK   13  A    between atoms: N_29  and  C_30
REMARK   14  A    between atoms: C_30  and  C_31
REMARK                            x       y       z     vdW  Elec       q    Type
REMARK                         _______ _______ _______ _____ _____    ______ ____
ROOT
ATOM      1  N   UNL     1       3.522   5.174  17.524  0.00  0.00    +0.000 N 
ATOM      2  H   UNL     1       3.154   6.021  17.069  0.00  0.00    +0.000 HD
ENDROOT
BRANCH   1   8
ATOM      3  C   UNL     1       2.014   5.218  19.552  0.00  0.00    +0.000 A 
ATOM      4  C   UNL     1       1.322   4.436  20.505  0.00  0.00    +0.000 A 
ATOM      5  C   UNL     1       1.127   3.067  20.326  0.00  0.00    +0.000 A 
ATOM      6  C   UNL     1       1.575   2.460  19.167  0.00  0.00    +0.000 A 
ATOM      7  C   UNL     1       2.273   3.216  18.226  0.00  0.00    +0.000 A 
ATOM      8  C   UNL     1       2.596   4.578  18.435  0.00  0.00    +0.000 A 
BRANCH   3  10
ATOM      9  N   UNL     1       1.784   7.071  21.128  0.00  0.00    +0.000 N 
ATOM     10  C   UNL     1       2.131   6.690  19.826  0.00  0.00    +0.000 C 
ATOM     11  O   UNL     1       2.487   7.465  18.946  0.00  0.00    +0.000 OA
ATOM     12  H   UNL     1       1.135   6.499  21.664  0.00  0.00    +0.000 HD
BRANCH   9  13
ATOM     13  N   UNL     1       1.815   8.421  21.511  0.00  0.00    +0.000 N 
ATOM     14  H   UNL     1       2.729   8.857  21.626  0.00  0.00    +0.000 HD
BRANCH  13  15
ATOM     15  C   UNL     1       0.700   9.225  21.392  0.00  0.00    +0.000 C 
ATOM     16  S   UNL     1      -0.319   9.418  22.697  0.00  0.00    +0.000 S 
BRANCH  15  17
ATOM     17  N   UNL     1       0.545   9.803  20.149  0.00  0.00    +0.000 N 
ATOM     18  H   UNL     1       1.181   9.418  19.464  0.00  0.00    +0.000 HD
BRANCH  17  20
ATOM     19  C   UNL     1      -0.578  11.323  18.542  0.00  0.00    +0.000 C 
ATOM     20  C   UNL     1      -0.739  10.285  19.640  0.00  0.00    +0.000 C 
ENDBRANCH  17  20
ENDBRANCH  15  17
ENDBRANCH  13  15
ENDBRANCH   9  13
ENDBRANCH   3  10
ENDBRANCH   1   8
BRANCH   1  21
ATOM     21  C   UNL     1       4.942   5.218  17.748  0.00  0.00    +0.000 A 
ATOM     22  C   UNL     1       5.435   5.154  19.076  0.00  0.00    +0.000 A 
ATOM     23  C   UNL     1       6.790   4.986  19.358  0.00  0.00    +0.000 A 
ATOM     24  C   UNL     1       7.702   4.922  18.318  0.00  0.00    +0.000 A 
ATOM     25  C   UNL     1       7.265   5.098  17.006  0.00  0.00    +0.000 A 
ATOM     26  C   UNL     1       5.894   5.266  16.708  0.00  0.00    +0.000 A 
BRANCH  26  27
ATOM     27  C   UNL     1       5.587   5.473  15.265  0.00  0.00    +0.000 C 
ATOM     28  O   UNL     1       5.346   6.581  14.817  0.00  0.00    +0.000 OA
ATOM     29  N   UNL     1       5.610   4.339  14.476  0.00  0.00    +0.000 N 
ATOM     30  H   UNL     1       5.785   3.411  14.861  0.00  0.00    +0.000 HD
BRANCH  29  31
ATOM     31  N   UNL     1       5.057   4.418  13.198  0.00  0.00    +0.000 N 
ATOM     32  H   UNL     1       4.788   5.352  12.890  0.00  0.00    +0.000 HD
BRANCH  31  33
ATOM     33  C   UNL     1       5.224   3.417  12.280  0.00  0.00    +0.000 C 
ATOM     34  S   UNL     1       4.123   2.999  11.094  0.00  0.00    +0.000 S 
BRANCH  33  35
ATOM     35  N   UNL     1       6.438   2.784  12.315  0.00  0.00    +0.000 N 
ATOM     36  H   UNL     1       6.773   2.586  13.252  0.00  0.00    +0.000 HD
BRANCH  35  37
ATOM     37  C   UNL     1       6.947   1.928  11.249  0.00  0.00    +0.000 C 
ATOM     38  C   UNL     1       6.283   0.556  11.228  0.00  0.00    +0.000 C 
ENDBRANCH  35  37
ENDBRANCH  33  35
ENDBRANCH  31  33
ENDBRANCH  29  31
ENDBRANCH  26  27
ENDBRANCH   1  21
TORSDOF 12
ENDMDL
MODEL 9
REMARK VINA RESULT:      -7.5      1.661      8.999
REMARK  Name = 
REMARK  14 active torsions:
REMARK  status: ('A' for Active; 'I' for Inactive)
REMARK    1  A    between atoms: C_1  and  C_2
REMARK    2  A    between atoms: C_2  and  N_3
REMARK    3  A    between atoms: N_3  and  C_4
REMARK    4  A    between atoms: C_4  and  N_6
REMARK    5  A    between atoms: N_6  and  N_7
REMARK    6  A    between atoms: C_8  and  C_10
REMARK    7  A    between atoms: C_15  and  N_16
REMARK    8  A    between atoms: N_16  and  C_17
REMARK    9  A    between atoms: C_22  and  C_23
REMARK   10  A    between atoms: N_25  and  N_26
REMARK   11  A    between atoms: N_26  and  C_27
REMARK   12  A    between atoms: C_27  and  N_29
REMARK   13  A    between atoms: N_29  and  C_30
REMARK   14  A    between atoms: C_30  and  C_31
REMARK                            x       y       z     vdW  Elec       q    Type
REMARK                         _______ _______ _______ _____ _____    ______ ____
ROOT
ATOM      1  N   UNL     1       2.589   5.941  20.389  0.00  0.00    +0.000 N 
ATOM      2  H   UNL     1       3.313   6.045  21.113  0.00  0.00    +0.000 HD
ENDROOT
BRANCH   1   8
ATOM      3  C   UNL     1       3.374   3.759  19.384  0.00  0.00    +0.000 A 
ATOM      4  C   UNL     1       2.971   2.536  18.799  0.00  0.00    +0.000 A 
ATOM      5  C   UNL     1       1.654   2.088  18.872  0.00  0.00    +0.000 A 
ATOM      6  C   UNL     1       0.719   2.827  19.574  0.00  0.00    +0.000 A 
ATOM      7  C   UNL     1       1.098   4.043  20.141  0.00  0.00    +0.000 A 
ATOM      8  C   UNL     1       2.394   4.586  19.979  0.00  0.00    +0.000 A 
BRANCH   3  10
ATOM      9  N   UNL     1       5.416   3.832  18.046  0.00  0.00    +0.000 N 
ATOM     10  C   UNL     1       4.826   4.125  19.281  0.00  0.00    +0.000 C 
ATOM     11  O   UNL     1       5.416   4.623  20.233  0.00  0.00    +0.000 OA
ATOM     12  H   UNL     1       5.033   3.086  17.469  0.00  0.00    +0.000 HD
BRANCH   9  13
ATOM     13  N   UNL     1       6.777   4.091  17.823  0.00  0.00    +0.000 N 
ATOM     14  H   UNL     1       7.444   3.366  18.085  0.00  0.00    +0.000 HD
BRANCH  13  15
ATOM     15  C   UNL     1       7.185   5.099  16.973  0.00  0.00    +0.000 C 
ATOM     16  S   UNL     1       7.034   6.690  17.451  0.00  0.00    +0.000 S 
BRANCH  15  17
ATOM     17  N   UNL     1       7.693   4.658  15.768  0.00  0.00    +0.000 N 
ATOM     18  H   UNL     1       8.206   3.792  15.861  0.00  0.00    +0.000 HD
BRANCH  17  20
ATOM     19  C   UNL     1       5.551   4.518  14.526  0.00  0.00    +0.000 C 
ATOM     20  C   UNL     1       7.026   4.880  14.486  0.00  0.00    +0.000 C 
ENDBRANCH  17  20
ENDBRANCH  15  17
ENDBRANCH  13  15
ENDBRANCH   9  13
ENDBRANCH   3  10
ENDBRANCH   1   8
BRANCH   1  21
ATOM     21  C   UNL     1       2.513   7.062  19.492  0.00  0.00    +0.000 A 
ATOM     22  C   UNL     1       3.234   7.022  18.271  0.00  0.00    +0.000 A 
ATOM     23  C   UNL     1       3.050   7.971  17.268  0.00  0.00    +0.000 A 
ATOM     24  C   UNL     1       2.169   9.019  17.471  0.00  0.00    +0.000 A 
ATOM     25  C   UNL     1       1.530   9.155  18.704  0.00  0.00    +0.000 A 
ATOM     26  C   UNL     1       1.708   8.197  19.727  0.00  0.00    +0.000 A 
BRANCH  26  27
ATOM     27  C   UNL     1       0.984   8.494  20.996  0.00  0.00    +0.000 C 
ATOM     28  O   UNL     1       0.488   7.607  21.669  0.00  0.00    +0.000 OA
ATOM     29  N   UNL     1       0.930   9.825  21.360  0.00  0.00    +0.000 N 
ATOM     30  H   UNL     1       1.323  10.566  20.780  0.00  0.00    +0.000 HD
BRANCH  29  31
ATOM     31  N   UNL     1       0.035  10.193  22.365  0.00  0.00    +0.000 N 
ATOM     32  H   UNL     1       0.199   9.773  23.280  0.00  0.00    +0.000 HD
BRANCH  31  33
ATOM     33  C   UNL     1      -0.742  11.315  22.259  0.00  0.00    +0.000 C 
ATOM     34  S   UNL     1      -2.022  11.701  23.261  0.00  0.00    +0.000 S 
BRANCH  33  35
ATOM     35  N   UNL     1      -0.359  12.208  21.293  0.00  0.00    +0.000 N 
ATOM     36  H   UNL     1      -1.038  12.326  20.548  0.00  0.00    +0.000 HD
BRANCH  35  37
ATOM     37  C   UNL     1       0.554  13.321  21.523  0.00  0.00    +0.000 C 
ATOM     38  C   UNL     1      -0.169  14.599  21.933  0.00  0.00    +0.000 C 
ENDBRANCH  35  37
ENDBRANCH  33  35
ENDBRANCH  31  33
ENDBRANCH  29  31
ENDBRANCH  26  27
ENDBRANCH   1  21
TORSDOF 12
ENDMDL
