MODEL 1
REMARK VINA RESULT:      -6.2      0.000      0.000
REMARK  Name = 
REMARK  5 active torsions:
REMARK  status: ('A' for Active; 'I' for Inactive)
REMARK    1  A    between atoms: C_2  and  C_12
REMARK    2  A    between atoms: N_3  and  C_4
REMARK    3  A    between atoms: C_4  and  C_5
REMARK    4  A    between atoms: C_17  and  C_19
REMARK    5  A    between atoms: C_24  and  C_26
REMARK                            x       y       z     vdW  Elec       q    Type
REMARK                         _______ _______ _______ _____ _____    ______ ____
ROOT
ATOM      1  C   UNL     1      -2.984  11.775  17.369  0.00  0.00    +0.000 C 
ATOM      2  C   UNL     1      -2.729  11.100  16.019  0.00  0.00    +0.000 C 
ATOM      3  C   UNL     1      -2.830   9.612  16.341  0.00  0.00    +0.000 C 
ATOM      4  C   UNL     1      -3.906   9.548  17.418  0.00  0.00    +0.000 C 
ATOM      5  N   UNL     1      -3.981  10.892  17.986  0.00  0.00    +0.000 N 
ATOM      6  C   UNL     1      -5.067  11.242  18.773  0.00  0.00    +0.000 C 
ATOM      7  O   UNL     1      -5.887  10.379  19.098  0.00  0.00    +0.000 OA
ENDROOT
BRANCH   6   8
ATOM      8  C   UNL     1      -5.261  12.732  19.188  0.00  0.00    +0.000 C 
ATOM      9  C   UNL     1      -6.325  13.411  18.319  0.00  0.00    +0.000 C 
ATOM     10  C   UNL     1      -7.645  13.047  18.994  0.00  0.00    +0.000 C 
ATOM     11  C   UNL     1      -7.293  12.937  20.469  0.00  0.00    +0.000 C 
ATOM     12  N   UNL     1      -5.846  12.833  20.531  0.00  0.00    +0.000 N 
ATOM     13  C   UNL     1      -5.237  12.943  21.780  0.00  0.00    +0.000 C 
ATOM     14  O   UNL     1      -5.955  13.022  22.781  0.00  0.00    +0.000 OA
BRANCH  13  15
ATOM     15  C   UNL     1      -3.788  13.041  21.879  0.00  0.00    +0.000 A 
ATOM     16  C   UNL     1      -2.839  13.656  21.086  0.00  0.00    +0.000 A 
ATOM     17  C   UNL     1      -1.509  13.479  21.574  0.00  0.00    +0.000 A 
ATOM     18  C   UNL     1      -1.474  12.711  22.713  0.00  0.00    +0.000 A 
ATOM     19  S   UNL     1      -3.033  12.220  23.197  0.00  0.00    +0.000 S 
ENDBRANCH  13  15
ENDBRANCH   6   8
BRANCH   1  21
ATOM     20  O   UNL     1      -0.855  12.796  17.917  0.00  0.00    +0.000 OA
ATOM     21  C   UNL     1      -1.653  11.889  18.153  0.00  0.00    +0.000 C 
ATOM     22  N   UNL     1      -1.343  10.824  18.971  0.00  0.00    +0.000 N 
ATOM     23  H   UNL     1      -2.114  10.256  19.305  0.00  0.00    +0.000 HD
BRANCH  22  24
ATOM     24  C   UNL     1      -0.109  10.783  19.725  0.00  0.00    +0.000 C 
BRANCH  24  25
ATOM     25  C   UNL     1       0.761   9.588  19.407  0.00  0.00    +0.000 A 
ATOM     26  C   UNL     1       1.255   9.442  18.095  0.00  0.00    +0.000 A 
ATOM     27  C   UNL     1       2.151   8.419  17.770  0.00  0.00    +0.000 A 
ATOM     28  C   UNL     1       2.570   7.521  18.746  0.00  0.00    +0.000 A 
ATOM     29  C   UNL     1       2.073   7.633  20.045  0.00  0.00    +0.000 A 
ATOM     30  C   UNL     1       1.172   8.655  20.371  0.00  0.00    +0.000 A 
ATOM     31 CL   UNL     1       0.603   8.722  22.001  0.00  0.00    +0.000 Cl
ENDBRANCH  24  25
ENDBRANCH  22  24
ENDBRANCH   1  21
TORSDOF 5
ENDMDL
MODEL 2
REMARK VINA RESULT:      -6.2      2.445      3.652
REMARK  Name = 
REMARK  5 active torsions:
REMARK  status: ('A' for Active; 'I' for Inactive)
REMARK    1  A    between atoms: C_2  and  C_12
REMARK    2  A    between atoms: N_3  and  C_4
REMARK    3  A    between atoms: C_4  and  C_5
REMARK    4  A    between atoms: C_17  and  C_19
REMARK    5  A    between atoms: C_24  and  C_26
REMARK                            x       y       z     vdW  Elec       q    Type
REMARK                         _______ _______ _______ _____ _____    ______ ____
ROOT
ATOM      1  C   UNL     1      -5.317  12.283  18.701  0.00  0.00    +0.000 C 
ATOM      2  C   UNL     1      -6.500  11.767  17.878  0.00  0.00    +0.000 C 
ATOM      3  C   UNL     1      -6.967  10.540  18.655  0.00  0.00    +0.000 C 
ATOM      4  C   UNL     1      -6.722  10.920  20.110  0.00  0.00    +0.000 C 
ATOM      5  N   UNL     1      -5.739  12.001  20.079  0.00  0.00    +0.000 N 
ATOM      6  C   UNL     1      -5.533  12.771  21.213  0.00  0.00    +0.000 C 
ATOM      7  O   UNL     1      -6.076  12.451  22.274  0.00  0.00    +0.000 OA
ENDROOT
BRANCH   6   8
ATOM      8  C   UNL     1      -4.659  14.057  21.114  0.00  0.00    +0.000 C 
ATOM      9  C   UNL     1      -5.420  15.187  20.412  0.00  0.00    +0.000 C 
ATOM     10  C   UNL     1      -6.246  15.827  21.524  0.00  0.00    +0.000 C 
ATOM     11  C   UNL     1      -5.398  15.644  22.773  0.00  0.00    +0.000 C 
ATOM     12  N   UNL     1      -4.412  14.630  22.443  0.00  0.00    +0.000 N 
ATOM     13  C   UNL     1      -3.364  14.425  23.340  0.00  0.00    +0.000 C 
ATOM     14  O   UNL     1      -3.376  15.037  24.411  0.00  0.00    +0.000 OA
BRANCH  13  15
ATOM     15  C   UNL     1      -2.248  13.566  22.972  0.00  0.00    +0.000 A 
ATOM     16  C   UNL     1      -1.033  13.824  22.364  0.00  0.00    +0.000 A 
ATOM     17  C   UNL     1      -0.240  12.650  22.191  0.00  0.00    +0.000 A 
ATOM     18  C   UNL     1      -0.879  11.522  22.646  0.00  0.00    +0.000 A 
ATOM     19  S   UNL     1      -2.417  11.878  23.290  0.00  0.00    +0.000 S 
ENDBRANCH  13  15
ENDBRANCH   6   8
BRANCH   1  21
ATOM     20  O   UNL     1      -4.067  10.439  17.746  0.00  0.00    +0.000 OA
ATOM     21  C   UNL     1      -4.022  11.554  18.264  0.00  0.00    +0.000 C 
ATOM     22  N   UNL     1      -2.839  12.139  18.662  0.00  0.00    +0.000 N 
ATOM     23  H   UNL     1      -2.854  13.134  18.852  0.00  0.00    +0.000 HD
BRANCH  22  24
ATOM     24  C   UNL     1      -1.558  11.538  18.358  0.00  0.00    +0.000 C 
BRANCH  24  25
ATOM     25  C   UNL     1      -0.383  12.466  18.568  0.00  0.00    +0.000 A 
ATOM     26  C   UNL     1      -0.622  13.852  18.650  0.00  0.00    +0.000 A 
ATOM     27  C   UNL     1       0.408  14.747  18.951  0.00  0.00    +0.000 A 
ATOM     28  C   UNL     1       1.698  14.277  19.175  0.00  0.00    +0.000 A 
ATOM     29  C   UNL     1       1.961  12.911  19.073  0.00  0.00    +0.000 A 
ATOM     30  C   UNL     1       0.930  12.014  18.767  0.00  0.00    +0.000 A 
ATOM     31 CL   UNL     1       1.341  10.339  18.658  0.00  0.00    +0.000 Cl
ENDBRANCH  24  25
ENDBRANCH  22  24
ENDBRANCH   1  21
TORSDOF 5
ENDMDL
MODEL 3
REMARK VINA RESULT:      -6.1      4.367      6.153
REMARK  Name = 
REMARK  5 active torsions:
REMARK  status: ('A' for Active; 'I' for Inactive)
REMARK    1  A    between atoms: C_2  and  C_12
REMARK    2  A    between atoms: N_3  and  C_4
REMARK    3  A    between atoms: C_4  and  C_5
REMARK    4  A    between atoms: C_17  and  C_19
REMARK    5  A    between atoms: C_24  and  C_26
REMARK                            x       y       z     vdW  Elec       q    Type
REMARK                         _______ _______ _______ _____ _____    ______ ____
ROOT
ATOM      1  C   UNL     1       0.650   9.881  19.392  0.00  0.00    +0.000 C 
ATOM      2  C   UNL     1       0.044   8.688  20.135  0.00  0.00    +0.000 C 
ATOM      3  C   UNL     1       0.931   8.549  21.369  0.00  0.00    +0.000 C 
ATOM      4  C   UNL     1       1.300   9.987  21.712  0.00  0.00    +0.000 C 
ATOM      5  N   UNL     1       1.080  10.756  20.489  0.00  0.00    +0.000 N 
ATOM      6  C   UNL     1       1.032  12.140  20.551  0.00  0.00    +0.000 C 
ATOM      7  O   UNL     1       1.309  12.713  21.609  0.00  0.00    +0.000 OA
ENDROOT
BRANCH   6   8
ATOM      8  C   UNL     1       0.575  12.946  19.298  0.00  0.00    +0.000 C 
ATOM      9  C   UNL     1      -0.812  12.493  18.828  0.00  0.00    +0.000 C 
ATOM     10  C   UNL     1      -1.778  13.291  19.698  0.00  0.00    +0.000 C 
ATOM     11  C   UNL     1      -1.049  14.597  19.968  0.00  0.00    +0.000 C 
ATOM     12  N   UNL     1       0.343  14.356  19.633  0.00  0.00    +0.000 N 
ATOM     13  C   UNL     1       1.200  15.455  19.577  0.00  0.00    +0.000 C 
ATOM     14  O   UNL     1       0.764  16.560  19.911  0.00  0.00    +0.000 OA
BRANCH  13  15
ATOM     15  C   UNL     1       2.552  15.301  19.061  0.00  0.00    +0.000 A 
ATOM     16  C   UNL     1       3.056  15.226  17.776  0.00  0.00    +0.000 A 
ATOM     17  C   UNL     1       4.474  15.062  17.745  0.00  0.00    +0.000 A 
ATOM     18  C   UNL     1       5.013  14.988  19.007  0.00  0.00    +0.000 A 
ATOM     19  S   UNL     1       3.821  15.130  20.217  0.00  0.00    +0.000 S 
ENDBRANCH  13  15
ENDBRANCH   6   8
BRANCH   1  21
ATOM     20  O   UNL     1       2.157  10.059  17.502  0.00  0.00    +0.000 OA
ATOM     21  C   UNL     1       1.797   9.393  18.472  0.00  0.00    +0.000 C 
ATOM     22  N   UNL     1       2.239   8.105  18.693  0.00  0.00    +0.000 N 
ATOM     23  H   UNL     1       2.093   7.717  19.618  0.00  0.00    +0.000 HD
BRANCH  22  24
ATOM     24  C   UNL     1       3.274   7.510  17.875  0.00  0.00    +0.000 C 
BRANCH  24  25
ATOM     25  C   UNL     1       3.161   6.008  17.746  0.00  0.00    +0.000 A 
ATOM     26  C   UNL     1       1.952   5.386  18.117  0.00  0.00    +0.000 A 
ATOM     27  C   UNL     1       1.753   4.017  17.918  0.00  0.00    +0.000 A 
ATOM     28  C   UNL     1       2.756   3.241  17.346  0.00  0.00    +0.000 A 
ATOM     29  C   UNL     1       3.970   3.833  16.996  0.00  0.00    +0.000 A 
ATOM     30  C   UNL     1       4.172   5.203  17.199  0.00  0.00    +0.000 A 
ATOM     31 CL   UNL     1       5.705   5.857  16.740  0.00  0.00    +0.000 Cl
ENDBRANCH  24  25
ENDBRANCH  22  24
ENDBRANCH   1  21
TORSDOF 5
ENDMDL
MODEL 4
REMARK VINA RESULT:      -6.1      4.970      6.561
REMARK  Name = 
REMARK  5 active torsions:
REMARK  status: ('A' for Active; 'I' for Inactive)
REMARK    1  A    between atoms: C_2  and  C_12
REMARK    2  A    between atoms: N_3  and  C_4
REMARK    3  A    between atoms: C_4  and  C_5
REMARK    4  A    between atoms: C_17  and  C_19
REMARK    5  A    between atoms: C_24  and  C_26
REMARK                            x       y       z     vdW  Elec       q    Type
REMARK                         _______ _______ _______ _____ _____    ______ ____
ROOT
ATOM      1  C   UNL     1       0.602  11.358  19.190  0.00  0.00    +0.000 C 
ATOM      2  C   UNL     1      -0.361  10.336  19.802  0.00  0.00    +0.000 C 
ATOM      3  C   UNL     1       0.288   9.992  21.139  0.00  0.00    +0.000 C 
ATOM      4  C   UNL     1       0.926  11.304  21.579  0.00  0.00    +0.000 C 
ATOM      5  N   UNL     1       1.063  12.107  20.366  0.00  0.00    +0.000 N 
ATOM      6  C   UNL     1       1.325  13.463  20.469  0.00  0.00    +0.000 C 
ATOM      7  O   UNL     1       1.575  13.953  21.574  0.00  0.00    +0.000 OA
ENDROOT
BRANCH   6   8
ATOM      8  C   UNL     1       1.246  14.356  19.194  0.00  0.00    +0.000 C 
ATOM      9  C   UNL     1      -0.194  14.455  18.679  0.00  0.00    +0.000 C 
ATOM     10  C   UNL     1      -0.810  15.578  19.509  0.00  0.00    +0.000 C 
ATOM     11  C   UNL     1       0.353  16.514  19.794  0.00  0.00    +0.000 C 
ATOM     12  N   UNL     1       1.558  15.756  19.510  0.00  0.00    +0.000 N 
ATOM     13  C   UNL     1       2.769  16.446  19.477  0.00  0.00    +0.000 C 
ATOM     14  O   UNL     1       2.776  17.640  19.786  0.00  0.00    +0.000 OA
BRANCH  13  15
ATOM     15  C   UNL     1       3.976  15.779  19.009  0.00  0.00    +0.000 A 
ATOM     16  C   UNL     1       4.333  15.249  17.784  0.00  0.00    +0.000 A 
ATOM     17  C   UNL     1       5.638  14.672  17.788  0.00  0.00    +0.000 A 
ATOM     18  C   UNL     1       6.235  14.753  19.023  0.00  0.00    +0.000 A 
ATOM     19  S   UNL     1       5.235  15.531  20.163  0.00  0.00    +0.000 S 
ENDBRANCH  13  15
ENDBRANCH   6   8
BRANCH   1  21
ATOM     20  O   UNL     1       2.590  11.244  17.809  0.00  0.00    +0.000 OA
ATOM     21  C   UNL     1       1.723  10.619  18.418  0.00  0.00    +0.000 C 
ATOM     22  N   UNL     1       1.572   9.253  18.300  0.00  0.00    +0.000 N 
ATOM     23  H   UNL     1       1.008   8.787  19.001  0.00  0.00    +0.000 HD
BRANCH  22  24
ATOM     24  C   UNL     1       2.524   8.448  17.565  0.00  0.00    +0.000 C 
BRANCH  24  25
ATOM     25  C   UNL     1       2.958   7.198  18.296  0.00  0.00    +0.000 A 
ATOM     26  C   UNL     1       2.299   6.850  19.491  0.00  0.00    +0.000 A 
ATOM     27  C   UNL     1       2.582   5.650  20.150  0.00  0.00    +0.000 A 
ATOM     28  C   UNL     1       3.530   4.775  19.631  0.00  0.00    +0.000 A 
ATOM     29  C   UNL     1       4.212   5.113  18.462  0.00  0.00    +0.000 A 
ATOM     30  C   UNL     1       3.932   6.316  17.803  0.00  0.00    +0.000 A 
ATOM     31 CL   UNL     1       4.824   6.660  16.363  0.00  0.00    +0.000 Cl
ENDBRANCH  24  25
ENDBRANCH  22  24
ENDBRANCH   1  21
TORSDOF 5
ENDMDL
MODEL 5
REMARK VINA RESULT:      -6.1      1.155      1.230
REMARK  Name = 
REMARK  5 active torsions:
REMARK  status: ('A' for Active; 'I' for Inactive)
REMARK    1  A    between atoms: C_2  and  C_12
REMARK    2  A    between atoms: N_3  and  C_4
REMARK    3  A    between atoms: C_4  and  C_5
REMARK    4  A    between atoms: C_17  and  C_19
REMARK    5  A    between atoms: C_24  and  C_26
REMARK                            x       y       z     vdW  Elec       q    Type
REMARK                         _______ _______ _______ _____ _____    ______ ____
ROOT
ATOM      1  C   UNL     1      -3.298  11.911  17.924  0.00  0.00    +0.000 C 
ATOM      2  C   UNL     1      -3.086  11.139  16.619  0.00  0.00    +0.000 C 
ATOM      3  C   UNL     1      -3.380   9.694  17.010  0.00  0.00    +0.000 C 
ATOM      4  C   UNL     1      -4.489   9.818  18.048  0.00  0.00    +0.000 C 
ATOM      5  N   UNL     1      -4.416  11.190  18.545  0.00  0.00    +0.000 N 
ATOM      6  C   UNL     1      -5.474  11.711  19.272  0.00  0.00    +0.000 C 
ATOM      7  O   UNL     1      -6.404  10.973  19.609  0.00  0.00    +0.000 OA
ENDROOT
BRANCH   6   8
ATOM      8  C   UNL     1      -5.495  13.234  19.606  0.00  0.00    +0.000 C 
ATOM      9  C   UNL     1      -6.269  14.020  18.542  0.00  0.00    +0.000 C 
ATOM     10  C   UNL     1      -7.727  13.899  18.977  0.00  0.00    +0.000 C 
ATOM     11  C   UNL     1      -7.660  13.818  20.493  0.00  0.00    +0.000 C 
ATOM     12  N   UNL     1      -6.282  13.497  20.818  0.00  0.00    +0.000 N 
ATOM     13  C   UNL     1      -5.891  13.580  22.154  0.00  0.00    +0.000 C 
ATOM     14  O   UNL     1      -6.750  13.822  23.006  0.00  0.00    +0.000 OA
BRANCH  13  15
ATOM     15  C   UNL     1      -4.485  13.459  22.511  0.00  0.00    +0.000 A 
ATOM     16  C   UNL     1      -3.728  12.400  22.976  0.00  0.00    +0.000 A 
ATOM     17  C   UNL     1      -2.364  12.751  23.204  0.00  0.00    +0.000 A 
ATOM     18  C   UNL     1      -2.119  14.076  22.934  0.00  0.00    +0.000 A 
ATOM     19  S   UNL     1      -3.519  14.885  22.396  0.00  0.00    +0.000 S 
ENDBRANCH  13  15
ENDBRANCH   6   8
BRANCH   1  21
ATOM     20  O   UNL     1      -1.944  12.411  19.871  0.00  0.00    +0.000 OA
ATOM     21  C   UNL     1      -1.988  11.904  18.751  0.00  0.00    +0.000 C 
ATOM     22  N   UNL     1      -0.859  11.477  18.085  0.00  0.00    +0.000 N 
ATOM     23  H   UNL     1      -0.993  10.863  17.290  0.00  0.00    +0.000 HD
BRANCH  22  24
ATOM     24  C   UNL     1       0.438  11.463  18.727  0.00  0.00    +0.000 C 
BRANCH  24  25
ATOM     25  C   UNL     1       0.985  10.075  18.967  0.00  0.00    +0.000 A 
ATOM     26  C   UNL     1       1.683   9.434  17.924  0.00  0.00    +0.000 A 
ATOM     27  C   UNL     1       2.303   8.197  18.123  0.00  0.00    +0.000 A 
ATOM     28  C   UNL     1       2.239   7.575  19.365  0.00  0.00    +0.000 A 
ATOM     29  C   UNL     1       1.532   8.181  20.403  0.00  0.00    +0.000 A 
ATOM     30  C   UNL     1       0.906   9.418  20.204  0.00  0.00    +0.000 A 
ATOM     31 CL   UNL     1       0.048  10.099  21.541  0.00  0.00    +0.000 Cl
ENDBRANCH  24  25
ENDBRANCH  22  24
ENDBRANCH   1  21
TORSDOF 5
ENDMDL
MODEL 6
REMARK VINA RESULT:      -6.0      4.784      6.534
REMARK  Name = 
REMARK  5 active torsions:
REMARK  status: ('A' for Active; 'I' for Inactive)
REMARK    1  A    between atoms: C_2  and  C_12
REMARK    2  A    between atoms: N_3  and  C_4
REMARK    3  A    between atoms: C_4  and  C_5
REMARK    4  A    between atoms: C_17  and  C_19
REMARK    5  A    between atoms: C_24  and  C_26
REMARK                            x       y       z     vdW  Elec       q    Type
REMARK                         _______ _______ _______ _____ _____    ______ ____
ROOT
ATOM      1  C   UNL     1       0.575  10.426  19.369  0.00  0.00    +0.000 C 
ATOM      2  C   UNL     1      -0.376   9.533  20.170  0.00  0.00    +0.000 C 
ATOM      3  C   UNL     1       0.370   9.305  21.481  0.00  0.00    +0.000 C 
ATOM      4  C   UNL     1       1.101  10.621  21.714  0.00  0.00    +0.000 C 
ATOM      5  N   UNL     1       1.169  11.274  20.409  0.00  0.00    +0.000 N 
ATOM      6  C   UNL     1       1.500  12.618  20.333  0.00  0.00    +0.000 C 
ATOM      7  O   UNL     1       1.867  13.214  21.350  0.00  0.00    +0.000 OA
ENDROOT
BRANCH   6   8
ATOM      8  C   UNL     1       1.352  13.366  18.974  0.00  0.00    +0.000 C 
ATOM      9  C   UNL     1      -0.001  13.060  18.322  0.00  0.00    +0.000 C 
ATOM     10  C   UNL     1      -0.962  14.049  18.976  0.00  0.00    +0.000 C 
ATOM     11  C   UNL     1      -0.102  15.267  19.272  0.00  0.00    +0.000 C 
ATOM     12  N   UNL     1       1.276  14.819  19.177  0.00  0.00    +0.000 N 
ATOM     13  C   UNL     1       2.279  15.787  19.186  0.00  0.00    +0.000 C 
ATOM     14  O   UNL     1       1.960  16.964  19.374  0.00  0.00    +0.000 OA
BRANCH  13  15
ATOM     15  C   UNL     1       3.656  15.414  18.899  0.00  0.00    +0.000 A 
ATOM     16  C   UNL     1       4.312  15.099  17.724  0.00  0.00    +0.000 A 
ATOM     17  C   UNL     1       5.688  14.780  17.925  0.00  0.00    +0.000 A 
ATOM     18  C   UNL     1       6.043  14.833  19.252  0.00  0.00    +0.000 A 
ATOM     19  S   UNL     1       4.730  15.278  20.244  0.00  0.00    +0.000 S 
ENDBRANCH  13  15
ENDBRANCH   6   8
BRANCH   1  21
ATOM     20  O   UNL     1       2.026   9.893  17.502  0.00  0.00    +0.000 OA
ATOM     21  C   UNL     1       1.590   9.545  18.599  0.00  0.00    +0.000 C 
ATOM     22  N   UNL     1       1.814   8.289  19.122  0.00  0.00    +0.000 N 
ATOM     23  H   UNL     1       1.636   8.159  20.111  0.00  0.00    +0.000 HD
BRANCH  22  24
ATOM     24  C   UNL     1       2.706   7.349  18.476  0.00  0.00    +0.000 C 
BRANCH  24  25
ATOM     25  C   UNL     1       2.662   5.960  19.070  0.00  0.00    +0.000 A 
ATOM     26  C   UNL     1       1.955   5.761  20.272  0.00  0.00    +0.000 A 
ATOM     27  C   UNL     1       1.789   4.481  20.810  0.00  0.00    +0.000 A 
ATOM     28  C   UNL     1       2.326   3.375  20.160  0.00  0.00    +0.000 A 
ATOM     29  C   UNL     1       3.051   3.554  18.981  0.00  0.00    +0.000 A 
ATOM     30  C   UNL     1       3.222   4.836  18.444  0.00  0.00    +0.000 A 
ATOM     31 CL   UNL     1       4.135   4.970  16.983  0.00  0.00    +0.000 Cl
ENDBRANCH  24  25
ENDBRANCH  22  24
ENDBRANCH   1  21
TORSDOF 5
ENDMDL
MODEL 7
REMARK VINA RESULT:      -6.0      4.054      5.780
REMARK  Name = 
REMARK  5 active torsions:
REMARK  status: ('A' for Active; 'I' for Inactive)
REMARK    1  A    between atoms: C_2  and  C_12
REMARK    2  A    between atoms: N_3  and  C_4
REMARK    3  A    between atoms: C_4  and  C_5
REMARK    4  A    between atoms: C_17  and  C_19
REMARK    5  A    between atoms: C_24  and  C_26
REMARK                            x       y       z     vdW  Elec       q    Type
REMARK                         _______ _______ _______ _____ _____    ______ ____
ROOT
ATOM      1  C   UNL     1       0.372   9.876  19.823  0.00  0.00    +0.000 C 
ATOM      2  C   UNL     1       0.027   8.591  20.581  0.00  0.00    +0.000 C 
ATOM      3  C   UNL     1       0.957   8.631  21.790  0.00  0.00    +0.000 C 
ATOM      4  C   UNL     1       1.052  10.114  22.124  0.00  0.00    +0.000 C 
ATOM      5  N   UNL     1       0.656  10.822  20.909  0.00  0.00    +0.000 N 
ATOM      6  C   UNL     1       0.344  12.171  20.974  0.00  0.00    +0.000 C 
ATOM      7  O   UNL     1       0.535  12.790  22.024  0.00  0.00    +0.000 OA
ENDROOT
BRANCH   6   8
ATOM      8  C   UNL     1      -0.293  12.868  19.734  0.00  0.00    +0.000 C 
ATOM      9  C   UNL     1      -1.732  12.388  19.511  0.00  0.00    +0.000 C 
ATOM     10  C   UNL     1      -2.565  13.268  20.440  0.00  0.00    +0.000 C 
ATOM     11  C   UNL     1      -1.810  14.586  20.486  0.00  0.00    +0.000 C 
ATOM     12  N   UNL     1      -0.480  14.305  19.975  0.00  0.00    +0.000 N 
ATOM     13  C   UNL     1       0.355  15.387  19.700  0.00  0.00    +0.000 C 
ATOM     14  O   UNL     1      -0.032  16.520  19.995  0.00  0.00    +0.000 OA
BRANCH  13  15
ATOM     15  C   UNL     1       1.619  15.176  19.008  0.00  0.00    +0.000 A 
ATOM     16  C   UNL     1       2.462  14.085  18.919  0.00  0.00    +0.000 A 
ATOM     17  C   UNL     1       3.618  14.341  18.122  0.00  0.00    +0.000 A 
ATOM     18  C   UNL     1       3.642  15.629  17.645  0.00  0.00    +0.000 A 
ATOM     19  S   UNL     1       2.274  16.517  18.142  0.00  0.00    +0.000 S 
ENDBRANCH  13  15
ENDBRANCH   6   8
BRANCH   1  21
ATOM     20  O   UNL     1       2.020  10.510  18.162  0.00  0.00    +0.000 OA
ATOM     21  C   UNL     1       1.565   9.612  18.871  0.00  0.00    +0.000 C 
ATOM     22  N   UNL     1       1.944   8.294  18.731  0.00  0.00    +0.000 N 
ATOM     23  H   UNL     1       1.717   7.663  19.491  0.00  0.00    +0.000 HD
BRANCH  22  24
ATOM     24  C   UNL     1       3.015   7.905  17.839  0.00  0.00    +0.000 C 
BRANCH  24  25
ATOM     25  C   UNL     1       3.193   6.409  17.715  0.00  0.00    +0.000 A 
ATOM     26  C   UNL     1       2.119   5.569  18.070  0.00  0.00    +0.000 A 
ATOM     27  C   UNL     1       2.187   4.186  17.874  0.00  0.00    +0.000 A 
ATOM     28  C   UNL     1       3.328   3.615  17.320  0.00  0.00    +0.000 A 
ATOM     29  C   UNL     1       4.412   4.427  16.985  0.00  0.00    +0.000 A 
ATOM     30  C   UNL     1       4.347   5.811  17.186  0.00  0.00    +0.000 A 
ATOM     31 CL   UNL     1       5.733   6.744  16.746  0.00  0.00    +0.000 Cl
ENDBRANCH  24  25
ENDBRANCH  22  24
ENDBRANCH   1  21
TORSDOF 5
ENDMDL
MODEL 8
REMARK VINA RESULT:      -5.9      8.127     10.428
REMARK  Name = 
REMARK  5 active torsions:
REMARK  status: ('A' for Active; 'I' for Inactive)
REMARK    1  A    between atoms: C_2  and  C_12
REMARK    2  A    between atoms: N_3  and  C_4
REMARK    3  A    between atoms: C_4  and  C_5
REMARK    4  A    between atoms: C_17  and  C_19
REMARK    5  A    between atoms: C_24  and  C_26
REMARK                            x       y       z     vdW  Elec       q    Type
REMARK                         _______ _______ _______ _____ _____    ______ ____
ROOT
ATOM      1  C   UNL     1       5.925  13.476  22.806  0.00  0.00    +0.000 C 
ATOM      2  C   UNL     1       5.955  12.898  24.224  0.00  0.00    +0.000 C 
ATOM      3  C   UNL     1       6.039  14.137  25.111  0.00  0.00    +0.000 C 
ATOM      4  C   UNL     1       5.211  15.174  24.362  0.00  0.00    +0.000 C 
ATOM      5  N   UNL     1       5.146  14.708  22.979  0.00  0.00    +0.000 N 
ATOM      6  C   UNL     1       4.217  15.263  22.113  0.00  0.00    +0.000 C 
ATOM      7  O   UNL     1       3.550  16.236  22.478  0.00  0.00    +0.000 OA
ENDROOT
BRANCH   6   8
ATOM      8  C   UNL     1       3.993  14.615  20.714  0.00  0.00    +0.000 C 
ATOM      9  C   UNL     1       2.841  13.606  20.752  0.00  0.00    +0.000 C 
ATOM     10  C   UNL     1       1.591  14.461  20.560  0.00  0.00    +0.000 C 
ATOM     11  C   UNL     1       2.055  15.610  19.682  0.00  0.00    +0.000 C 
ATOM     12  N   UNL     1       3.505  15.605  19.745  0.00  0.00    +0.000 N 
ATOM     13  C   UNL     1       4.200  16.422  18.854  0.00  0.00    +0.000 C 
ATOM     14  O   UNL     1       3.556  17.181  18.125  0.00  0.00    +0.000 OA
BRANCH  13  15
ATOM     15  C   UNL     1       5.647  16.312  18.741  0.00  0.00    +0.000 A 
ATOM     16  C   UNL     1       6.679  17.143  19.137  0.00  0.00    +0.000 A 
ATOM     17  C   UNL     1       7.967  16.625  18.804  0.00  0.00    +0.000 A 
ATOM     18  C   UNL     1       7.885  15.425  18.140  0.00  0.00    +0.000 A 
ATOM     19  S   UNL     1       6.270  14.921  17.931  0.00  0.00    +0.000 S 
ENDBRANCH  13  15
ENDBRANCH   6   8
BRANCH   1  21
ATOM     20  O   UNL     1       7.675  14.700  21.659  0.00  0.00    +0.000 OA
ATOM     21  C   UNL     1       7.374  13.697  22.304  0.00  0.00    +0.000 C 
ATOM     22  N   UNL     1       8.232  12.628  22.456  0.00  0.00    +0.000 N 
ATOM     23  H   UNL     1       8.014  11.958  23.184  0.00  0.00    +0.000 HD
BRANCH  22  24
ATOM     24  C   UNL     1       9.601  12.685  21.989  0.00  0.00    +0.000 C 
BRANCH  24  25
ATOM     25  C   UNL     1       9.790  12.151  20.587  0.00  0.00    +0.000 A 
ATOM     26  C   UNL     1       9.309  10.861  20.284  0.00  0.00    +0.000 A 
ATOM     27  C   UNL     1       9.358  10.359  18.981  0.00  0.00    +0.000 A 
ATOM     28  C   UNL     1       9.889  11.132  17.954  0.00  0.00    +0.000 A 
ATOM     29  C   UNL     1      10.394  12.401  18.238  0.00  0.00    +0.000 A 
ATOM     30  C   UNL     1      10.349  12.904  19.544  0.00  0.00    +0.000 A 
ATOM     31 CL   UNL     1      10.997  14.484  19.811  0.00  0.00    +0.000 Cl
ENDBRANCH  24  25
ENDBRANCH  22  24
ENDBRANCH   1  21
TORSDOF 5
ENDMDL
MODEL 9
REMARK VINA RESULT:      -5.9      2.500      3.483
REMARK  Name = 
REMARK  5 active torsions:
REMARK  status: ('A' for Active; 'I' for Inactive)
REMARK    1  A    between atoms: C_2  and  C_12
REMARK    2  A    between atoms: N_3  and  C_4
REMARK    3  A    between atoms: C_4  and  C_5
REMARK    4  A    between atoms: C_17  and  C_19
REMARK    5  A    between atoms: C_24  and  C_26
REMARK                            x       y       z     vdW  Elec       q    Type
REMARK                         _______ _______ _______ _____ _____    ______ ____
ROOT
ATOM      1  C   UNL     1      -5.869  12.455  18.599  0.00  0.00    +0.000 C 
ATOM      2  C   UNL     1      -7.057  11.709  17.985  0.00  0.00    +0.000 C 
ATOM      3  C   UNL     1      -7.059  10.374  18.725  0.00  0.00    +0.000 C 
ATOM      4  C   UNL     1      -6.595  10.739  20.129  0.00  0.00    +0.000 C 
ATOM      5  N   UNL     1      -5.909  12.023  20.001  0.00  0.00    +0.000 N 
ATOM      6  C   UNL     1      -5.639  12.770  21.136  0.00  0.00    +0.000 C 
ATOM      7  O   UNL     1      -5.855  12.285  22.251  0.00  0.00    +0.000 OA
ENDROOT
BRANCH   6   8
ATOM      8  C   UNL     1      -5.117  14.231  20.983  0.00  0.00    +0.000 C 
ATOM      9  C   UNL     1      -6.043  15.054  20.082  0.00  0.00    +0.000 C 
ATOM     10  C   UNL     1      -7.142  15.541  21.022  0.00  0.00    +0.000 C 
ATOM     11  C   UNL     1      -6.446  15.694  22.365  0.00  0.00    +0.000 C 
ATOM     12  N   UNL     1      -5.199  14.956  22.257  0.00  0.00    +0.000 N 
ATOM     13  C   UNL     1      -4.259  15.113  23.275  0.00  0.00    +0.000 C 
ATOM     14  O   UNL     1      -4.566  15.786  24.263  0.00  0.00    +0.000 OA
BRANCH  13  15
ATOM     15  C   UNL     1      -2.923  14.555  23.126  0.00  0.00    +0.000 A 
ATOM     16  C   UNL     1      -2.424  13.276  23.285  0.00  0.00    +0.000 A 
ATOM     17  C   UNL     1      -1.020  13.194  23.038  0.00  0.00    +0.000 A 
ATOM     18  C   UNL     1      -0.479  14.418  22.723  0.00  0.00    +0.000 A 
ATOM     19  S   UNL     1      -1.655  15.651  22.711  0.00  0.00    +0.000 S 
ENDBRANCH  13  15
ENDBRANCH   6   8
BRANCH   1  21
ATOM     20  O   UNL     1      -4.609  11.650  16.691  0.00  0.00    +0.000 OA
ATOM     21  C   UNL     1      -4.570  12.074  17.845  0.00  0.00    +0.000 C 
ATOM     22  N   UNL     1      -3.418  12.058  18.603  0.00  0.00    +0.000 N 
ATOM     23  H   UNL     1      -3.403  12.633  19.437  0.00  0.00    +0.000 HD
BRANCH  22  24
ATOM     24  C   UNL     1      -2.144  11.676  18.032  0.00  0.00    +0.000 C 
BRANCH  24  25
ATOM     25  C   UNL     1      -1.043  11.509  19.055  0.00  0.00    +0.000 A 
ATOM     26  C   UNL     1      -0.922  10.274  19.722  0.00  0.00    +0.000 A 
ATOM     27  C   UNL     1       0.140  10.025  20.596  0.00  0.00    +0.000 A 
ATOM     28  C   UNL     1       1.101  11.004  20.824  0.00  0.00    +0.000 A 
ATOM     29  C   UNL     1       0.985  12.244  20.194  0.00  0.00    +0.000 A 
ATOM     30  C   UNL     1      -0.081  12.495  19.321  0.00  0.00    +0.000 A 
ATOM     31 CL   UNL     1      -0.153  14.056  18.583  0.00  0.00    +0.000 Cl
ENDBRANCH  24  25
ENDBRANCH  22  24
ENDBRANCH   1  21
TORSDOF 5
ENDMDL
