MODEL 1
REMARK VINA RESULT:      -7.1      0.000      0.000
REMARK  Name = 
REMARK  5 active torsions:
REMARK  status: ('A' for Active; 'I' for Inactive)
REMARK    1  A    between atoms: C_2  and  C_3
REMARK    2  A    between atoms: C_3  and  N_4
REMARK    3  A    between atoms: C_13  and  S_14
REMARK    4  A    between atoms: S_14  and  N_17
REMARK    5  A    between atoms: N_25  and  C_26
REMARK                            x       y       z     vdW  Elec       q    Type
REMARK                         _______ _______ _______ _____ _____    ______ ____
ROOT
ATOM      1  N   UNL     1      -2.001  12.894  19.738  0.00  0.00    +0.000 N 
ATOM      2  C   UNL     1      -1.051  13.879  19.480  0.00  0.00    +0.000 C 
ATOM      3  O   UNL     1      -0.463  13.954  18.400  0.00  0.00    +0.000 OA
ATOM      4  C   UNL     1      -0.752  14.879  20.573  0.00  0.00    +0.000 C 
ATOM      5  C   UNL     1       0.129  14.277  21.653  0.00  0.00    +0.000 C 
ATOM      6  S   UNL     1      -0.446  12.733  22.447  0.00  0.00    +0.000 S 
ATOM      7  C   UNL     1      -2.211  12.839  22.202  0.00  0.00    +0.000 A 
ATOM      8  C   UNL     1      -3.035  12.751  23.337  0.00  0.00    +0.000 A 
ATOM      9  C   UNL     1      -4.426  12.741  23.213  0.00  0.00    +0.000 A 
ATOM     10  C   UNL     1      -5.001  12.807  21.945  0.00  0.00    +0.000 A 
ATOM     11  C   UNL     1      -4.196  12.897  20.805  0.00  0.00    +0.000 A 
ATOM     12  C   UNL     1      -2.798  12.882  20.922  0.00  0.00    +0.000 A 
ENDROOT
BRANCH  10  13
ATOM     13  S   UNL     1      -6.774  12.867  21.781  0.00  0.00    +0.000 S 
ATOM     14  O   UNL     1      -7.309  11.914  22.729  0.00  0.00    +0.000 OA
ATOM     15  O   UNL     1      -7.159  14.262  21.816  0.00  0.00    +0.000 OA
BRANCH  13  16
ATOM     16  N   UNL     1      -7.049  12.302  20.244  0.00  0.00    +0.000 NA
ATOM     17  C   UNL     1      -7.105  10.868  19.906  0.00  0.00    +0.000 C 
ATOM     18  C   UNL     1      -6.209  10.646  18.675  0.00  0.00    +0.000 C 
ATOM     19  O   UNL     1      -6.604  11.492  17.577  0.00  0.00    +0.000 OA
ATOM     20  C   UNL     1      -6.544  12.883  17.947  0.00  0.00    +0.000 C 
ATOM     21  C   UNL     1      -7.474  13.170  19.132  0.00  0.00    +0.000 C 
ENDBRANCH  13  16
ENDBRANCH  10  13
BRANCH   1  22
ATOM     22  C   UNL     1      -2.364  11.994  18.636  0.00  0.00    +0.000 C 
BRANCH  22  24
ATOM     23  O   UNL     1      -2.012   9.768  17.840  0.00  0.00    +0.000 OA
ATOM     24  C   UNL     1      -1.520  10.717  18.463  0.00  0.00    +0.000 C 
ATOM     25  N   UNL     1      -0.284  10.696  19.083  0.00  0.00    +0.000 N 
ATOM     26  H   UNL     1      -0.082  11.460  19.713  0.00  0.00    +0.000 HD
BRANCH  25  27
ATOM     27  C   UNL     1       0.683   9.664  19.000  0.00  0.00    +0.000 A 
ATOM     28  C   UNL     1       1.504   9.459  17.883  0.00  0.00    +0.000 A 
ATOM     29  C   UNL     1       2.413   8.395  17.838  0.00  0.00    +0.000 A 
ATOM     30  C   UNL     1       2.521   7.524  18.916  0.00  0.00    +0.000 A 
ATOM     31  C   UNL     1       1.737   7.746  20.041  0.00  0.00    +0.000 A 
ATOM     32  F   UNL     1       1.844   6.916  21.087  0.00  0.00    +0.000 F 
ATOM     33  C   UNL     1       0.831   8.808  20.099  0.00  0.00    +0.000 A 
ENDBRANCH  25  27
ENDBRANCH  22  24
ENDBRANCH   1  22
TORSDOF 5
ENDMDL
MODEL 2
REMARK VINA RESULT:      -7.1      2.995      6.092
REMARK  Name = 
REMARK  5 active torsions:
REMARK  status: ('A' for Active; 'I' for Inactive)
REMARK    1  A    between atoms: C_2  and  C_3
REMARK    2  A    between atoms: C_3  and  N_4
REMARK    3  A    between atoms: C_13  and  S_14
REMARK    4  A    between atoms: S_14  and  N_17
REMARK    5  A    between atoms: N_25  and  C_26
REMARK                            x       y       z     vdW  Elec       q    Type
REMARK                         _______ _______ _______ _____ _____    ______ ____
ROOT
ATOM      1  N   UNL     1      -5.898  13.331  21.288  0.00  0.00    +0.000 N 
ATOM      2  C   UNL     1      -6.918  12.650  21.948  0.00  0.00    +0.000 C 
ATOM      3  O   UNL     1      -7.881  12.172  21.347  0.00  0.00    +0.000 OA
ATOM      4  C   UNL     1      -6.816  12.504  23.448  0.00  0.00    +0.000 C 
ATOM      5  C   UNL     1      -7.181  13.793  24.160  0.00  0.00    +0.000 C 
ATOM      6  S   UNL     1      -6.273  15.308  23.683  0.00  0.00    +0.000 S 
ATOM      7  C   UNL     1      -4.748  14.627  23.053  0.00  0.00    +0.000 A 
ATOM      8  C   UNL     1      -3.546  15.083  23.621  0.00  0.00    +0.000 A 
ATOM      9  C   UNL     1      -2.312  14.659  23.121  0.00  0.00    +0.000 A 
ATOM     10  C   UNL     1      -2.276  13.782  22.038  0.00  0.00    +0.000 A 
ATOM     11  C   UNL     1      -3.463  13.317  21.463  0.00  0.00    +0.000 A 
ATOM     12  C   UNL     1      -4.705  13.759  21.944  0.00  0.00    +0.000 A 
ENDROOT
BRANCH  10  13
ATOM     13  S   UNL     1      -0.710  13.180  21.440  0.00  0.00    +0.000 S 
ATOM     14  O   UNL     1      -0.685  13.436  20.017  0.00  0.00    +0.000 OA
ATOM     15  O   UNL     1       0.314  13.706  22.318  0.00  0.00    +0.000 OA
BRANCH  13  16
ATOM     16  N   UNL     1      -0.796  11.540  21.686  0.00  0.00    +0.000 NA
ATOM     17  C   UNL     1      -1.244  10.933  22.953  0.00  0.00    +0.000 C 
ATOM     18  C   UNL     1      -0.215   9.859  23.342  0.00  0.00    +0.000 C 
ATOM     19  O   UNL     1      -0.043   8.888  22.291  0.00  0.00    +0.000 OA
ATOM     20  C   UNL     1       0.387   9.518  21.069  0.00  0.00    +0.000 C 
ATOM     21  C   UNL     1      -0.642  10.555  20.601  0.00  0.00    +0.000 C 
ENDBRANCH  13  16
ENDBRANCH  10  13
BRANCH   1  22
ATOM     22  C   UNL     1      -5.948  13.376  19.821  0.00  0.00    +0.000 C 
BRANCH  22  24
ATOM     23  O   UNL     1      -5.910  11.049  19.281  0.00  0.00    +0.000 OA
ATOM     24  C   UNL     1      -5.401  12.154  19.060  0.00  0.00    +0.000 C 
ATOM     25  N   UNL     1      -4.321  12.372  18.224  0.00  0.00    +0.000 N 
ATOM     26  H   UNL     1      -3.885  13.283  18.277  0.00  0.00    +0.000 HD
BRANCH  25  27
ATOM     27  C   UNL     1      -3.704  11.417  17.377  0.00  0.00    +0.000 A 
ATOM     28  C   UNL     1      -2.565  10.686  17.736  0.00  0.00    +0.000 A 
ATOM     29  C   UNL     1      -1.970   9.787  16.843  0.00  0.00    +0.000 A 
ATOM     30  C   UNL     1      -2.515   9.598  15.578  0.00  0.00    +0.000 A 
ATOM     31  C   UNL     1      -3.667  10.292  15.232  0.00  0.00    +0.000 A 
ATOM     32  F   UNL     1      -4.202  10.106  14.018  0.00  0.00    +0.000 F 
ATOM     33  C   UNL     1      -4.272  11.187  16.118  0.00  0.00    +0.000 A 
ENDBRANCH  25  27
ENDBRANCH  22  24
ENDBRANCH   1  22
TORSDOF 5
ENDMDL
MODEL 3
REMARK VINA RESULT:      -7.1      3.885      6.971
REMARK  Name = 
REMARK  5 active torsions:
REMARK  status: ('A' for Active; 'I' for Inactive)
REMARK    1  A    between atoms: C_2  and  C_3
REMARK    2  A    between atoms: C_3  and  N_4
REMARK    3  A    between atoms: C_13  and  S_14
REMARK    4  A    between atoms: S_14  and  N_17
REMARK    5  A    between atoms: N_25  and  C_26
REMARK                            x       y       z     vdW  Elec       q    Type
REMARK                         _______ _______ _______ _____ _____    ______ ____
ROOT
ATOM      1  N   UNL     1       0.196  11.227  21.624  0.00  0.00    +0.000 N 
ATOM      2  C   UNL     1      -0.779  11.352  22.610  0.00  0.00    +0.000 C 
ATOM      3  O   UNL     1      -0.866  10.558  23.549  0.00  0.00    +0.000 OA
ATOM      4  C   UNL     1      -1.748  12.507  22.507  0.00  0.00    +0.000 C 
ATOM      5  C   UNL     1      -2.809  12.252  21.453  0.00  0.00    +0.000 C 
ATOM      6  S   UNL     1      -2.241  11.844  19.763  0.00  0.00    +0.000 S 
ATOM      7  C   UNL     1      -0.624  12.601  19.737  0.00  0.00    +0.000 A 
ATOM      8  C   UNL     1      -0.350  13.523  18.713  0.00  0.00    +0.000 A 
ATOM      9  C   UNL     1       0.920  14.089  18.580  0.00  0.00    +0.000 A 
ATOM     10  C   UNL     1       1.930  13.724  19.469  0.00  0.00    +0.000 A 
ATOM     11  C   UNL     1       1.674  12.809  20.495  0.00  0.00    +0.000 A 
ATOM     12  C   UNL     1       0.407  12.217  20.618  0.00  0.00    +0.000 A 
ENDROOT
BRANCH  10  13
ATOM     13  S   UNL     1       3.531  14.494  19.352  0.00  0.00    +0.000 S 
ATOM     14  O   UNL     1       4.130  14.405  20.666  0.00  0.00    +0.000 OA
ATOM     15  O   UNL     1       4.188  13.940  18.187  0.00  0.00    +0.000 OA
BRANCH  13  16
ATOM     16  N   UNL     1       3.184  16.086  19.030  0.00  0.00    +0.000 NA
ATOM     17  C   UNL     1       2.811  17.059  20.073  0.00  0.00    +0.000 C 
ATOM     18  C   UNL     1       1.553  17.799  19.587  0.00  0.00    +0.000 C 
ATOM     19  O   UNL     1       1.767  18.415  18.301  0.00  0.00    +0.000 OA
ATOM     20  C   UNL     1       2.136  17.435  17.312  0.00  0.00    +0.000 C 
ATOM     21  C   UNL     1       3.427  16.713  17.719  0.00  0.00    +0.000 C 
ENDBRANCH  13  16
ENDBRANCH  10  13
BRANCH   1  22
ATOM     22  C   UNL     1       1.199  10.168  21.790  0.00  0.00    +0.000 C 
BRANCH  22  24
ATOM     23  O   UNL     1      -0.276   8.467  20.988  0.00  0.00    +0.000 OA
ATOM     24  C   UNL     1       0.904   8.809  21.125  0.00  0.00    +0.000 C 
ATOM     25  N   UNL     1       1.995   8.030  20.788  0.00  0.00    +0.000 N 
ATOM     26  H   UNL     1       2.896   8.344  21.124  0.00  0.00    +0.000 HD
BRANCH  25  27
ATOM     27  C   UNL     1       1.965   6.787  20.108  0.00  0.00    +0.000 A 
ATOM     28  C   UNL     1       2.410   6.613  18.792  0.00  0.00    +0.000 A 
ATOM     29  C   UNL     1       2.316   5.371  18.153  0.00  0.00    +0.000 A 
ATOM     30  C   UNL     1       1.783   4.278  18.828  0.00  0.00    +0.000 A 
ATOM     31  C   UNL     1       1.376   4.437  20.146  0.00  0.00    +0.000 A 
ATOM     32  F   UNL     1       0.871   3.385  20.805  0.00  0.00    +0.000 F 
ATOM     33  C   UNL     1       1.471   5.671  20.795  0.00  0.00    +0.000 A 
ENDBRANCH  25  27
ENDBRANCH  22  24
ENDBRANCH   1  22
TORSDOF 5
ENDMDL
MODEL 4
REMARK VINA RESULT:      -6.8      3.175      5.707
REMARK  Name = 
REMARK  5 active torsions:
REMARK  status: ('A' for Active; 'I' for Inactive)
REMARK    1  A    between atoms: C_2  and  C_3
REMARK    2  A    between atoms: C_3  and  N_4
REMARK    3  A    between atoms: C_13  and  S_14
REMARK    4  A    between atoms: S_14  and  N_17
REMARK    5  A    between atoms: N_25  and  C_26
REMARK                            x       y       z     vdW  Elec       q    Type
REMARK                         _______ _______ _______ _____ _____    ______ ____
ROOT
ATOM      1  N   UNL     1      -1.532  12.636  20.843  0.00  0.00    +0.000 N 
ATOM      2  C   UNL     1      -0.771  11.877  21.730  0.00  0.00    +0.000 C 
ATOM      3  O   UNL     1      -0.362  12.335  22.798  0.00  0.00    +0.000 OA
ATOM      4  C   UNL     1      -0.455  10.449  21.350  0.00  0.00    +0.000 C 
ATOM      5  C   UNL     1       0.646  10.381  20.308  0.00  0.00    +0.000 C 
ATOM      6  S   UNL     1       0.407  11.332  18.764  0.00  0.00    +0.000 S 
ATOM      7  C   UNL     1      -1.372  11.442  18.682  0.00  0.00    +0.000 A 
ATOM      8  C   UNL     1      -2.003  10.977  17.516  0.00  0.00    +0.000 A 
ATOM      9  C   UNL     1      -3.383  11.110  17.347  0.00  0.00    +0.000 A 
ATOM     10  C   UNL     1      -4.140  11.721  18.344  0.00  0.00    +0.000 A 
ATOM     11  C   UNL     1      -3.529  12.187  19.513  0.00  0.00    +0.000 A 
ATOM     12  C   UNL     1      -2.139  12.080  19.677  0.00  0.00    +0.000 A 
ENDROOT
BRANCH  10  13
ATOM     13  S   UNL     1      -5.910  11.830  18.171  0.00  0.00    +0.000 S 
ATOM     14  O   UNL     1      -6.160  12.566  16.950  0.00  0.00    +0.000 OA
ATOM     15  O   UNL     1      -6.441  10.499  18.369  0.00  0.00    +0.000 OA
BRANCH  13  16
ATOM     16  N   UNL     1      -6.379  12.763  19.462  0.00  0.00    +0.000 NA
ATOM     17  C   UNL     1      -6.467  14.233  19.409  0.00  0.00    +0.000 C 
ATOM     18  C   UNL     1      -5.738  14.787  20.645  0.00  0.00    +0.000 C 
ATOM     19  O   UNL     1      -6.279  14.240  21.865  0.00  0.00    +0.000 OA
ATOM     20  C   UNL     1      -6.182  12.803  21.876  0.00  0.00    +0.000 C 
ATOM     21  C   UNL     1      -6.952  12.197  20.696  0.00  0.00    +0.000 C 
ENDBRANCH  13  16
ENDBRANCH  10  13
BRANCH   1  22
ATOM     22  C   UNL     1      -1.926  13.985  21.267  0.00  0.00    +0.000 C 
BRANCH  22  24
ATOM     23  O   UNL     1      -0.671  16.002  21.530  0.00  0.00    +0.000 OA
ATOM     24  C   UNL     1      -1.096  15.164  20.725  0.00  0.00    +0.000 C 
ATOM     25  N   UNL     1      -0.941  15.240  19.353  0.00  0.00    +0.000 N 
ATOM     26  H   UNL     1      -1.494  14.599  18.800  0.00  0.00    +0.000 HD
BRANCH  25  27
ATOM     27  C   UNL     1      -0.164  16.190  18.644  0.00  0.00    +0.000 A 
ATOM     28  C   UNL     1      -0.715  17.267  17.937  0.00  0.00    +0.000 A 
ATOM     29  C   UNL     1       0.098  18.151  17.216  0.00  0.00    +0.000 A 
ATOM     30  C   UNL     1       1.477  17.975  17.200  0.00  0.00    +0.000 A 
ATOM     31  C   UNL     1       2.030  16.931  17.931  0.00  0.00    +0.000 A 
ATOM     32  F   UNL     1       3.359  16.763  17.928  0.00  0.00    +0.000 F 
ATOM     33  C   UNL     1       1.229  16.047  18.658  0.00  0.00    +0.000 A 
ENDBRANCH  25  27
ENDBRANCH  22  24
ENDBRANCH   1  22
TORSDOF 5
ENDMDL
MODEL 5
REMARK VINA RESULT:      -6.7      1.361      1.815
REMARK  Name = 
REMARK  5 active torsions:
REMARK  status: ('A' for Active; 'I' for Inactive)
REMARK    1  A    between atoms: C_2  and  C_3
REMARK    2  A    between atoms: C_3  and  N_4
REMARK    3  A    between atoms: C_13  and  S_14
REMARK    4  A    between atoms: S_14  and  N_17
REMARK    5  A    between atoms: N_25  and  C_26
REMARK                            x       y       z     vdW  Elec       q    Type
REMARK                         _______ _______ _______ _____ _____    ______ ____
ROOT
ATOM      1  N   UNL     1      -1.779  13.197  19.665  0.00  0.00    +0.000 N 
ATOM      2  C   UNL     1      -0.971  14.317  19.481  0.00  0.00    +0.000 C 
ATOM      3  O   UNL     1      -0.326  14.495  18.447  0.00  0.00    +0.000 OA
ATOM      4  C   UNL     1      -0.902  15.332  20.598  0.00  0.00    +0.000 C 
ATOM      5  C   UNL     1      -0.021  14.851  21.736  0.00  0.00    +0.000 C 
ATOM      6  S   UNL     1      -0.413  13.227  22.479  0.00  0.00    +0.000 S 
ATOM      7  C   UNL     1      -2.152  13.073  22.108  0.00  0.00    +0.000 A 
ATOM      8  C   UNL     1      -3.032  12.847  23.180  0.00  0.00    +0.000 A 
ATOM      9  C   UNL     1      -4.394  12.632  22.955  0.00  0.00    +0.000 A 
ATOM     10  C   UNL     1      -4.882  12.631  21.650  0.00  0.00    +0.000 A 
ATOM     11  C   UNL     1      -4.020  12.858  20.571  0.00  0.00    +0.000 A 
ATOM     12  C   UNL     1      -2.647  13.048  20.788  0.00  0.00    +0.000 A 
ENDROOT
BRANCH  10  13
ATOM     13  S   UNL     1      -6.627  12.430  21.358  0.00  0.00    +0.000 S 
ATOM     14  O   UNL     1      -6.798  11.127  20.754  0.00  0.00    +0.000 OA
ATOM     15  O   UNL     1      -7.309  12.787  22.584  0.00  0.00    +0.000 OA
BRANCH  13  16
ATOM     16  N   UNL     1      -6.977  13.593  20.225  0.00  0.00    +0.000 NA
ATOM     17  C   UNL     1      -7.498  13.283  18.881  0.00  0.00    +0.000 C 
ATOM     18  C   UNL     1      -6.654  14.068  17.863  0.00  0.00    +0.000 C 
ATOM     19  O   UNL     1      -6.660  15.481  18.151  0.00  0.00    +0.000 OA
ATOM     20  C   UNL     1      -6.151  15.743  19.473  0.00  0.00    +0.000 C 
ATOM     21  C   UNL     1      -7.003  15.034  20.533  0.00  0.00    +0.000 C 
ENDBRANCH  13  16
ENDBRANCH  10  13
BRANCH   1  22
ATOM     22  C   UNL     1      -1.925  12.271  18.536  0.00  0.00    +0.000 C 
BRANCH  22  24
ATOM     23  O   UNL     1      -2.026   9.885  18.445  0.00  0.00    +0.000 OA
ATOM     24  C   UNL     1      -1.314  10.865  18.694  0.00  0.00    +0.000 C 
ATOM     25  N   UNL     1      -0.020  10.798  19.177  0.00  0.00    +0.000 N 
ATOM     26  H   UNL     1       0.381  11.661  19.518  0.00  0.00    +0.000 HD
BRANCH  25  27
ATOM     27  C   UNL     1       0.761   9.625  19.334  0.00  0.00    +0.000 A 
ATOM     28  C   UNL     1       0.823   8.891  20.525  0.00  0.00    +0.000 A 
ATOM     29  C   UNL     1       1.647   7.764  20.639  0.00  0.00    +0.000 A 
ATOM     30  C   UNL     1       2.413   7.349  19.555  0.00  0.00    +0.000 A 
ATOM     31  C   UNL     1       2.325   8.052  18.361  0.00  0.00    +0.000 A 
ATOM     32  F   UNL     1       3.054   7.650  17.311  0.00  0.00    +0.000 F 
ATOM     33  C   UNL     1       1.502   9.174  18.235  0.00  0.00    +0.000 A 
ENDBRANCH  25  27
ENDBRANCH  22  24
ENDBRANCH   1  22
TORSDOF 5
ENDMDL
MODEL 6
REMARK VINA RESULT:      -6.7      6.104      9.860
REMARK  Name = 
REMARK  5 active torsions:
REMARK  status: ('A' for Active; 'I' for Inactive)
REMARK    1  A    between atoms: C_2  and  C_3
REMARK    2  A    between atoms: C_3  and  N_4
REMARK    3  A    between atoms: C_13  and  S_14
REMARK    4  A    between atoms: S_14  and  N_17
REMARK    5  A    between atoms: N_25  and  C_26
REMARK                            x       y       z     vdW  Elec       q    Type
REMARK                         _______ _______ _______ _____ _____    ______ ____
ROOT
ATOM      1  N   UNL     1       5.211   5.711  18.217  0.00  0.00    +0.000 N 
ATOM      2  C   UNL     1       5.795   4.931  19.213  0.00  0.00    +0.000 C 
ATOM      3  O   UNL     1       7.016   4.831  19.333  0.00  0.00    +0.000 OA
ATOM      4  C   UNL     1       4.880   4.199  20.167  0.00  0.00    +0.000 C 
ATOM      5  C   UNL     1       4.273   2.967  19.523  0.00  0.00    +0.000 C 
ATOM      6  S   UNL     1       3.373   3.194  17.947  0.00  0.00    +0.000 S 
ATOM      7  C   UNL     1       2.877   4.905  18.061  0.00  0.00    +0.000 A 
ATOM      8  C   UNL     1       1.510   5.199  17.926  0.00  0.00    +0.000 A 
ATOM      9  C   UNL     1       1.059   6.521  17.920  0.00  0.00    +0.000 A 
ATOM     10  C   UNL     1       1.981   7.560  18.037  0.00  0.00    +0.000 A 
ATOM     11  C   UNL     1       3.345   7.285  18.174  0.00  0.00    +0.000 A 
ATOM     12  C   UNL     1       3.807   5.960  18.156  0.00  0.00    +0.000 A 
ENDROOT
BRANCH  10  13
ATOM     13  S   UNL     1       1.410   9.246  18.102  0.00  0.00    +0.000 S 
ATOM     14  O   UNL     1       2.514  10.073  17.667  0.00  0.00    +0.000 OA
ATOM     15  O   UNL     1       0.128   9.289  17.431  0.00  0.00    +0.000 OA
BRANCH  13  16
ATOM     16  N   UNL     1       1.147   9.514  19.719  0.00  0.00    +0.000 NA
ATOM     17  C   UNL     1       1.281   8.464  20.746  0.00  0.00    +0.000 C 
ATOM     18  C   UNL     1       0.022   8.513  21.627  0.00  0.00    +0.000 C 
ATOM     19  O   UNL     1      -0.174   9.824  22.194  0.00  0.00    +0.000 OA
ATOM     20  C   UNL     1      -0.294  10.822  21.162  0.00  0.00    +0.000 C 
ATOM     21  C   UNL     1       0.970  10.859  20.293  0.00  0.00    +0.000 C 
ENDBRANCH  13  16
ENDBRANCH  10  13
BRANCH   1  22
ATOM     22  C   UNL     1       6.104   6.503  17.363  0.00  0.00    +0.000 C 
BRANCH  22  24
ATOM     23  O   UNL     1       5.332   6.979  15.152  0.00  0.00    +0.000 OA
ATOM     24  C   UNL     1       6.042   6.242  15.846  0.00  0.00    +0.000 C 
ATOM     25  N   UNL     1       6.741   5.146  15.372  0.00  0.00    +0.000 N 
ATOM     26  H   UNL     1       7.126   4.521  16.068  0.00  0.00    +0.000 HD
BRANCH  25  27
ATOM     27  C   UNL     1       6.883   4.759  14.016  0.00  0.00    +0.000 A 
ATOM     28  C   UNL     1       7.756   5.388  13.120  0.00  0.00    +0.000 A 
ATOM     29  C   UNL     1       7.824   4.993  11.778  0.00  0.00    +0.000 A 
ATOM     30  C   UNL     1       7.025   3.953  11.316  0.00  0.00    +0.000 A 
ATOM     31  C   UNL     1       6.187   3.302  12.210  0.00  0.00    +0.000 A 
ATOM     32  F   UNL     1       5.422   2.292  11.773  0.00  0.00    +0.000 F 
ATOM     33  C   UNL     1       6.115   3.684  13.552  0.00  0.00    +0.000 A 
ENDBRANCH  25  27
ENDBRANCH  22  24
ENDBRANCH   1  22
TORSDOF 5
ENDMDL
MODEL 7
REMARK VINA RESULT:      -6.6      5.926      9.653
REMARK  Name = 
REMARK  5 active torsions:
REMARK  status: ('A' for Active; 'I' for Inactive)
REMARK    1  A    between atoms: C_2  and  C_3
REMARK    2  A    between atoms: C_3  and  N_4
REMARK    3  A    between atoms: C_13  and  S_14
REMARK    4  A    between atoms: S_14  and  N_17
REMARK    5  A    between atoms: N_25  and  C_26
REMARK                            x       y       z     vdW  Elec       q    Type
REMARK                         _______ _______ _______ _____ _____    ______ ____
ROOT
ATOM      1  N   UNL     1       4.622   5.339  18.592  0.00  0.00    +0.000 N 
ATOM      2  C   UNL     1       5.542   4.358  18.957  0.00  0.00    +0.000 C 
ATOM      3  O   UNL     1       6.713   4.387  18.577  0.00  0.00    +0.000 OA
ATOM      4  C   UNL     1       5.065   3.237  19.851  0.00  0.00    +0.000 C 
ATOM      5  C   UNL     1       4.247   2.219  19.079  0.00  0.00    +0.000 C 
ATOM      6  S   UNL     1       2.806   2.834  18.135  0.00  0.00    +0.000 S 
ATOM      7  C   UNL     1       2.406   4.328  19.025  0.00  0.00    +0.000 A 
ATOM      8  C   UNL     1       1.096   4.467  19.515  0.00  0.00    +0.000 A 
ATOM      9  C   UNL     1       0.689   5.645  20.146  0.00  0.00    +0.000 A 
ATOM     10  C   UNL     1       1.591   6.698  20.280  0.00  0.00    +0.000 A 
ATOM     11  C   UNL     1       2.899   6.576  19.800  0.00  0.00    +0.000 A 
ATOM     12  C   UNL     1       3.307   5.406  19.143  0.00  0.00    +0.000 A 
ENDROOT
BRANCH  10  13
ATOM     13  S   UNL     1       1.103   8.176  21.146  0.00  0.00    +0.000 S 
ATOM     14  O   UNL     1      -0.214   7.920  21.689  0.00  0.00    +0.000 OA
ATOM     15  O   UNL     1       2.208   8.556  22.000  0.00  0.00    +0.000 OA
BRANCH  13  16
ATOM     16  N   UNL     1       0.973   9.315  19.945  0.00  0.00    +0.000 NA
ATOM     17  C   UNL     1       1.327   9.053  18.538  0.00  0.00    +0.000 C 
ATOM     18  C   UNL     1       2.225  10.207  18.063  0.00  0.00    +0.000 C 
ATOM     19  O   UNL     1       1.583  11.485  18.246  0.00  0.00    +0.000 OA
ATOM     20  C   UNL     1       1.246  11.702  19.630  0.00  0.00    +0.000 C 
ATOM     21  C   UNL     1       0.294  10.610  20.135  0.00  0.00    +0.000 C 
ENDBRANCH  13  16
ENDBRANCH  10  13
BRANCH   1  22
ATOM     22  C   UNL     1       5.118   6.481  17.814  0.00  0.00    +0.000 C 
BRANCH  22  24
ATOM     23  O   UNL     1       4.801   7.064  15.519  0.00  0.00    +0.000 OA
ATOM     24  C   UNL     1       5.326   6.266  16.303  0.00  0.00    +0.000 C 
ATOM     25  N   UNL     1       6.037   5.141  15.925  0.00  0.00    +0.000 N 
ATOM     26  H   UNL     1       6.249   4.474  16.654  0.00  0.00    +0.000 HD
BRANCH  25  27
ATOM     27  C   UNL     1       6.408   4.783  14.605  0.00  0.00    +0.000 A 
ATOM     28  C   UNL     1       7.508   5.332  13.934  0.00  0.00    +0.000 A 
ATOM     29  C   UNL     1       7.804   4.975  12.613  0.00  0.00    +0.000 A 
ATOM     30  C   UNL     1       7.005   4.052  11.945  0.00  0.00    +0.000 A 
ATOM     31  C   UNL     1       5.936   3.477  12.619  0.00  0.00    +0.000 A 
ATOM     32  F   UNL     1       5.169   2.580  11.984  0.00  0.00    +0.000 F 
ATOM     33  C   UNL     1       5.636   3.823  13.939  0.00  0.00    +0.000 A 
ENDBRANCH  25  27
ENDBRANCH  22  24
ENDBRANCH   1  22
TORSDOF 5
ENDMDL
MODEL 8
REMARK VINA RESULT:      -6.5      3.476      5.271
REMARK  Name = 
REMARK  5 active torsions:
REMARK  status: ('A' for Active; 'I' for Inactive)
REMARK    1  A    between atoms: C_2  and  C_3
REMARK    2  A    between atoms: C_3  and  N_4
REMARK    3  A    between atoms: C_13  and  S_14
REMARK    4  A    between atoms: S_14  and  N_17
REMARK    5  A    between atoms: N_25  and  C_26
REMARK                            x       y       z     vdW  Elec       q    Type
REMARK                         _______ _______ _______ _____ _____    ______ ____
ROOT
ATOM      1  N   UNL     1      -1.071  12.449  20.174  0.00  0.00    +0.000 N 
ATOM      2  C   UNL     1      -0.373  11.838  21.214  0.00  0.00    +0.000 C 
ATOM      3  O   UNL     1       0.244  12.489  22.059  0.00  0.00    +0.000 OA
ATOM      4  C   UNL     1      -0.391  10.329  21.289  0.00  0.00    +0.000 C 
ATOM      5  C   UNL     1       0.541   9.709  20.265  0.00  0.00    +0.000 C 
ATOM      6  S   UNL     1       0.310  10.185  18.514  0.00  0.00    +0.000 S 
ATOM      7  C   UNL     1      -1.410  10.662  18.497  0.00  0.00    +0.000 A 
ATOM      8  C   UNL     1      -2.256  10.026  17.573  0.00  0.00    +0.000 A 
ATOM      9  C   UNL     1      -3.593  10.408  17.444  0.00  0.00    +0.000 A 
ATOM     10  C   UNL     1      -4.090  11.442  18.236  0.00  0.00    +0.000 A 
ATOM     11  C   UNL     1      -3.263  12.085  19.163  0.00  0.00    +0.000 A 
ATOM     12  C   UNL     1      -1.911  11.723  19.278  0.00  0.00    +0.000 A 
ENDROOT
BRANCH  10  13
ATOM     13  S   UNL     1      -5.811  11.888  18.131  0.00  0.00    +0.000 S 
ATOM     14  O   UNL     1      -5.930  12.820  17.031  0.00  0.00    +0.000 OA
ATOM     15  O   UNL     1      -6.574  10.659  18.161  0.00  0.00    +0.000 OA
BRANCH  13  16
ATOM     16  N   UNL     1      -6.098  12.699  19.552  0.00  0.00    +0.000 NA
ATOM     17  C   UNL     1      -6.252  12.023  20.852  0.00  0.00    +0.000 C 
ATOM     18  C   UNL     1      -7.517  12.587  21.521  0.00  0.00    +0.000 C 
ATOM     19  O   UNL     1      -7.454  14.022  21.643  0.00  0.00    +0.000 OA
ATOM     20  C   UNL     1      -7.295  14.646  20.355  0.00  0.00    +0.000 C 
ATOM     21  C   UNL     1      -6.008  14.165  19.673  0.00  0.00    +0.000 C 
ENDBRANCH  13  16
ENDBRANCH  10  13
BRANCH   1  22
ATOM     22  C   UNL     1      -1.138  13.915  20.170  0.00  0.00    +0.000 C 
BRANCH  22  24
ATOM     23  O   UNL     1      -0.332  15.455  18.530  0.00  0.00    +0.000 OA
ATOM     24  C   UNL     1      -0.016  14.670  19.431  0.00  0.00    +0.000 C 
ATOM     25  N   UNL     1       1.284  14.359  19.787  0.00  0.00    +0.000 N 
ATOM     26  H   UNL     1       1.407  13.567  20.403  0.00  0.00    +0.000 HD
BRANCH  25  27
ATOM     27  C   UNL     1       2.462  14.974  19.295  0.00  0.00    +0.000 A 
ATOM     28  C   UNL     1       3.183  14.496  18.193  0.00  0.00    +0.000 A 
ATOM     29  C   UNL     1       4.366  15.118  17.777  0.00  0.00    +0.000 A 
ATOM     30  C   UNL     1       4.842  16.236  18.453  0.00  0.00    +0.000 A 
ATOM     31  C   UNL     1       4.110  16.736  19.522  0.00  0.00    +0.000 A 
ATOM     32  F   UNL     1       4.557  17.819  20.171  0.00  0.00    +0.000 F 
ATOM     33  C   UNL     1       2.925  16.126  19.942  0.00  0.00    +0.000 A 
ENDBRANCH  25  27
ENDBRANCH  22  24
ENDBRANCH   1  22
TORSDOF 5
ENDMDL
MODEL 9
REMARK VINA RESULT:      -6.5      3.117      5.213
REMARK  Name = 
REMARK  5 active torsions:
REMARK  status: ('A' for Active; 'I' for Inactive)
REMARK    1  A    between atoms: C_2  and  C_3
REMARK    2  A    between atoms: C_3  and  N_4
REMARK    3  A    between atoms: C_13  and  S_14
REMARK    4  A    between atoms: S_14  and  N_17
REMARK    5  A    between atoms: N_25  and  C_26
REMARK                            x       y       z     vdW  Elec       q    Type
REMARK                         _______ _______ _______ _____ _____    ______ ____
ROOT
ATOM      1  N   UNL     1      -1.166  12.167  20.637  0.00  0.00    +0.000 N 
ATOM      2  C   UNL     1      -0.513  11.363  21.569  0.00  0.00    +0.000 C 
ATOM      3  O   UNL     1      -0.009  11.827  22.593  0.00  0.00    +0.000 OA
ATOM      4  C   UNL     1      -0.437   9.879  21.295  0.00  0.00    +0.000 C 
ATOM      5  C   UNL     1       0.611   9.559  20.246  0.00  0.00    +0.000 C 
ATOM      6  S   UNL     1       0.486  10.420  18.637  0.00  0.00    +0.000 S 
ATOM      7  C   UNL     1      -1.255  10.807  18.572  0.00  0.00    +0.000 A 
ATOM      8  C   UNL     1      -1.982  10.365  17.454  0.00  0.00    +0.000 A 
ATOM      9  C   UNL     1      -3.327  10.705  17.294  0.00  0.00    +0.000 A 
ATOM     10  C   UNL     1      -3.951  11.501  18.252  0.00  0.00    +0.000 A 
ATOM     11  C   UNL     1      -3.244  11.947  19.373  0.00  0.00    +0.000 A 
ATOM     12  C   UNL     1      -1.885  11.632  19.526  0.00  0.00    +0.000 A 
ENDROOT
BRANCH  10  13
ATOM     13  S   UNL     1      -5.684  11.879  18.095  0.00  0.00    +0.000 S 
ATOM     14  O   UNL     1      -5.817  12.738  16.939  0.00  0.00    +0.000 OA
ATOM     15  O   UNL     1      -6.405  10.627  18.190  0.00  0.00    +0.000 OA
BRANCH  13  16
ATOM     16  N   UNL     1      -6.023  12.765  19.459  0.00  0.00    +0.000 NA
ATOM     17  C   UNL     1      -6.125  14.235  19.464  0.00  0.00    +0.000 C 
ATOM     18  C   UNL     1      -5.275  14.756  20.636  0.00  0.00    +0.000 C 
ATOM     19  O   UNL     1      -5.683  14.165  21.886  0.00  0.00    +0.000 OA
ATOM     20  C   UNL     1      -5.576  12.729  21.840  0.00  0.00    +0.000 C 
ATOM     21  C   UNL     1      -6.461  12.154  20.726  0.00  0.00    +0.000 C 
ENDBRANCH  13  16
ENDBRANCH  10  13
BRANCH   1  22
ATOM     22  C   UNL     1      -1.330  13.589  20.962  0.00  0.00    +0.000 C 
BRANCH  22  24
ATOM     23  O   UNL     1      -0.104  15.638  21.060  0.00  0.00    +0.000 OA
ATOM     24  C   UNL     1      -0.228  14.552  20.481  0.00  0.00    +0.000 C 
ATOM     25  N   UNL     1       0.507  14.159  19.378  0.00  0.00    +0.000 N 
ATOM     26  H   UNL     1       0.181  13.337  18.887  0.00  0.00    +0.000 HD
BRANCH  25  27
ATOM     27  C   UNL     1       1.609  14.847  18.810  0.00  0.00    +0.000 A 
ATOM     28  C   UNL     1       1.568  16.195  18.433  0.00  0.00    +0.000 A 
ATOM     29  C   UNL     1       2.673  16.813  17.835  0.00  0.00    +0.000 A 
ATOM     30  C   UNL     1       3.841  16.092  17.614  0.00  0.00    +0.000 A 
ATOM     31  C   UNL     1       3.898  14.765  18.021  0.00  0.00    +0.000 A 
ATOM     32  F   UNL     1       5.024  14.068  17.820  0.00  0.00    +0.000 F 
ATOM     33  C   UNL     1       2.803  14.140  18.624  0.00  0.00    +0.000 A 
ENDBRANCH  25  27
ENDBRANCH  22  24
ENDBRANCH   1  22
TORSDOF 5
ENDMDL
