MODEL 1
REMARK VINA RESULT:      -6.8      0.000      0.000
REMARK  Name = 
REMARK  9 active torsions:
REMARK  status: ('A' for Active; 'I' for Inactive)
REMARK    1  A    between atoms: C_1  and  C_2
REMARK    2  A    between atoms: C_2  and  O_3
REMARK    3  A    between atoms: O_3  and  C_4
REMARK    4  A    between atoms: C_7  and  N_8
REMARK    5  A    between atoms: N_8  and  C_9
REMARK    6  A    between atoms: C_19  and  S_20
REMARK    7  A    between atoms: S_20  and  N_23
REMARK    8  A    between atoms: N_23  and  C_24
REMARK    9  A    between atoms: N_23  and  C_25
REMARK                            x       y       z     vdW  Elec       q    Type
REMARK                         _______ _______ _______ _____ _____    ______ ____
ROOT
ATOM      1  C   UNL     1       4.853   5.490  17.656  0.00  0.00    +0.000 A 
ATOM      2  C   UNL     1       4.731   6.823  17.239  0.00  0.00    +0.000 A 
ATOM      3  C   UNL     1       3.655   7.615  17.652  0.00  0.00    +0.000 A 
ATOM      4  C   UNL     1       2.642   7.087  18.454  0.00  0.00    +0.000 A 
ATOM      5  C   UNL     1       2.766   5.757  18.858  0.00  0.00    +0.000 A 
ATOM      6  C   UNL     1       3.844   4.953  18.457  0.00  0.00    +0.000 A 
ENDROOT
BRANCH   6   7
ATOM      7  S   UNL     1       3.774   3.240  18.956  0.00  0.00    +0.000 S 
ATOM      8  O   UNL     1       3.543   2.449  17.765  0.00  0.00    +0.000 OA
ATOM      9  O   UNL     1       4.903   2.938  19.812  0.00  0.00    +0.000 OA
BRANCH   7  10
ATOM     10  N   UNL     1       2.351   3.152  19.897  0.00  0.00    +0.000 NA
ATOM     11  C   UNL     1       1.188   2.508  19.270  0.00  0.00    +0.000 C 
ATOM     12  C   UNL     1       2.512   2.827  21.324  0.00  0.00    +0.000 C 
ENDBRANCH   7  10
ENDBRANCH   6   7
BRANCH   4  13
ATOM     13  N   UNL     1       1.541   7.893  18.791  0.00  0.00    +0.000 N 
ATOM     14  H   UNL     1       0.655   7.562  18.427  0.00  0.00    +0.000 HD
BRANCH  13  15
ATOM     15  C   UNL     1       1.368   8.688  19.939  0.00  0.00    +0.000 A 
ATOM     16  N   UNL     1       1.347   8.147  21.179  0.00  0.00    +0.000 NA
ATOM     17  C   UNL     1       1.083   8.917  22.239  0.00  0.00    +0.000 A 
ATOM     18  N   UNL     1       0.844  10.227  22.238  0.00  0.00    +0.000 NA
ATOM     19  C   UNL     1       0.881  10.790  21.007  0.00  0.00    +0.000 A 
ATOM     20  C   UNL     1       0.631  12.166  20.736  0.00  0.00    +0.000 A 
ATOM     21  C   UNL     1       0.722  12.463  19.395  0.00  0.00    +0.000 A 
ATOM     22  S   UNL     1       1.108  11.087  18.461  0.00  0.00    +0.000 S 
ATOM     23  C   UNL     1       1.147  10.068  19.849  0.00  0.00    +0.000 A 
ENDBRANCH  13  15
ENDBRANCH   4  13
BRANCH   1  24
ATOM     24  O   UNL     1       5.927   4.711  17.332  0.00  0.00    +0.000 OA
BRANCH  24  26
ATOM     25  C   UNL     1       7.691   5.513  18.729  0.00  0.00    +0.000 C 
ATOM     26  C   UNL     1       7.198   5.361  17.304  0.00  0.00    +0.000 C 
ENDBRANCH  24  26
ENDBRANCH   1  24
TORSDOF 6
ENDMDL
MODEL 2
REMARK VINA RESULT:      -6.7      1.930      3.467
REMARK  Name = 
REMARK  9 active torsions:
REMARK  status: ('A' for Active; 'I' for Inactive)
REMARK    1  A    between atoms: C_1  and  C_2
REMARK    2  A    between atoms: C_2  and  O_3
REMARK    3  A    between atoms: O_3  and  C_4
REMARK    4  A    between atoms: C_7  and  N_8
REMARK    5  A    between atoms: N_8  and  C_9
REMARK    6  A    between atoms: C_19  and  S_20
REMARK    7  A    between atoms: S_20  and  N_23
REMARK    8  A    between atoms: N_23  and  C_24
REMARK    9  A    between atoms: N_23  and  C_25
REMARK                            x       y       z     vdW  Elec       q    Type
REMARK                         _______ _______ _______ _____ _____    ______ ____
ROOT
ATOM      1  C   UNL     1       3.763   4.869  18.968  0.00  0.00    +0.000 A 
ATOM      2  C   UNL     1       2.854   5.155  19.997  0.00  0.00    +0.000 A 
ATOM      3  C   UNL     1       2.129   6.351  20.011  0.00  0.00    +0.000 A 
ATOM      4  C   UNL     1       2.326   7.321  19.026  0.00  0.00    +0.000 A 
ATOM      5  C   UNL     1       3.239   7.033  18.011  0.00  0.00    +0.000 A 
ATOM      6  C   UNL     1       3.967   5.834  17.980  0.00  0.00    +0.000 A 
ENDROOT
BRANCH   6   7
ATOM      7  S   UNL     1       5.188   5.689  16.685  0.00  0.00    +0.000 S 
ATOM      8  O   UNL     1       5.075   4.357  16.127  0.00  0.00    +0.000 OA
ATOM      9  O   UNL     1       5.106   6.842  15.812  0.00  0.00    +0.000 OA
BRANCH   7  10
ATOM     10  N   UNL     1       6.675   5.755  17.523  0.00  0.00    +0.000 NA
ATOM     11  C   UNL     1       7.546   4.577  17.407  0.00  0.00    +0.000 C 
ATOM     12  C   UNL     1       7.401   7.036  17.496  0.00  0.00    +0.000 C 
ENDBRANCH   7  10
ENDBRANCH   6   7
BRANCH   4  13
ATOM     13  N   UNL     1       1.632   8.540  19.113  0.00  0.00    +0.000 N 
ATOM     14  H   UNL     1       1.078   8.764  18.294  0.00  0.00    +0.000 HD
BRANCH  13  15
ATOM     15  C   UNL     1       1.134   9.174  20.267  0.00  0.00    +0.000 A 
ATOM     16  N   UNL     1       1.471   8.753  21.507  0.00  0.00    +0.000 NA
ATOM     17  C   UNL     1       0.905   9.315  22.580  0.00  0.00    +0.000 A 
ATOM     18  N   UNL     1       0.015  10.306  22.588  0.00  0.00    +0.000 NA
ATOM     19  C   UNL     1      -0.320  10.753  21.355  0.00  0.00    +0.000 A 
ATOM     20  C   UNL     1      -1.269  11.783  21.095  0.00  0.00    +0.000 A 
ATOM     21  C   UNL     1      -1.425  12.029  19.751  0.00  0.00    +0.000 A 
ATOM     22  S   UNL     1      -0.429  11.020  18.798  0.00  0.00    +0.000 S 
ATOM     23  C   UNL     1       0.219  10.229  20.185  0.00  0.00    +0.000 A 
ENDBRANCH  13  15
ENDBRANCH   4  13
BRANCH   1  24
ATOM     24  O   UNL     1       4.432   3.682  18.885  0.00  0.00    +0.000 OA
BRANCH  24  26
ATOM     25  C   UNL     1       2.954   2.089  17.893  0.00  0.00    +0.000 C 
ATOM     26  C   UNL     1       3.673   2.504  19.161  0.00  0.00    +0.000 C 
ENDBRANCH  24  26
ENDBRANCH   1  24
TORSDOF 6
ENDMDL
MODEL 3
REMARK VINA RESULT:      -6.7      2.011      2.564
REMARK  Name = 
REMARK  9 active torsions:
REMARK  status: ('A' for Active; 'I' for Inactive)
REMARK    1  A    between atoms: C_1  and  C_2
REMARK    2  A    between atoms: C_2  and  O_3
REMARK    3  A    between atoms: O_3  and  C_4
REMARK    4  A    between atoms: C_7  and  N_8
REMARK    5  A    between atoms: N_8  and  C_9
REMARK    6  A    between atoms: C_19  and  S_20
REMARK    7  A    between atoms: S_20  and  N_23
REMARK    8  A    between atoms: N_23  and  C_24
REMARK    9  A    between atoms: N_23  and  C_25
REMARK                            x       y       z     vdW  Elec       q    Type
REMARK                         _______ _______ _______ _____ _____    ______ ____
ROOT
ATOM      1  C   UNL     1       3.428   5.173  17.741  0.00  0.00    +0.000 A 
ATOM      2  C   UNL     1       3.716   6.544  17.673  0.00  0.00    +0.000 A 
ATOM      3  C   UNL     1       3.196   7.441  18.612  0.00  0.00    +0.000 A 
ATOM      4  C   UNL     1       2.333   7.005  19.619  0.00  0.00    +0.000 A 
ATOM      5  C   UNL     1       2.044   5.640  19.674  0.00  0.00    +0.000 A 
ATOM      6  C   UNL     1       2.565   4.729  18.743  0.00  0.00    +0.000 A 
ENDROOT
BRANCH   6   7
ATOM      7  S   UNL     1       1.985   3.046  18.884  0.00  0.00    +0.000 S 
ATOM      8  O   UNL     1       0.625   3.094  19.380  0.00  0.00    +0.000 OA
ATOM      9  O   UNL     1       2.279   2.329  17.660  0.00  0.00    +0.000 OA
BRANCH   7  10
ATOM     10  N   UNL     1       2.948   2.390  20.133  0.00  0.00    +0.000 NA
ATOM     11  C   UNL     1       4.401   2.403  19.916  0.00  0.00    +0.000 C 
ATOM     12  C   UNL     1       2.551   2.701  21.516  0.00  0.00    +0.000 C 
ENDBRANCH   7  10
ENDBRANCH   6   7
BRANCH   4  13
ATOM     13  N   UNL     1       1.775   7.946  20.501  0.00  0.00    +0.000 N 
ATOM     14  H   UNL     1       2.321   8.106  21.340  0.00  0.00    +0.000 HD
BRANCH  13  15
ATOM     15  C   UNL     1       0.964   9.053  20.187  0.00  0.00    +0.000 A 
ATOM     16  N   UNL     1       0.922   9.569  18.938  0.00  0.00    +0.000 NA
ATOM     17  C   UNL     1       0.218  10.679  18.697  0.00  0.00    +0.000 A 
ATOM     18  N   UNL     1      -0.507  11.373  19.574  0.00  0.00    +0.000 NA
ATOM     19  C   UNL     1      -0.493  10.859  20.826  0.00  0.00    +0.000 A 
ATOM     20  C   UNL     1      -1.163  11.431  21.946  0.00  0.00    +0.000 A 
ATOM     21  C   UNL     1      -0.969  10.708  23.101  0.00  0.00    +0.000 A 
ATOM     22  S   UNL     1       0.020   9.341  22.840  0.00  0.00    +0.000 S 
ATOM     23  C   UNL     1       0.211   9.709  21.168  0.00  0.00    +0.000 A 
ENDBRANCH  13  15
ENDBRANCH   4  13
BRANCH   1  24
ATOM     24  O   UNL     1       3.976   4.261  16.885  0.00  0.00    +0.000 OA
BRANCH  24  26
ATOM     25  C   UNL     1       5.771   3.890  15.353  0.00  0.00    +0.000 C 
ATOM     26  C   UNL     1       5.400   4.272  16.772  0.00  0.00    +0.000 C 
ENDBRANCH  24  26
ENDBRANCH   1  24
TORSDOF 6
ENDMDL
MODEL 4
REMARK VINA RESULT:      -6.7      1.192      1.430
REMARK  Name = 
REMARK  9 active torsions:
REMARK  status: ('A' for Active; 'I' for Inactive)
REMARK    1  A    between atoms: C_1  and  C_2
REMARK    2  A    between atoms: C_2  and  O_3
REMARK    3  A    between atoms: O_3  and  C_4
REMARK    4  A    between atoms: C_7  and  N_8
REMARK    5  A    between atoms: N_8  and  C_9
REMARK    6  A    between atoms: C_19  and  S_20
REMARK    7  A    between atoms: S_20  and  N_23
REMARK    8  A    between atoms: N_23  and  C_24
REMARK    9  A    between atoms: N_23  and  C_25
REMARK                            x       y       z     vdW  Elec       q    Type
REMARK                         _______ _______ _______ _____ _____    ______ ____
ROOT
ATOM      1  C   UNL     1       4.222   5.331  17.574  0.00  0.00    +0.000 A 
ATOM      2  C   UNL     1       4.495   6.657  17.209  0.00  0.00    +0.000 A 
ATOM      3  C   UNL     1       3.632   7.698  17.565  0.00  0.00    +0.000 A 
ATOM      4  C   UNL     1       2.445   7.442  18.254  0.00  0.00    +0.000 A 
ATOM      5  C   UNL     1       2.176   6.118  18.605  0.00  0.00    +0.000 A 
ATOM      6  C   UNL     1       3.037   5.065  18.261  0.00  0.00    +0.000 A 
ENDROOT
BRANCH   6   7
ATOM      7  S   UNL     1       2.472   3.422  18.674  0.00  0.00    +0.000 S 
ATOM      8  O   UNL     1       1.060   3.513  18.985  0.00  0.00    +0.000 OA
ATOM      9  O   UNL     1       2.927   2.487  17.666  0.00  0.00    +0.000 OA
BRANCH   7  10
ATOM     10  N   UNL     1       3.284   3.072  20.135  0.00  0.00    +0.000 NA
ATOM     11  C   UNL     1       2.440   2.841  21.316  0.00  0.00    +0.000 C 
ATOM     12  C   UNL     1       4.450   2.176  20.054  0.00  0.00    +0.000 C 
ENDBRANCH   7  10
ENDBRANCH   6   7
BRANCH   4  13
ATOM     13  N   UNL     1       1.568   8.505  18.532  0.00  0.00    +0.000 N 
ATOM     14  H   UNL     1       0.811   8.606  17.866  0.00  0.00    +0.000 HD
BRANCH  13  15
ATOM     15  C   UNL     1       1.234   9.046  19.788  0.00  0.00    +0.000 A 
ATOM     16  N   UNL     1       1.697   8.506  20.938  0.00  0.00    +0.000 NA
ATOM     17  C   UNL     1       1.282   8.984  22.115  0.00  0.00    +0.000 A 
ATOM     18  N   UNL     1       0.438   9.995  22.316  0.00  0.00    +0.000 NA
ATOM     19  C   UNL     1      -0.021  10.561  21.175  0.00  0.00    +0.000 A 
ATOM     20  C   UNL     1      -0.954  11.636  21.120  0.00  0.00    +0.000 A 
ATOM     21  C   UNL     1      -1.256  12.006  19.830  0.00  0.00    +0.000 A 
ATOM     22  S   UNL     1      -0.418  11.060  18.681  0.00  0.00    +0.000 S 
ATOM     23  C   UNL     1       0.356  10.130  19.907  0.00  0.00    +0.000 A 
ENDBRANCH  13  15
ENDBRANCH   4  13
BRANCH   1  24
ATOM     24  O   UNL     1       5.079   4.301  17.306  0.00  0.00    +0.000 OA
BRANCH  24  26
ATOM     25  C   UNL     1       7.430   4.595  17.611  0.00  0.00    +0.000 C 
ATOM     26  C   UNL     1       6.284   4.640  16.619  0.00  0.00    +0.000 C 
ENDBRANCH  24  26
ENDBRANCH   1  24
TORSDOF 6
ENDMDL
MODEL 5
REMARK VINA RESULT:      -6.6      2.225      3.731
REMARK  Name = 
REMARK  9 active torsions:
REMARK  status: ('A' for Active; 'I' for Inactive)
REMARK    1  A    between atoms: C_1  and  C_2
REMARK    2  A    between atoms: C_2  and  O_3
REMARK    3  A    between atoms: O_3  and  C_4
REMARK    4  A    between atoms: C_7  and  N_8
REMARK    5  A    between atoms: N_8  and  C_9
REMARK    6  A    between atoms: C_19  and  S_20
REMARK    7  A    between atoms: S_20  and  N_23
REMARK    8  A    between atoms: N_23  and  C_24
REMARK    9  A    between atoms: N_23  and  C_25
REMARK                            x       y       z     vdW  Elec       q    Type
REMARK                         _______ _______ _______ _____ _____    ______ ____
ROOT
ATOM      1  C   UNL     1       2.846   4.420  18.225  0.00  0.00    +0.000 A 
ATOM      2  C   UNL     1       1.793   4.398  19.151  0.00  0.00    +0.000 A 
ATOM      3  C   UNL     1       1.466   5.532  19.902  0.00  0.00    +0.000 A 
ATOM      4  C   UNL     1       2.210   6.708  19.787  0.00  0.00    +0.000 A 
ATOM      5  C   UNL     1       3.262   6.719  18.869  0.00  0.00    +0.000 A 
ATOM      6  C   UNL     1       3.596   5.591  18.104  0.00  0.00    +0.000 A 
ENDROOT
BRANCH   6   7
ATOM      7  S   UNL     1       5.051   5.740  17.080  0.00  0.00    +0.000 S 
ATOM      8  O   UNL     1       4.800   5.006  15.857  0.00  0.00    +0.000 OA
ATOM      9  O   UNL     1       5.456   7.129  17.014  0.00  0.00    +0.000 OA
BRANCH   7  10
ATOM     10  N   UNL     1       6.244   4.876  17.945  0.00  0.00    +0.000 NA
ATOM     11  C   UNL     1       7.459   4.513  17.203  0.00  0.00    +0.000 C 
ATOM     12  C   UNL     1       6.499   5.295  19.333  0.00  0.00    +0.000 C 
ENDBRANCH   7  10
ENDBRANCH   6   7
BRANCH   4  13
ATOM     13  N   UNL     1       1.895   7.804  20.609  0.00  0.00    +0.000 N 
ATOM     14  H   UNL     1       2.580   7.992  21.332  0.00  0.00    +0.000 HD
BRANCH  13  15
ATOM     15  C   UNL     1       1.162   8.957  20.272  0.00  0.00    +0.000 A 
ATOM     16  N   UNL     1       1.257   9.524  19.047  0.00  0.00    +0.000 NA
ATOM     17  C   UNL     1       0.622  10.673  18.793  0.00  0.00    +0.000 A 
ATOM     18  N   UNL     1      -0.152  11.362  19.629  0.00  0.00    +0.000 NA
ATOM     19  C   UNL     1      -0.274  10.799  20.854  0.00  0.00    +0.000 A 
ATOM     20  C   UNL     1      -1.020  11.355  21.932  0.00  0.00    +0.000 A 
ATOM     21  C   UNL     1      -0.963  10.579  23.068  0.00  0.00    +0.000 A 
ATOM     22  S   UNL     1      -0.009   9.181  22.838  0.00  0.00    +0.000 S 
ATOM     23  C   UNL     1       0.349   9.607  21.208  0.00  0.00    +0.000 A 
ENDBRANCH  13  15
ENDBRANCH   4  13
BRANCH   1  24
ATOM     24  O   UNL     1       3.146   3.355  17.424  0.00  0.00    +0.000 OA
BRANCH  24  26
ATOM     25  C   UNL     1       3.700   1.343  18.586  0.00  0.00    +0.000 C 
ATOM     26  C   UNL     1       2.621   2.089  17.828  0.00  0.00    +0.000 C 
ENDBRANCH  24  26
ENDBRANCH   1  24
TORSDOF 6
ENDMDL
MODEL 6
REMARK VINA RESULT:      -6.6      2.288      3.849
REMARK  Name = 
REMARK  9 active torsions:
REMARK  status: ('A' for Active; 'I' for Inactive)
REMARK    1  A    between atoms: C_1  and  C_2
REMARK    2  A    between atoms: C_2  and  O_3
REMARK    3  A    between atoms: O_3  and  C_4
REMARK    4  A    between atoms: C_7  and  N_8
REMARK    5  A    between atoms: N_8  and  C_9
REMARK    6  A    between atoms: C_19  and  S_20
REMARK    7  A    between atoms: S_20  and  N_23
REMARK    8  A    between atoms: N_23  and  C_24
REMARK    9  A    between atoms: N_23  and  C_25
REMARK                            x       y       z     vdW  Elec       q    Type
REMARK                         _______ _______ _______ _____ _____    ______ ____
ROOT
ATOM      1  C   UNL     1       3.892   5.591  18.980  0.00  0.00    +0.000 A 
ATOM      2  C   UNL     1       2.902   6.083  19.842  0.00  0.00    +0.000 A 
ATOM      3  C   UNL     1       2.072   7.143  19.462  0.00  0.00    +0.000 A 
ATOM      4  C   UNL     1       2.238   7.777  18.229  0.00  0.00    +0.000 A 
ATOM      5  C   UNL     1       3.232   7.287  17.381  0.00  0.00    +0.000 A 
ATOM      6  C   UNL     1       4.066   6.220  17.747  0.00  0.00    +0.000 A 
ENDROOT
BRANCH   6   7
ATOM      7  S   UNL     1       5.369   5.812  16.596  0.00  0.00    +0.000 S 
ATOM      8  O   UNL     1       5.183   4.431  16.199  0.00  0.00    +0.000 OA
ATOM      9  O   UNL     1       5.461   6.844  15.584  0.00  0.00    +0.000 OA
BRANCH   7  10
ATOM     10  N   UNL     1       6.784   5.870  17.551  0.00  0.00    +0.000 NA
ATOM     11  C   UNL     1       7.625   4.665  17.551  0.00  0.00    +0.000 C 
ATOM     12  C   UNL     1       7.548   7.129  17.538  0.00  0.00    +0.000 C 
ENDBRANCH   7  10
ENDBRANCH   6   7
BRANCH   4  13
ATOM     13  N   UNL     1       1.432   8.884  17.912  0.00  0.00    +0.000 N 
ATOM     14  H   UNL     1       0.457   8.658  17.752  0.00  0.00    +0.000 HD
BRANCH  13  15
ATOM     15  C   UNL     1       1.596  10.221  18.320  0.00  0.00    +0.000 A 
ATOM     16  N   UNL     1       2.430  11.063  17.669  0.00  0.00    +0.000 NA
ATOM     17  C   UNL     1       2.636  12.297  18.141  0.00  0.00    +0.000 A 
ATOM     18  N   UNL     1       2.079  12.844  19.220  0.00  0.00    +0.000 NA
ATOM     19  C   UNL     1       1.226  12.021  19.874  0.00  0.00    +0.000 A 
ATOM     20  C   UNL     1       0.528  12.359  21.069  0.00  0.00    +0.000 A 
ATOM     21  C   UNL     1      -0.263  11.330  21.526  0.00  0.00    +0.000 A 
ATOM     22  S   UNL     1      -0.168   9.956  20.517  0.00  0.00    +0.000 S 
ATOM     23  C   UNL     1       0.951  10.724  19.456  0.00  0.00    +0.000 A 
ENDBRANCH  13  15
ENDBRANCH   4  13
BRANCH   1  24
ATOM     24  O   UNL     1       4.670   4.512  19.290  0.00  0.00    +0.000 OA
BRANCH  24  26
ATOM     25  C   UNL     1       3.530   2.557  18.528  0.00  0.00    +0.000 C 
ATOM     26  C   UNL     1       3.984   3.344  19.741  0.00  0.00    +0.000 C 
ENDBRANCH  24  26
ENDBRANCH   1  24
TORSDOF 6
ENDMDL
MODEL 7
REMARK VINA RESULT:      -6.6      2.137      3.993
REMARK  Name = 
REMARK  9 active torsions:
REMARK  status: ('A' for Active; 'I' for Inactive)
REMARK    1  A    between atoms: C_1  and  C_2
REMARK    2  A    between atoms: C_2  and  O_3
REMARK    3  A    between atoms: O_3  and  C_4
REMARK    4  A    between atoms: C_7  and  N_8
REMARK    5  A    between atoms: N_8  and  C_9
REMARK    6  A    between atoms: C_19  and  S_20
REMARK    7  A    between atoms: S_20  and  N_23
REMARK    8  A    between atoms: N_23  and  C_24
REMARK    9  A    between atoms: N_23  and  C_25
REMARK                            x       y       z     vdW  Elec       q    Type
REMARK                         _______ _______ _______ _____ _____    ______ ____
ROOT
ATOM      1  C   UNL     1       2.768   4.699  19.969  0.00  0.00    +0.000 A 
ATOM      2  C   UNL     1       1.834   5.462  20.683  0.00  0.00    +0.000 A 
ATOM      3  C   UNL     1       1.579   6.796  20.346  0.00  0.00    +0.000 A 
ATOM      4  C   UNL     1       2.285   7.423  19.317  0.00  0.00    +0.000 A 
ATOM      5  C   UNL     1       3.220   6.659  18.617  0.00  0.00    +0.000 A 
ATOM      6  C   UNL     1       3.480   5.318  18.940  0.00  0.00    +0.000 A 
ENDROOT
BRANCH   6   7
ATOM      7  S   UNL     1       4.800   4.533  18.029  0.00  0.00    +0.000 S 
ATOM      8  O   UNL     1       5.797   4.106  18.989  0.00  0.00    +0.000 OA
ATOM      9  O   UNL     1       4.242   3.575  17.097  0.00  0.00    +0.000 OA
BRANCH   7  10
ATOM     10  N   UNL     1       5.488   5.814  17.133  0.00  0.00    +0.000 NA
ATOM     11  C   UNL     1       6.782   6.326  17.607  0.00  0.00    +0.000 C 
ATOM     12  C   UNL     1       5.382   5.737  15.666  0.00  0.00    +0.000 C 
ENDBRANCH   7  10
ENDBRANCH   6   7
BRANCH   4  13
ATOM     13  N   UNL     1       2.052   8.784  19.054  0.00  0.00    +0.000 N 
ATOM     14  H   UNL     1       2.760   9.224  18.476  0.00  0.00    +0.000 HD
BRANCH  13  15
ATOM     15  C   UNL     1       0.815   9.449  18.960  0.00  0.00    +0.000 A 
ATOM     16  N   UNL     1       0.120   9.490  17.801  0.00  0.00    +0.000 NA
ATOM     17  C   UNL     1      -1.003  10.211  17.720  0.00  0.00    +0.000 A 
ATOM     18  N   UNL     1      -1.570  10.921  18.695  0.00  0.00    +0.000 NA
ATOM     19  C   UNL     1      -0.897  10.876  19.869  0.00  0.00    +0.000 A 
ATOM     20  C   UNL     1      -1.280  11.571  21.052  0.00  0.00    +0.000 A 
ATOM     21  C   UNL     1      -0.409  11.356  22.095  0.00  0.00    +0.000 A 
ATOM     22  S   UNL     1       0.873  10.318  21.652  0.00  0.00    +0.000 S 
ATOM     23  C   UNL     1       0.277  10.151  20.045  0.00  0.00    +0.000 A 
ENDBRANCH  13  15
ENDBRANCH   4  13
BRANCH   1  24
ATOM     24  O   UNL     1       2.988   3.375  20.224  0.00  0.00    +0.000 OA
BRANCH  24  26
ATOM     25  C   UNL     1       1.363   2.229  18.900  0.00  0.00    +0.000 C 
ATOM     26  C   UNL     1       1.830   2.544  20.308  0.00  0.00    +0.000 C 
ENDBRANCH  24  26
ENDBRANCH   1  24
TORSDOF 6
ENDMDL
MODEL 8
REMARK VINA RESULT:      -6.6      2.438      3.876
REMARK  Name = 
REMARK  9 active torsions:
REMARK  status: ('A' for Active; 'I' for Inactive)
REMARK    1  A    between atoms: C_1  and  C_2
REMARK    2  A    between atoms: C_2  and  O_3
REMARK    3  A    between atoms: O_3  and  C_4
REMARK    4  A    between atoms: C_7  and  N_8
REMARK    5  A    between atoms: N_8  and  C_9
REMARK    6  A    between atoms: C_19  and  S_20
REMARK    7  A    between atoms: S_20  and  N_23
REMARK    8  A    between atoms: N_23  and  C_24
REMARK    9  A    between atoms: N_23  and  C_25
REMARK                            x       y       z     vdW  Elec       q    Type
REMARK                         _______ _______ _______ _____ _____    ______ ____
ROOT
ATOM      1  C   UNL     1       3.431   6.047  19.014  0.00  0.00    +0.000 A 
ATOM      2  C   UNL     1       2.488   6.711  19.812  0.00  0.00    +0.000 A 
ATOM      3  C   UNL     1       1.856   7.877  19.367  0.00  0.00    +0.000 A 
ATOM      4  C   UNL     1       2.181   8.443  18.133  0.00  0.00    +0.000 A 
ATOM      5  C   UNL     1       3.127   7.781  17.349  0.00  0.00    +0.000 A 
ATOM      6  C   UNL     1       3.764   6.607  17.779  0.00  0.00    +0.000 A 
ENDROOT
BRANCH   6   7
ATOM      7  S   UNL     1       5.042   5.968  16.709  0.00  0.00    +0.000 S 
ATOM      8  O   UNL     1       4.762   4.565  16.485  0.00  0.00    +0.000 OA
ATOM      9  O   UNL     1       5.214   6.857  15.577  0.00  0.00    +0.000 OA
BRANCH   7  10
ATOM     10  N   UNL     1       6.451   6.049  17.671  0.00  0.00    +0.000 NA
ATOM     11  C   UNL     1       7.208   4.800  17.832  0.00  0.00    +0.000 C 
ATOM     12  C   UNL     1       7.300   7.242  17.515  0.00  0.00    +0.000 C 
ENDBRANCH   7  10
ENDBRANCH   6   7
BRANCH   4  13
ATOM     13  N   UNL     1       1.577   9.653  17.751  0.00  0.00    +0.000 N 
ATOM     14  H   UNL     1       1.218   9.659  16.802  0.00  0.00    +0.000 HD
BRANCH  13  15
ATOM     15  C   UNL     1       0.904  10.581  18.567  0.00  0.00    +0.000 A 
ATOM     16  N   UNL     1       1.550  11.273  19.533  0.00  0.00    +0.000 NA
ATOM     17  C   UNL     1       0.863  12.074  20.354  0.00  0.00    +0.000 A 
ATOM     18  N   UNL     1      -0.448  12.310  20.330  0.00  0.00    +0.000 NA
ATOM     19  C   UNL     1      -1.108  11.641  19.356  0.00  0.00    +0.000 A 
ATOM     20  C   UNL     1      -2.515  11.700  19.141  0.00  0.00    +0.000 A 
ATOM     21  C   UNL     1      -2.920  10.911  18.089  0.00  0.00    +0.000 A 
ATOM     22  S   UNL     1      -1.609  10.096  17.359  0.00  0.00    +0.000 S 
ATOM     23  C   UNL     1      -0.476  10.788  18.458  0.00  0.00    +0.000 A 
ENDBRANCH  13  15
ENDBRANCH   4  13
BRANCH   1  24
ATOM     24  O   UNL     1       4.013   4.869  19.386  0.00  0.00    +0.000 OA
BRANCH  24  26
ATOM     25  C   UNL     1       3.895   2.562  19.995  0.00  0.00    +0.000 C 
ATOM     26  C   UNL     1       3.144   3.877  19.935  0.00  0.00    +0.000 C 
ENDBRANCH  24  26
ENDBRANCH   1  24
TORSDOF 6
ENDMDL
MODEL 9
REMARK VINA RESULT:      -6.6      1.545      1.945
REMARK  Name = 
REMARK  9 active torsions:
REMARK  status: ('A' for Active; 'I' for Inactive)
REMARK    1  A    between atoms: C_1  and  C_2
REMARK    2  A    between atoms: C_2  and  O_3
REMARK    3  A    between atoms: O_3  and  C_4
REMARK    4  A    between atoms: C_7  and  N_8
REMARK    5  A    between atoms: N_8  and  C_9
REMARK    6  A    between atoms: C_19  and  S_20
REMARK    7  A    between atoms: S_20  and  N_23
REMARK    8  A    between atoms: N_23  and  C_24
REMARK    9  A    between atoms: N_23  and  C_25
REMARK                            x       y       z     vdW  Elec       q    Type
REMARK                         _______ _______ _______ _____ _____    ______ ____
ROOT
ATOM      1  C   UNL     1       4.203   5.409  17.554  0.00  0.00    +0.000 A 
ATOM      2  C   UNL     1       4.005   6.779  17.327  0.00  0.00    +0.000 A 
ATOM      3  C   UNL     1       3.313   7.573  18.247  0.00  0.00    +0.000 A 
ATOM      4  C   UNL     1       2.754   7.015  19.398  0.00  0.00    +0.000 A 
ATOM      5  C   UNL     1       2.948   5.649  19.613  0.00  0.00    +0.000 A 
ATOM      6  C   UNL     1       3.647   4.843  18.702  0.00  0.00    +0.000 A 
ENDROOT
BRANCH   6   7
ATOM      7  S   UNL     1       3.684   3.095  19.068  0.00  0.00    +0.000 S 
ATOM      8  O   UNL     1       3.387   2.387  17.840  0.00  0.00    +0.000 OA
ATOM      9  O   UNL     1       4.890   2.781  19.806  0.00  0.00    +0.000 OA
BRANCH   7  10
ATOM     10  N   UNL     1       2.347   2.873  20.108  0.00  0.00    +0.000 NA
ATOM     11  C   UNL     1       1.177   2.192  19.536  0.00  0.00    +0.000 C 
ATOM     12  C   UNL     1       2.638   2.486  21.498  0.00  0.00    +0.000 C 
ENDBRANCH   7  10
ENDBRANCH   6   7
BRANCH   4  13
ATOM     13  N   UNL     1       2.005   7.831  20.264  0.00  0.00    +0.000 N 
ATOM     14  H   UNL     1       2.414   7.948  21.184  0.00  0.00    +0.000 HD
BRANCH  13  15
ATOM     15  C   UNL     1       1.162   8.906  19.928  0.00  0.00    +0.000 A 
ATOM     16  N   UNL     1       1.073   9.367  18.659  0.00  0.00    +0.000 NA
ATOM     17  C   UNL     1       0.338  10.451  18.392  0.00  0.00    +0.000 A 
ATOM     18  N   UNL     1      -0.376  11.167  19.259  0.00  0.00    +0.000 NA
ATOM     19  C   UNL     1      -0.315  10.708  20.532  0.00  0.00    +0.000 A 
ATOM     20  C   UNL     1      -0.965  11.314  21.645  0.00  0.00    +0.000 A 
ATOM     21  C   UNL     1      -0.722  10.646  22.823  0.00  0.00    +0.000 A 
ATOM     22  S   UNL     1       0.289   9.290  22.592  0.00  0.00    +0.000 S 
ATOM     23  C   UNL     1       0.423   9.589  20.901  0.00  0.00    +0.000 A 
ENDBRANCH  13  15
ENDBRANCH   4  13
BRANCH   1  24
ATOM     24  O   UNL     1       4.936   4.621  16.713  0.00  0.00    +0.000 OA
BRANCH  24  26
ATOM     25  C   UNL     1       7.209   4.669  17.446  0.00  0.00    +0.000 C 
ATOM     26  C   UNL     1       6.236   5.099  16.366  0.00  0.00    +0.000 C 
ENDBRANCH  24  26
ENDBRANCH   1  24
TORSDOF 6
ENDMDL
