MODEL 1
REMARK VINA RESULT:      -7.2      0.000      0.000
REMARK  Name = 
REMARK  6 active torsions:
REMARK  status: ('A' for Active; 'I' for Inactive)
REMARK    1  A    between atoms: C_1  and  C_2
REMARK    2  A    between atoms: C_2  and  N_3
REMARK    3  A    between atoms: C_2  and  C_13
REMARK    4  A    between atoms: N_3  and  C_4
REMARK    5  A    between atoms: C_10  and  C_11
REMARK    6  A    between atoms: C_23  and  C_24
REMARK                            x       y       z     vdW  Elec       q    Type
REMARK                         _______ _______ _______ _____ _____    ______ ____
ROOT
ATOM      1  C   UNL     1       1.127  12.129  19.174  0.00  0.00    +0.000 A 
ATOM      2  N   UNL     1       1.773  12.847  18.194  0.00  0.00    +0.000 NA
ATOM      3  C   UNL     1       2.416  13.919  18.524  0.00  0.00    +0.000 A 
ATOM      4  C   UNL     1       3.042  14.722  17.441  0.00  0.00    +0.000 A 
ATOM      5  C   UNL     1       3.733  15.827  17.744  0.00  0.00    +0.000 A 
ATOM      6  C   UNL     1       3.877  16.235  19.116  0.00  0.00    +0.000 A 
ATOM      7  C   UNL     1       3.301  15.521  20.091  0.00  0.00    +0.000 A 
ATOM      8  N   UNL     1       2.562  14.372  19.822  0.00  0.00    +0.000 N 
ATOM      9  C   UNL     1       1.993  13.658  20.870  0.00  0.00    +0.000 A 
ATOM     10  O   UNL     1       2.109  13.976  22.055  0.00  0.00    +0.000 OA
ATOM     11  C   UNL     1       1.206  12.444  20.490  0.00  0.00    +0.000 A 
ENDROOT
BRANCH  11  12
ATOM     12  C   UNL     1       0.528  11.655  21.538  0.00  0.00    +0.000 A 
ATOM     13  C   UNL     1       0.950  10.351  21.828  0.00  0.00    +0.000 A 
ATOM     14  C   UNL     1       0.206   9.548  22.697  0.00  0.00    +0.000 A 
ATOM     15  C   UNL     1      -0.959  10.041  23.283  0.00  0.00    +0.000 A 
ATOM     16  C   UNL     1      -1.353  11.356  23.046  0.00  0.00    +0.000 A 
ATOM     17  C   UNL     1      -0.599  12.167  22.195  0.00  0.00    +0.000 A 
ENDBRANCH  11  12
BRANCH   1  19
ATOM     18  C   UNL     1       1.082   9.757  18.077  0.00  0.00    +0.000 C 
ATOM     19  C   UNL     1       0.286  10.952  18.632  0.00  0.00    +0.000 C 
BRANCH  19  20
ATOM     20  N   UNL     1      -0.718  11.385  17.649  0.00  0.00    +0.000 N 
ATOM     21  H   UNL     1      -0.340  12.030  16.964  0.00  0.00    +0.000 HD
BRANCH  20  22
ATOM     22  C   UNL     1      -2.029  11.681  18.023  0.00  0.00    +0.000 A 
ATOM     23  N   UNL     1      -2.264  12.169  19.254  0.00  0.00    +0.000 NA
ATOM     24  C   UNL     1      -3.529  12.342  19.635  0.00  0.00    +0.000 A 
ATOM     25  N   UNL     1      -4.609  12.077  18.895  0.00  0.00    +0.000 NA
ATOM     26  C   UNL     1      -4.367  11.596  17.669  0.00  0.00    +0.000 A 
ATOM     27  N   UNL     1      -5.518  11.227  16.968  0.00  0.00    +0.000 N 
ATOM     28  C   UNL     1      -3.093  11.380  17.177  0.00  0.00    +0.000 A 
ATOM     29  H   UNL     1      -6.336  11.535  17.490  0.00  0.00    +0.000 HD
ATOM     30  H   UNL     1      -5.541  11.526  15.998  0.00  0.00    +0.000 HD
BRANCH  28  31
ATOM     31  C   UNL     1      -2.884  10.851  15.874  0.00  0.00    +0.000 C 
ATOM     32  N   UNL     1      -2.758  10.443  14.795  0.00  0.00    +0.000 NA
ENDBRANCH  28  31
ENDBRANCH  20  22
ENDBRANCH  19  20
ENDBRANCH   1  19
TORSDOF 5
ENDMDL
MODEL 2
REMARK VINA RESULT:      -7.1      8.262     10.799
REMARK  Name = 
REMARK  6 active torsions:
REMARK  status: ('A' for Active; 'I' for Inactive)
REMARK    1  A    between atoms: C_1  and  C_2
REMARK    2  A    between atoms: C_2  and  N_3
REMARK    3  A    between atoms: C_2  and  C_13
REMARK    4  A    between atoms: N_3  and  C_4
REMARK    5  A    between atoms: C_10  and  C_11
REMARK    6  A    between atoms: C_23  and  C_24
REMARK                            x       y       z     vdW  Elec       q    Type
REMARK                         _______ _______ _______ _____ _____    ______ ____
ROOT
ATOM      1  C   UNL     1       5.150   5.171  15.954  0.00  0.00    +0.000 A 
ATOM      2  N   UNL     1       4.584   4.412  14.955  0.00  0.00    +0.000 NA
ATOM      3  C   UNL     1       5.290   4.125  13.911  0.00  0.00    +0.000 A 
ATOM      4  C   UNL     1       4.636   3.371  12.809  0.00  0.00    +0.000 A 
ATOM      5  C   UNL     1       5.339   3.038  11.721  0.00  0.00    +0.000 A 
ATOM      6  C   UNL     1       6.728   3.401  11.618  0.00  0.00    +0.000 A 
ATOM      7  C   UNL     1       7.313   4.094  12.602  0.00  0.00    +0.000 A 
ATOM      8  N   UNL     1       6.618   4.473  13.748  0.00  0.00    +0.000 N 
ATOM      9  C   UNL     1       7.274   5.181  14.748  0.00  0.00    +0.000 A 
ATOM     10  O   UNL     1       8.464   5.497  14.694  0.00  0.00    +0.000 OA
ATOM     11  C   UNL     1       6.449   5.559  15.937  0.00  0.00    +0.000 A 
ENDROOT
BRANCH  11  12
ATOM     12  C   UNL     1       7.055   6.354  17.024  0.00  0.00    +0.000 A 
ATOM     13  C   UNL     1       7.249   7.733  16.872  0.00  0.00    +0.000 A 
ATOM     14  C   UNL     1       7.972   8.452  17.828  0.00  0.00    +0.000 A 
ATOM     15  C   UNL     1       8.503   7.801  18.940  0.00  0.00    +0.000 A 
ATOM     16  C   UNL     1       8.266   6.441  19.129  0.00  0.00    +0.000 A 
ATOM     17  C   UNL     1       7.524   5.726  18.186  0.00  0.00    +0.000 A 
ENDBRANCH  11  12
BRANCH   1  19
ATOM     18  C   UNL     1       4.033   7.063  17.369  0.00  0.00    +0.000 C 
ATOM     19  C   UNL     1       4.164   5.557  17.078  0.00  0.00    +0.000 C 
BRANCH  19  20
ATOM     20  N   UNL     1       4.422   4.826  18.327  0.00  0.00    +0.000 N 
ATOM     21  H   UNL     1       5.410   4.656  18.482  0.00  0.00    +0.000 HD
BRANCH  20  22
ATOM     22  C   UNL     1       3.607   3.772  18.741  0.00  0.00    +0.000 A 
ATOM     23  N   UNL     1       3.846   2.537  18.268  0.00  0.00    +0.000 NA
ATOM     24  C   UNL     1       2.994   1.562  18.584  0.00  0.00    +0.000 A 
ATOM     25  N   UNL     1       1.906   1.697  19.347  0.00  0.00    +0.000 NA
ATOM     26  C   UNL     1       1.677   2.929  19.819  0.00  0.00    +0.000 A 
ATOM     27  N   UNL     1       0.474   3.053  20.518  0.00  0.00    +0.000 N 
ATOM     28  C   UNL     1       2.499   4.007  19.550  0.00  0.00    +0.000 A 
ATOM     29  H   UNL     1       0.071   2.129  20.650  0.00  0.00    +0.000 HD
ATOM     30  H   UNL     1       0.538   3.577  21.386  0.00  0.00    +0.000 HD
BRANCH  28  31
ATOM     31  C   UNL     1       2.208   5.303  20.059  0.00  0.00    +0.000 C 
ATOM     32  N   UNL     1       1.931   6.339  20.502  0.00  0.00    +0.000 NA
ENDBRANCH  28  31
ENDBRANCH  20  22
ENDBRANCH  19  20
ENDBRANCH   1  19
TORSDOF 5
ENDMDL
MODEL 3
REMARK VINA RESULT:      -7.1      2.457      3.789
REMARK  Name = 
REMARK  6 active torsions:
REMARK  status: ('A' for Active; 'I' for Inactive)
REMARK    1  A    between atoms: C_1  and  C_2
REMARK    2  A    between atoms: C_2  and  N_3
REMARK    3  A    between atoms: C_2  and  C_13
REMARK    4  A    between atoms: N_3  and  C_4
REMARK    5  A    between atoms: C_10  and  C_11
REMARK    6  A    between atoms: C_23  and  C_24
REMARK                            x       y       z     vdW  Elec       q    Type
REMARK                         _______ _______ _______ _____ _____    ______ ____
ROOT
ATOM      1  C   UNL     1      -0.947  13.085  19.780  0.00  0.00    +0.000 A 
ATOM      2  N   UNL     1      -0.887  14.275  19.092  0.00  0.00    +0.000 NA
ATOM      3  C   UNL     1       0.154  15.028  19.233  0.00  0.00    +0.000 A 
ATOM      4  C   UNL     1       0.165  16.345  18.543  0.00  0.00    +0.000 A 
ATOM      5  C   UNL     1       1.233  17.144  18.648  0.00  0.00    +0.000 A 
ATOM      6  C   UNL     1       2.374  16.728  19.421  0.00  0.00    +0.000 A 
ATOM      7  C   UNL     1       2.358  15.549  20.056  0.00  0.00    +0.000 A 
ATOM      8  N   UNL     1       1.264  14.691  19.985  0.00  0.00    +0.000 N 
ATOM      9  C   UNL     1       1.302  13.472  20.652  0.00  0.00    +0.000 A 
ATOM     10  O   UNL     1       2.268  13.083  21.312  0.00  0.00    +0.000 OA
ATOM     11  C   UNL     1       0.079  12.618  20.533  0.00  0.00    +0.000 A 
ENDROOT
BRANCH  11  12
ATOM     12  C   UNL     1       0.016  11.328  21.250  0.00  0.00    +0.000 A 
ATOM     13  C   UNL     1       0.439  10.148  20.624  0.00  0.00    +0.000 A 
ATOM     14  C   UNL     1       0.224   8.911  21.237  0.00  0.00    +0.000 A 
ATOM     15  C   UNL     1      -0.410   8.843  22.477  0.00  0.00    +0.000 A 
ATOM     16  C   UNL     1      -0.781  10.015  23.132  0.00  0.00    +0.000 A 
ATOM     17  C   UNL     1      -0.547  11.254  22.531  0.00  0.00    +0.000 A 
ENDBRANCH  11  12
BRANCH   1  19
ATOM     18  C   UNL     1      -2.503  11.580  18.316  0.00  0.00    +0.000 C 
ATOM     19  C   UNL     1      -2.296  12.347  19.634  0.00  0.00    +0.000 C 
BRANCH  19  20
ATOM     20  N   UNL     1      -3.447  13.227  19.887  0.00  0.00    +0.000 N 
ATOM     21  H   UNL     1      -3.185  14.205  19.938  0.00  0.00    +0.000 HD
BRANCH  20  22
ATOM     22  C   UNL     1      -4.454  12.875  20.785  0.00  0.00    +0.000 A 
ATOM     23  N   UNL     1      -5.555  12.256  20.323  0.00  0.00    +0.000 NA
ATOM     24  C   UNL     1      -6.555  12.026  21.172  0.00  0.00    +0.000 A 
ATOM     25  N   UNL     1      -6.568  12.354  22.467  0.00  0.00    +0.000 NA
ATOM     26  C   UNL     1      -5.467  12.966  22.921  0.00  0.00    +0.000 A 
ATOM     27  N   UNL     1      -5.563  13.392  24.248  0.00  0.00    +0.000 N 
ATOM     28  C   UNL     1      -4.375  13.250  22.123  0.00  0.00    +0.000 A 
ATOM     29  H   UNL     1      -6.417  13.019  24.655  0.00  0.00    +0.000 HD
ATOM     30  H   UNL     1      -4.744  13.198  24.818  0.00  0.00    +0.000 HD
BRANCH  28  31
ATOM     31  C   UNL     1      -3.233  13.918  22.644  0.00  0.00    +0.000 C 
ATOM     32  N   UNL     1      -2.270  14.431  23.041  0.00  0.00    +0.000 NA
ENDBRANCH  28  31
ENDBRANCH  20  22
ENDBRANCH  19  20
ENDBRANCH   1  19
TORSDOF 5
ENDMDL
MODEL 4
REMARK VINA RESULT:      -7.1      2.115      2.871
REMARK  Name = 
REMARK  6 active torsions:
REMARK  status: ('A' for Active; 'I' for Inactive)
REMARK    1  A    between atoms: C_1  and  C_2
REMARK    2  A    between atoms: C_2  and  N_3
REMARK    3  A    between atoms: C_2  and  C_13
REMARK    4  A    between atoms: N_3  and  C_4
REMARK    5  A    between atoms: C_10  and  C_11
REMARK    6  A    between atoms: C_23  and  C_24
REMARK                            x       y       z     vdW  Elec       q    Type
REMARK                         _______ _______ _______ _____ _____    ______ ____
ROOT
ATOM      1  C   UNL     1      -0.841  13.022  19.590  0.00  0.00    +0.000 A 
ATOM      2  N   UNL     1      -0.816  14.182  18.850  0.00  0.00    +0.000 NA
ATOM      3  C   UNL     1       0.084  15.072  19.111  0.00  0.00    +0.000 A 
ATOM      4  C   UNL     1       0.046  16.351  18.354  0.00  0.00    +0.000 A 
ATOM      5  C   UNL     1       0.972  17.288  18.581  0.00  0.00    +0.000 A 
ATOM      6  C   UNL     1       2.010  17.059  19.553  0.00  0.00    +0.000 A 
ATOM      7  C   UNL     1       2.036  15.914  20.247  0.00  0.00    +0.000 A 
ATOM      8  N   UNL     1       1.086  14.915  20.052  0.00  0.00    +0.000 N 
ATOM      9  C   UNL     1       1.163  13.739  20.789  0.00  0.00    +0.000 A 
ATOM     10  O   UNL     1       2.045  13.509  21.618  0.00  0.00    +0.000 OA
ATOM     11  C   UNL     1       0.094  12.726  20.526  0.00  0.00    +0.000 A 
ENDROOT
BRANCH  11  12
ATOM     12  C   UNL     1       0.075  11.468  21.300  0.00  0.00    +0.000 A 
ATOM     13  C   UNL     1       0.698  10.317  20.799  0.00  0.00    +0.000 A 
ATOM     14  C   UNL     1       0.536   9.091  21.448  0.00  0.00    +0.000 A 
ATOM     15  C   UNL     1      -0.245   9.004  22.599  0.00  0.00    +0.000 A 
ATOM     16  C   UNL     1      -0.821  10.153  23.136  0.00  0.00    +0.000 A 
ATOM     17  C   UNL     1      -0.642  11.384  22.501  0.00  0.00    +0.000 A 
ENDBRANCH  11  12
BRANCH   1  19
ATOM     18  C   UNL     1      -1.928  11.267  17.986  0.00  0.00    +0.000 C 
ATOM     19  C   UNL     1      -2.042  12.105  19.272  0.00  0.00    +0.000 C 
BRANCH  19  20
ATOM     20  N   UNL     1      -3.321  12.832  19.284  0.00  0.00    +0.000 N 
ATOM     21  H   UNL     1      -3.247  13.757  18.874  0.00  0.00    +0.000 HD
BRANCH  20  22
ATOM     22  C   UNL     1      -4.184  12.779  20.378  0.00  0.00    +0.000 A 
ATOM     23  N   UNL     1      -3.746  13.200  21.577  0.00  0.00    +0.000 NA
ATOM     24  C   UNL     1      -4.542  13.040  22.634  0.00  0.00    +0.000 A 
ATOM     25  N   UNL     1      -5.762  12.496  22.614  0.00  0.00    +0.000 NA
ATOM     26  C   UNL     1      -6.194  12.084  21.416  0.00  0.00    +0.000 A 
ATOM     27  N   UNL     1      -7.423  11.422  21.454  0.00  0.00    +0.000 N 
ATOM     28  C   UNL     1      -5.446  12.203  20.259  0.00  0.00    +0.000 A 
ATOM     29  H   UNL     1      -7.818  11.510  22.387  0.00  0.00    +0.000 HD
ATOM     30  H   UNL     1      -8.078  11.696  20.727  0.00  0.00    +0.000 HD
BRANCH  28  31
ATOM     31  C   UNL     1      -5.938  11.736  19.010  0.00  0.00    +0.000 C 
ATOM     32  N   UNL     1      -6.293  11.365  17.968  0.00  0.00    +0.000 NA
ENDBRANCH  28  31
ENDBRANCH  20  22
ENDBRANCH  19  20
ENDBRANCH   1  19
TORSDOF 5
ENDMDL
MODEL 5
REMARK VINA RESULT:      -7.0      2.615      5.544
REMARK  Name = 
REMARK  6 active torsions:
REMARK  status: ('A' for Active; 'I' for Inactive)
REMARK    1  A    between atoms: C_1  and  C_2
REMARK    2  A    between atoms: C_2  and  N_3
REMARK    3  A    between atoms: C_2  and  C_13
REMARK    4  A    between atoms: N_3  and  C_4
REMARK    5  A    between atoms: C_10  and  C_11
REMARK    6  A    between atoms: C_23  and  C_24
REMARK                            x       y       z     vdW  Elec       q    Type
REMARK                         _______ _______ _______ _____ _____    ______ ____
ROOT
ATOM      1  C   UNL     1      -1.024  11.946  20.590  0.00  0.00    +0.000 A 
ATOM      2  N   UNL     1      -0.409  11.172  19.633  0.00  0.00    +0.000 NA
ATOM      3  C   UNL     1       0.303  10.160  20.008  0.00  0.00    +0.000 A 
ATOM      4  C   UNL     1       1.021   9.383  18.964  0.00  0.00    +0.000 A 
ATOM      5  C   UNL     1       1.752   8.318  19.310  0.00  0.00    +0.000 A 
ATOM      6  C   UNL     1       1.837   7.918  20.690  0.00  0.00    +0.000 A 
ATOM      7  C   UNL     1       1.203   8.626  21.633  0.00  0.00    +0.000 A 
ATOM      8  N   UNL     1       0.441   9.749  21.321  0.00  0.00    +0.000 N 
ATOM      9  C   UNL     1      -0.208  10.444  22.334  0.00  0.00    +0.000 A 
ATOM     10  O   UNL     1      -0.164  10.119  23.522  0.00  0.00    +0.000 OA
ATOM     11  C   UNL     1      -0.993  11.645  21.911  0.00  0.00    +0.000 A 
ENDROOT
BRANCH  11  12
ATOM     12  C   UNL     1      -1.675  12.468  22.931  0.00  0.00    +0.000 A 
ATOM     13  C   UNL     1      -2.958  12.124  23.377  0.00  0.00    +0.000 A 
ATOM     14  C   UNL     1      -3.667  12.991  24.212  0.00  0.00    +0.000 A 
ATOM     15  C   UNL     1      -3.102  14.203  24.608  0.00  0.00    +0.000 A 
ATOM     16  C   UNL     1      -1.806  14.526  24.215  0.00  0.00    +0.000 A 
ATOM     17  C   UNL     1      -1.086  13.650  23.399  0.00  0.00    +0.000 A 
ENDBRANCH  11  12
BRANCH   1  19
ATOM     18  C   UNL     1      -3.213  13.027  19.656  0.00  0.00    +0.000 C 
ATOM     19  C   UNL     1      -1.728  13.198  20.022  0.00  0.00    +0.000 C 
BRANCH  19  20
ATOM     20  N   UNL     1      -0.998  13.786  18.888  0.00  0.00    +0.000 N 
ATOM     21  H   UNL     1      -0.575  13.084  18.292  0.00  0.00    +0.000 HD
BRANCH  20  22
ATOM     22  C   UNL     1      -0.218  14.933  19.035  0.00  0.00    +0.000 A 
ATOM     23  N   UNL     1      -0.819  16.100  19.324  0.00  0.00    +0.000 NA
ATOM     24  C   UNL     1      -0.075  17.205  19.352  0.00  0.00    +0.000 A 
ATOM     25  N   UNL     1       1.240  17.265  19.120  0.00  0.00    +0.000 NA
ATOM     26  C   UNL     1       1.832  16.098  18.837  0.00  0.00    +0.000 A 
ATOM     27  N   UNL     1       3.180  16.217  18.492  0.00  0.00    +0.000 N 
ATOM     28  C   UNL     1       1.151  14.896  18.783  0.00  0.00    +0.000 A 
ATOM     29  H   UNL     1       3.483  17.172  18.664  0.00  0.00    +0.000 HD
ATOM     30  H   UNL     1       3.793  15.531  18.924  0.00  0.00    +0.000 HD
BRANCH  28  31
ATOM     31  C   UNL     1       1.818  13.683  18.462  0.00  0.00    +0.000 C 
ATOM     32  N   UNL     1       2.371  12.711  18.151  0.00  0.00    +0.000 NA
ENDBRANCH  28  31
ENDBRANCH  20  22
ENDBRANCH  19  20
ENDBRANCH   1  19
TORSDOF 5
ENDMDL
MODEL 6
REMARK VINA RESULT:      -6.9      2.097      3.309
REMARK  Name = 
REMARK  6 active torsions:
REMARK  status: ('A' for Active; 'I' for Inactive)
REMARK    1  A    between atoms: C_1  and  C_2
REMARK    2  A    between atoms: C_2  and  N_3
REMARK    3  A    between atoms: C_2  and  C_13
REMARK    4  A    between atoms: N_3  and  C_4
REMARK    5  A    between atoms: C_10  and  C_11
REMARK    6  A    between atoms: C_23  and  C_24
REMARK                            x       y       z     vdW  Elec       q    Type
REMARK                         _______ _______ _______ _____ _____    ______ ____
ROOT
ATOM      1  C   UNL     1      -1.010  12.744  19.493  0.00  0.00    +0.000 A 
ATOM      2  N   UNL     1      -0.998  13.915  18.769  0.00  0.00    +0.000 NA
ATOM      3  C   UNL     1      -0.140  14.831  19.076  0.00  0.00    +0.000 A 
ATOM      4  C   UNL     1      -0.194  16.118  18.334  0.00  0.00    +0.000 A 
ATOM      5  C   UNL     1       0.689  17.084  18.609  0.00  0.00    +0.000 A 
ATOM      6  C   UNL     1       1.697  16.877  19.616  0.00  0.00    +0.000 A 
ATOM      7  C   UNL     1       1.737  15.724  20.296  0.00  0.00    +0.000 A 
ATOM      8  N   UNL     1       0.830  14.696  20.052  0.00  0.00    +0.000 N 
ATOM      9  C   UNL     1       0.920  13.513  20.776  0.00  0.00    +0.000 A 
ATOM     10  O   UNL     1       1.778  13.302  21.636  0.00  0.00    +0.000 OA
ATOM     11  C   UNL     1      -0.102  12.467  20.460  0.00  0.00    +0.000 A 
ENDROOT
BRANCH  11  12
ATOM     12  C   UNL     1      -0.107  11.198  21.216  0.00  0.00    +0.000 A 
ATOM     13  C   UNL     1      -0.758  11.113  22.454  0.00  0.00    +0.000 A 
ATOM     14  C   UNL     1      -0.621   9.968  23.243  0.00  0.00    +0.000 A 
ATOM     15  C   UNL     1       0.163   8.903  22.802  0.00  0.00    +0.000 A 
ATOM     16  C   UNL     1       0.766   8.956  21.548  0.00  0.00    +0.000 A 
ATOM     17  C   UNL     1       0.612  10.090  20.749  0.00  0.00    +0.000 A 
ENDBRANCH  11  12
BRANCH   1  19
ATOM     18  C   UNL     1      -1.882  10.809  17.968  0.00  0.00    +0.000 C 
ATOM     19  C   UNL     1      -2.167  11.791  19.118  0.00  0.00    +0.000 C 
BRANCH  19  20
ATOM     20  N   UNL     1      -3.425  12.509  18.863  0.00  0.00    +0.000 N 
ATOM     21  H   UNL     1      -3.363  13.495  19.090  0.00  0.00    +0.000 HD
BRANCH  20  22
ATOM     22  C   UNL     1      -4.664  11.947  19.171  0.00  0.00    +0.000 A 
ATOM     23  N   UNL     1      -5.363  11.335  18.198  0.00  0.00    +0.000 NA
ATOM     24  C   UNL     1      -6.591  10.901  18.479  0.00  0.00    +0.000 A 
ATOM     25  N   UNL     1      -7.206  11.014  19.660  0.00  0.00    +0.000 NA
ATOM     26  C   UNL     1      -6.502  11.620  20.624  0.00  0.00    +0.000 A 
ATOM     27  N   UNL     1      -7.217  11.818  21.808  0.00  0.00    +0.000 N 
ATOM     28  C   UNL     1      -5.221  12.106  20.436  0.00  0.00    +0.000 A 
ATOM     29  H   UNL     1      -8.105  11.325  21.744  0.00  0.00    +0.000 HD
ATOM     30  H   UNL     1      -6.707  11.592  22.657  0.00  0.00    +0.000 HD
BRANCH  28  31
ATOM     31  C   UNL     1      -4.517  12.758  21.485  0.00  0.00    +0.000 C 
ATOM     32  N   UNL     1      -3.899  13.289  22.311  0.00  0.00    +0.000 NA
ENDBRANCH  28  31
ENDBRANCH  20  22
ENDBRANCH  19  20
ENDBRANCH   1  19
TORSDOF 5
ENDMDL
MODEL 7
REMARK VINA RESULT:      -6.9      2.452      3.548
REMARK  Name = 
REMARK  6 active torsions:
REMARK  status: ('A' for Active; 'I' for Inactive)
REMARK    1  A    between atoms: C_1  and  C_2
REMARK    2  A    between atoms: C_2  and  N_3
REMARK    3  A    between atoms: C_2  and  C_13
REMARK    4  A    between atoms: N_3  and  C_4
REMARK    5  A    between atoms: C_10  and  C_11
REMARK    6  A    between atoms: C_23  and  C_24
REMARK                            x       y       z     vdW  Elec       q    Type
REMARK                         _______ _______ _______ _____ _____    ______ ____
ROOT
ATOM      1  C   UNL     1      -0.877  13.142  19.804  0.00  0.00    +0.000 A 
ATOM      2  N   UNL     1      -0.796  14.322  19.101  0.00  0.00    +0.000 NA
ATOM      3  C   UNL     1       0.273  15.042  19.205  0.00  0.00    +0.000 A 
ATOM      4  C   UNL     1       0.309  16.349  18.499  0.00  0.00    +0.000 A 
ATOM      5  C   UNL     1       1.405  17.113  18.567  0.00  0.00    +0.000 A 
ATOM      6  C   UNL     1       2.551  16.668  19.314  0.00  0.00    +0.000 A 
ATOM      7  C   UNL     1       2.514  15.498  19.963  0.00  0.00    +0.000 A 
ATOM      8  N   UNL     1       1.391  14.676  19.931  0.00  0.00    +0.000 N 
ATOM      9  C   UNL     1       1.406  13.464  20.612  0.00  0.00    +0.000 A 
ATOM     10  O   UNL     1       2.375  13.050  21.250  0.00  0.00    +0.000 OA
ATOM     11  C   UNL     1       0.153  12.650  20.535  0.00  0.00    +0.000 A 
ENDROOT
BRANCH  11  12
ATOM     12  C   UNL     1       0.067  11.370  21.269  0.00  0.00    +0.000 A 
ATOM     13  C   UNL     1       0.515  10.182  20.677  0.00  0.00    +0.000 A 
ATOM     14  C   UNL     1       0.281   8.954  21.300  0.00  0.00    +0.000 A 
ATOM     15  C   UNL     1      -0.399   8.903  22.516  0.00  0.00    +0.000 A 
ATOM     16  C   UNL     1      -0.797  10.083  23.140  0.00  0.00    +0.000 A 
ATOM     17  C   UNL     1      -0.543  11.314  22.529  0.00  0.00    +0.000 A 
ENDBRANCH  11  12
BRANCH   1  19
ATOM     18  C   UNL     1      -2.554  11.745  18.366  0.00  0.00    +0.000 C 
ATOM     19  C   UNL     1      -2.252  12.448  19.702  0.00  0.00    +0.000 C 
BRANCH  19  20
ATOM     20  N   UNL     1      -3.362  13.346  20.056  0.00  0.00    +0.000 N 
ATOM     21  H   UNL     1      -3.329  14.224  19.549  0.00  0.00    +0.000 HD
BRANCH  20  22
ATOM     22  C   UNL     1      -3.803  13.483  21.372  0.00  0.00    +0.000 A 
ATOM     23  N   UNL     1      -3.014  14.108  22.264  0.00  0.00    +0.000 NA
ATOM     24  C   UNL     1      -3.397  14.133  23.539  0.00  0.00    +0.000 A 
ATOM     25  N   UNL     1      -4.517  13.592  24.027  0.00  0.00    +0.000 NA
ATOM     26  C   UNL     1      -5.300  12.976  23.132  0.00  0.00    +0.000 A 
ATOM     27  N   UNL     1      -6.402  12.328  23.695  0.00  0.00    +0.000 N 
ATOM     28  C   UNL     1      -4.993  12.893  21.787  0.00  0.00    +0.000 A 
ATOM     29  H   UNL     1      -6.465  12.577  24.679  0.00  0.00    +0.000 HD
ATOM     30  H   UNL     1      -7.278  12.469  23.201  0.00  0.00    +0.000 HD
BRANCH  28  31
ATOM     31  C   UNL     1      -5.847  12.214  20.875  0.00  0.00    +0.000 C 
ATOM     32  N   UNL     1      -6.507  11.621  20.127  0.00  0.00    +0.000 NA
ENDBRANCH  28  31
ENDBRANCH  20  22
ENDBRANCH  19  20
ENDBRANCH   1  19
TORSDOF 5
ENDMDL
MODEL 8
REMARK VINA RESULT:      -6.9      6.140      8.628
REMARK  Name = 
REMARK  6 active torsions:
REMARK  status: ('A' for Active; 'I' for Inactive)
REMARK    1  A    between atoms: C_1  and  C_2
REMARK    2  A    between atoms: C_2  and  N_3
REMARK    3  A    between atoms: C_2  and  C_13
REMARK    4  A    between atoms: N_3  and  C_4
REMARK    5  A    between atoms: C_10  and  C_11
REMARK    6  A    between atoms: C_23  and  C_24
REMARK                            x       y       z     vdW  Elec       q    Type
REMARK                         _______ _______ _______ _____ _____    ______ ____
ROOT
ATOM      1  C   UNL     1       2.658   6.244  18.493  0.00  0.00    +0.000 A 
ATOM      2  N   UNL     1       2.804   7.470  17.884  0.00  0.00    +0.000 NA
ATOM      3  C   UNL     1       2.261   8.509  18.428  0.00  0.00    +0.000 A 
ATOM      4  C   UNL     1       2.365   9.809  17.715  0.00  0.00    +0.000 A 
ATOM      5  C   UNL     1       1.834  10.911  18.256  0.00  0.00    +0.000 A 
ATOM      6  C   UNL     1       1.169  10.841  19.530  0.00  0.00    +0.000 A 
ATOM      7  C   UNL     1       1.061   9.668  20.167  0.00  0.00    +0.000 A 
ATOM      8  N   UNL     1       1.588   8.494  19.636  0.00  0.00    +0.000 N 
ATOM      9  C   UNL     1       1.461   7.303  20.341  0.00  0.00    +0.000 A 
ATOM     10  O   UNL     1       0.908   7.214  21.439  0.00  0.00    +0.000 OA
ATOM     11  C   UNL     1       2.044   6.087  19.692  0.00  0.00    +0.000 A 
ENDROOT
BRANCH  11  12
ATOM     12  C   UNL     1       1.911   4.772  20.351  0.00  0.00    +0.000 A 
ATOM     13  C   UNL     1       2.941   4.278  21.161  0.00  0.00    +0.000 A 
ATOM     14  C   UNL     1       2.888   2.968  21.645  0.00  0.00    +0.000 A 
ATOM     15  C   UNL     1       1.808   2.147  21.328  0.00  0.00    +0.000 A 
ATOM     16  C   UNL     1       0.751   2.649  20.571  0.00  0.00    +0.000 A 
ATOM     17  C   UNL     1       0.792   3.964  20.105  0.00  0.00    +0.000 A 
ENDBRANCH  11  12
BRANCH   1  19
ATOM     18  C   UNL     1       2.217   4.010  17.211  0.00  0.00    +0.000 C 
ATOM     19  C   UNL     1       3.233   5.068  17.675  0.00  0.00    +0.000 C 
BRANCH  19  20
ATOM     20  N   UNL     1       4.364   4.414  18.351  0.00  0.00    +0.000 N 
ATOM     21  H   UNL     1       4.080   3.910  19.184  0.00  0.00    +0.000 HD
BRANCH  20  22
ATOM     22  C   UNL     1       5.604   5.039  18.478  0.00  0.00    +0.000 A 
ATOM     23  N   UNL     1       6.205   5.061  19.681  0.00  0.00    +0.000 NA
ATOM     24  C   UNL     1       7.334   5.756  19.812  0.00  0.00    +0.000 A 
ATOM     25  N   UNL     1       7.942   6.444  18.841  0.00  0.00    +0.000 NA
ATOM     26  C   UNL     1       7.340   6.414  17.645  0.00  0.00    +0.000 A 
ATOM     27  N   UNL     1       7.943   7.232  16.687  0.00  0.00    +0.000 N 
ATOM     28  C   UNL     1       6.167   5.723  17.405  0.00  0.00    +0.000 A 
ATOM     29  H   UNL     1       8.820   7.588  17.060  0.00  0.00    +0.000 HD
ATOM     30  H   UNL     1       8.054   6.806  15.771  0.00  0.00    +0.000 HD
BRANCH  28  31
ATOM     31  C   UNL     1       5.554   5.733  16.121  0.00  0.00    +0.000 C 
ATOM     32  N   UNL     1       5.101   5.750  15.053  0.00  0.00    +0.000 NA
ENDBRANCH  28  31
ENDBRANCH  20  22
ENDBRANCH  19  20
ENDBRANCH   1  19
TORSDOF 5
ENDMDL
MODEL 9
REMARK VINA RESULT:      -6.9      2.922      6.034
REMARK  Name = 
REMARK  6 active torsions:
REMARK  status: ('A' for Active; 'I' for Inactive)
REMARK    1  A    between atoms: C_1  and  C_2
REMARK    2  A    between atoms: C_2  and  N_3
REMARK    3  A    between atoms: C_2  and  C_13
REMARK    4  A    between atoms: N_3  and  C_4
REMARK    5  A    between atoms: C_10  and  C_11
REMARK    6  A    between atoms: C_23  and  C_24
REMARK                            x       y       z     vdW  Elec       q    Type
REMARK                         _______ _______ _______ _____ _____    ______ ____
ROOT
ATOM      1  C   UNL     1      -1.658  12.590  19.686  0.00  0.00    +0.000 A 
ATOM      2  N   UNL     1      -1.460  12.118  18.409  0.00  0.00    +0.000 NA
ATOM      3  C   UNL     1      -2.475  11.680  17.739  0.00  0.00    +0.000 A 
ATOM      4  C   UNL     1      -2.229  11.103  16.391  0.00  0.00    +0.000 A 
ATOM      5  C   UNL     1      -3.256  10.658  15.659  0.00  0.00    +0.000 A 
ATOM      6  C   UNL     1      -4.599  10.743  16.170  0.00  0.00    +0.000 A 
ATOM      7  C   UNL     1      -4.820  11.248  17.390  0.00  0.00    +0.000 A 
ATOM      8  N   UNL     1      -3.781  11.712  18.192  0.00  0.00    +0.000 N 
ATOM      9  C   UNL     1      -4.063  12.239  19.447  0.00  0.00    +0.000 A 
ATOM     10  O   UNL     1      -5.203  12.336  19.908  0.00  0.00    +0.000 OA
ATOM     11  C   UNL     1      -2.887  12.701  20.247  0.00  0.00    +0.000 A 
ENDROOT
BRANCH  11  12
ATOM     12  C   UNL     1      -3.093  13.231  21.611  0.00  0.00    +0.000 A 
ATOM     13  C   UNL     1      -3.155  12.362  22.707  0.00  0.00    +0.000 A 
ATOM     14  C   UNL     1      -3.517  12.844  23.968  0.00  0.00    +0.000 A 
ATOM     15  C   UNL     1      -3.815  14.195  24.142  0.00  0.00    +0.000 A 
ATOM     16  C   UNL     1      -3.699  15.076  23.070  0.00  0.00    +0.000 A 
ATOM     17  C   UNL     1      -3.317  14.599  21.815  0.00  0.00    +0.000 A 
ENDBRANCH  11  12
BRANCH   1  19
ATOM     18  C   UNL     1       0.168  14.386  20.205  0.00  0.00    +0.000 C 
ATOM     19  C   UNL     1      -0.352  12.954  20.425  0.00  0.00    +0.000 C 
BRANCH  19  20
ATOM     20  N   UNL     1       0.726  11.986  20.172  0.00  0.00    +0.000 N 
ATOM     21  H   UNL     1       0.992  11.947  19.194  0.00  0.00    +0.000 HD
BRANCH  20  22
ATOM     22  C   UNL     1       0.758  10.743  20.804  0.00  0.00    +0.000 A 
ATOM     23  N   UNL     1       0.442  10.665  22.108  0.00  0.00    +0.000 NA
ATOM     24  C   UNL     1       0.584   9.492  22.724  0.00  0.00    +0.000 A 
ATOM     25  N   UNL     1       1.013   8.361  22.157  0.00  0.00    +0.000 NA
ATOM     26  C   UNL     1       1.322   8.446  20.857  0.00  0.00    +0.000 A 
ATOM     27  N   UNL     1       1.871   7.275  20.328  0.00  0.00    +0.000 N 
ATOM     28  C   UNL     1       1.210   9.614  20.127  0.00  0.00    +0.000 A 
ATOM     29  H   UNL     1       1.796   6.533  21.020  0.00  0.00    +0.000 HD
ATOM     30  H   UNL     1       1.501   7.002  19.422  0.00  0.00    +0.000 HD
BRANCH  28  31
ATOM     31  C   UNL     1       1.565   9.662  18.750  0.00  0.00    +0.000 C 
ATOM     32  N   UNL     1       1.892   9.736  17.639  0.00  0.00    +0.000 NA
ENDBRANCH  28  31
ENDBRANCH  20  22
ENDBRANCH  19  20
ENDBRANCH   1  19
TORSDOF 5
ENDMDL
