MODEL 1
REMARK VINA RESULT:      -8.6      0.000      0.000
REMARK  Name = 
REMARK  12 active torsions:
REMARK  status: ('A' for Active; 'I' for Inactive)
REMARK    1  A    between atoms: C_1  and  C_2
REMARK    2  A    between atoms: C_3  and  C_4
REMARK    3  A    between atoms: C_4  and  N_5
REMARK    4  A    between atoms: C_7  and  C_8
REMARK    5  A    between atoms: C_8  and  O_10
REMARK    6  A    between atoms: C_16  and  O_17
REMARK    7  A    between atoms: O_17  and  C_18
REMARK    8  A    between atoms: C_18  and  C_19
REMARK    9  A    between atoms: C_19  and  C_20
REMARK   10  A    between atoms: C_19  and  C_21
REMARK   11  A    between atoms: C_19  and  C_22
REMARK   12  A    between atoms: C_22  and  C_23
REMARK                            x       y       z     vdW  Elec       q    Type
REMARK                         _______ _______ _______ _____ _____    ______ ____
ROOT
ATOM      1  C   UNL     1       0.051  12.524  19.484  0.00  0.00    +0.000 C 
ATOM      2  C   UNL     1       0.072  11.373  20.482  0.00  0.00    +0.000 C 
ATOM      3  C   UNL     1      -0.535  11.454  21.707  0.00  0.00    +0.000 C 
ATOM      4  C   UNL     1      -0.553  10.239  22.624  0.00  0.00    +0.000 C 
ATOM      5  C   UNL     1       0.615   9.270  22.433  0.00  0.00    +0.000 C 
ATOM      6  C   UNL     1       0.988   9.078  20.996  0.00  0.00    +0.000 A 
ATOM      7  C   UNL     1       1.653   7.906  20.605  0.00  0.00    +0.000 A 
ATOM      8  C   UNL     1       2.088   7.737  19.288  0.00  0.00    +0.000 A 
ATOM      9  C   UNL     1       1.865   8.764  18.357  0.00  0.00    +0.000 A 
ATOM     10  C   UNL     1       1.224   9.935  18.742  0.00  0.00    +0.000 A 
ATOM     11  C   UNL     1       0.770  10.111  20.066  0.00  0.00    +0.000 A 
ENDROOT
BRANCH   3  12
ATOM     12  C   UNL     1      -1.327  12.701  22.101  0.00  0.00    +0.000 C 
BRANCH  12  13
ATOM     13  N   UNL     1      -2.583  12.415  22.825  0.00  0.00    +0.000 NA
ATOM     14  C   UNL     1      -2.967  13.520  23.721  0.00  0.00    +0.000 C 
ATOM     15  C   UNL     1      -4.399  13.501  23.214  0.00  0.00    +0.000 C 
ATOM     16  C   UNL     1      -3.831  12.652  22.080  0.00  0.00    +0.000 C 
BRANCH  15  17
ATOM     17  C   UNL     1      -5.288  12.709  24.156  0.00  0.00    +0.000 C 
ATOM     18  O   UNL     1      -6.493  12.913  24.198  0.00  0.00    +0.000 OA
BRANCH  17  19
ATOM     19  O   UNL     1      -4.760  11.744  24.936  0.00  0.00    +0.000 OA
ATOM     20  H   UNL     1      -4.316  11.950  25.771  0.00  0.00    +0.000 HD
ENDBRANCH  17  19
ENDBRANCH  15  17
ENDBRANCH  12  13
ENDBRANCH   3  12
BRANCH   8  21
ATOM     21  O   UNL     1       2.707   6.574  18.962  0.00  0.00    +0.000 OA
BRANCH  21  22
ATOM     22  C   UNL     1       3.207   6.208  17.723  0.00  0.00    +0.000 C 
BRANCH  22  23
ATOM     23  C   UNL     1       4.265   5.095  17.877  0.00  0.00    +0.000 C 
ATOM     24  C   UNL     1       5.265   5.227  16.709  0.00  0.00    +0.000 C 
ATOM     25  C   UNL     1       5.013   5.289  19.217  0.00  0.00    +0.000 C 
BRANCH  23  26
ATOM     26  C   UNL     1       3.539   3.716  17.832  0.00  0.00    +0.000 C 
BRANCH  26  27
ATOM     27  C   UNL     1       2.781   3.354  19.084  0.00  0.00    +0.000 A 
ATOM     28  C   UNL     1       3.463   2.840  20.201  0.00  0.00    +0.000 A 
ATOM     29  C   UNL     1       2.765   2.526  21.370  0.00  0.00    +0.000 A 
ATOM     30  C   UNL     1       1.385   2.728  21.438  0.00  0.00    +0.000 A 
ATOM     31  C   UNL     1       0.697   3.247  20.334  0.00  0.00    +0.000 A 
ATOM     32  C   UNL     1       1.394   3.559  19.162  0.00  0.00    +0.000 A 
ENDBRANCH  26  27
ENDBRANCH  23  26
ENDBRANCH  22  23
ENDBRANCH  21  22
ENDBRANCH   8  21
TORSDOF 9
ENDMDL
MODEL 2
REMARK VINA RESULT:      -8.4      0.738      1.144
REMARK  Name = 
REMARK  12 active torsions:
REMARK  status: ('A' for Active; 'I' for Inactive)
REMARK    1  A    between atoms: C_1  and  C_2
REMARK    2  A    between atoms: C_3  and  C_4
REMARK    3  A    between atoms: C_4  and  N_5
REMARK    4  A    between atoms: C_7  and  C_8
REMARK    5  A    between atoms: C_8  and  O_10
REMARK    6  A    between atoms: C_16  and  O_17
REMARK    7  A    between atoms: O_17  and  C_18
REMARK    8  A    between atoms: C_18  and  C_19
REMARK    9  A    between atoms: C_19  and  C_20
REMARK   10  A    between atoms: C_19  and  C_21
REMARK   11  A    between atoms: C_19  and  C_22
REMARK   12  A    between atoms: C_22  and  C_23
REMARK                            x       y       z     vdW  Elec       q    Type
REMARK                         _______ _______ _______ _____ _____    ______ ____
ROOT
ATOM      1  C   UNL     1       0.531  12.078  18.791  0.00  0.00    +0.000 C 
ATOM      2  C   UNL     1       0.469  10.974  19.840  0.00  0.00    +0.000 C 
ATOM      3  C   UNL     1      -0.207  11.124  21.022  0.00  0.00    +0.000 C 
ATOM      4  C   UNL     1      -0.304   9.953  21.990  0.00  0.00    +0.000 C 
ATOM      5  C   UNL     1       0.852   8.954  21.912  0.00  0.00    +0.000 C 
ATOM      6  C   UNL     1       1.305   8.689  20.511  0.00  0.00    +0.000 A 
ATOM      7  C   UNL     1       1.966   7.488  20.213  0.00  0.00    +0.000 A 
ATOM      8  C   UNL     1       2.475   7.250  18.933  0.00  0.00    +0.000 A 
ATOM      9  C   UNL     1       2.328   8.237  17.946  0.00  0.00    +0.000 A 
ATOM     10  C   UNL     1       1.690   9.436  18.238  0.00  0.00    +0.000 A 
ATOM     11  C   UNL     1       1.163   9.682  19.523  0.00  0.00    +0.000 A 
ENDROOT
BRANCH   3  12
ATOM     12  C   UNL     1      -0.994  12.401  21.311  0.00  0.00    +0.000 C 
BRANCH  12  13
ATOM     13  N   UNL     1      -2.282  12.175  21.998  0.00  0.00    +0.000 NA
ATOM     14  C   UNL     1      -2.252  12.646  23.394  0.00  0.00    +0.000 C 
ATOM     15  C   UNL     1      -3.581  13.366  23.233  0.00  0.00    +0.000 C 
ATOM     16  C   UNL     1      -3.340  13.166  21.738  0.00  0.00    +0.000 C 
BRANCH  15  17
ATOM     17  C   UNL     1      -4.718  12.514  23.766  0.00  0.00    +0.000 C 
ATOM     18  O   UNL     1      -5.765  12.407  23.143  0.00  0.00    +0.000 OA
BRANCH  17  19
ATOM     19  O   UNL     1      -4.573  11.834  24.922  0.00  0.00    +0.000 OA
ATOM     20  H   UNL     1      -5.295  11.760  25.563  0.00  0.00    +0.000 HD
ENDBRANCH  17  19
ENDBRANCH  15  17
ENDBRANCH  12  13
ENDBRANCH   3  12
BRANCH   8  21
ATOM     21  O   UNL     1       3.086   6.062  18.698  0.00  0.00    +0.000 OA
BRANCH  21  22
ATOM     22  C   UNL     1       3.473   5.546  17.472  0.00  0.00    +0.000 C 
BRANCH  22  23
ATOM     23  C   UNL     1       4.524   4.432  17.665  0.00  0.00    +0.000 C 
ATOM     24  C   UNL     1       5.406   4.389  16.399  0.00  0.00    +0.000 C 
ATOM     25  C   UNL     1       5.403   4.771  18.890  0.00  0.00    +0.000 C 
BRANCH  23  26
ATOM     26  C   UNL     1       3.775   3.078  17.865  0.00  0.00    +0.000 C 
BRANCH  26  27
ATOM     27  C   UNL     1       2.903   3.009  19.093  0.00  0.00    +0.000 A 
ATOM     28  C   UNL     1       1.514   3.202  18.986  0.00  0.00    +0.000 A 
ATOM     29  C   UNL     1       0.701   3.115  20.119  0.00  0.00    +0.000 A 
ATOM     30  C   UNL     1       1.263   2.827  21.365  0.00  0.00    +0.000 A 
ATOM     31  C   UNL     1       2.644   2.626  21.481  0.00  0.00    +0.000 A 
ATOM     32  C   UNL     1       3.460   2.716  20.348  0.00  0.00    +0.000 A 
ENDBRANCH  26  27
ENDBRANCH  23  26
ENDBRANCH  22  23
ENDBRANCH  21  22
ENDBRANCH   8  21
TORSDOF 9
ENDMDL
MODEL 3
REMARK VINA RESULT:      -8.4      1.413      3.125
REMARK  Name = 
REMARK  12 active torsions:
REMARK  status: ('A' for Active; 'I' for Inactive)
REMARK    1  A    between atoms: C_1  and  C_2
REMARK    2  A    between atoms: C_3  and  C_4
REMARK    3  A    between atoms: C_4  and  N_5
REMARK    4  A    between atoms: C_7  and  C_8
REMARK    5  A    between atoms: C_8  and  O_10
REMARK    6  A    between atoms: C_16  and  O_17
REMARK    7  A    between atoms: O_17  and  C_18
REMARK    8  A    between atoms: C_18  and  C_19
REMARK    9  A    between atoms: C_19  and  C_20
REMARK   10  A    between atoms: C_19  and  C_21
REMARK   11  A    between atoms: C_19  and  C_22
REMARK   12  A    between atoms: C_22  and  C_23
REMARK                            x       y       z     vdW  Elec       q    Type
REMARK                         _______ _______ _______ _____ _____    ______ ____
ROOT
ATOM      1  C   UNL     1       0.219  12.003  18.807  0.00  0.00    +0.000 C 
ATOM      2  C   UNL     1       0.254  10.956  19.913  0.00  0.00    +0.000 C 
ATOM      3  C   UNL     1      -0.339  11.157  21.131  0.00  0.00    +0.000 C 
ATOM      4  C   UNL     1      -0.345  10.038  22.163  0.00  0.00    +0.000 C 
ATOM      5  C   UNL     1       0.822   9.055  22.054  0.00  0.00    +0.000 C 
ATOM      6  C   UNL     1       1.179   8.722  20.639  0.00  0.00    +0.000 A 
ATOM      7  C   UNL     1       1.840   7.518  20.358  0.00  0.00    +0.000 A 
ATOM      8  C   UNL     1       2.260   7.220  19.058  0.00  0.00    +0.000 A 
ATOM      9  C   UNL     1       2.025   8.151  18.034  0.00  0.00    +0.000 A 
ATOM     10  C   UNL     1       1.387   9.354  18.310  0.00  0.00    +0.000 A 
ATOM     11  C   UNL     1       0.948   9.659  19.615  0.00  0.00    +0.000 A 
ENDROOT
BRANCH   3  12
ATOM     12  C   UNL     1      -1.128  12.437  21.409  0.00  0.00    +0.000 C 
BRANCH  12  13
ATOM     13  N   UNL     1      -2.408  12.216  22.113  0.00  0.00    +0.000 NA
ATOM     14  C   UNL     1      -2.376  12.734  23.493  0.00  0.00    +0.000 C 
ATOM     15  C   UNL     1      -3.715  13.430  23.316  0.00  0.00    +0.000 C 
ATOM     16  C   UNL     1      -3.482  13.183  21.828  0.00  0.00    +0.000 C 
BRANCH  15  17
ATOM     17  C   UNL     1      -4.837  12.580  23.886  0.00  0.00    +0.000 C 
ATOM     18  O   UNL     1      -5.913  12.497  23.310  0.00  0.00    +0.000 OA
BRANCH  17  19
ATOM     19  O   UNL     1      -4.648  11.877  25.021  0.00  0.00    +0.000 OA
ATOM     20  H   UNL     1      -4.270  12.283  25.814  0.00  0.00    +0.000 HD
ENDBRANCH  17  19
ENDBRANCH  15  17
ENDBRANCH  12  13
ENDBRANCH   3  12
BRANCH   8  21
ATOM     21  O   UNL     1       2.876   6.031  18.842  0.00  0.00    +0.000 OA
BRANCH  21  22
ATOM     22  C   UNL     1       2.565   5.089  17.874  0.00  0.00    +0.000 C 
BRANCH  22  23
ATOM     23  C   UNL     1       3.611   3.954  17.874  0.00  0.00    +0.000 C 
ATOM     24  C   UNL     1       4.234   3.884  19.283  0.00  0.00    +0.000 C 
ATOM     25  C   UNL     1       2.904   2.614  17.560  0.00  0.00    +0.000 C 
BRANCH  23  26
ATOM     26  C   UNL     1       4.696   4.283  16.803  0.00  0.00    +0.000 C 
BRANCH  26  27
ATOM     27  C   UNL     1       5.792   5.206  17.270  0.00  0.00    +0.000 A 
ATOM     28  C   UNL     1       5.785   6.561  16.894  0.00  0.00    +0.000 A 
ATOM     29  C   UNL     1       6.787   7.424  17.345  0.00  0.00    +0.000 A 
ATOM     30  C   UNL     1       7.799   6.946  18.181  0.00  0.00    +0.000 A 
ATOM     31  C   UNL     1       7.811   5.600  18.568  0.00  0.00    +0.000 A 
ATOM     32  C   UNL     1       6.810   4.734  18.115  0.00  0.00    +0.000 A 
ENDBRANCH  26  27
ENDBRANCH  23  26
ENDBRANCH  22  23
ENDBRANCH  21  22
ENDBRANCH   8  21
TORSDOF 9
ENDMDL
MODEL 4
REMARK VINA RESULT:      -8.3      0.967      1.810
REMARK  Name = 
REMARK  12 active torsions:
REMARK  status: ('A' for Active; 'I' for Inactive)
REMARK    1  A    between atoms: C_1  and  C_2
REMARK    2  A    between atoms: C_3  and  C_4
REMARK    3  A    between atoms: C_4  and  N_5
REMARK    4  A    between atoms: C_7  and  C_8
REMARK    5  A    between atoms: C_8  and  O_10
REMARK    6  A    between atoms: C_16  and  O_17
REMARK    7  A    between atoms: O_17  and  C_18
REMARK    8  A    between atoms: C_18  and  C_19
REMARK    9  A    between atoms: C_19  and  C_20
REMARK   10  A    between atoms: C_19  and  C_21
REMARK   11  A    between atoms: C_19  and  C_22
REMARK   12  A    between atoms: C_22  and  C_23
REMARK                            x       y       z     vdW  Elec       q    Type
REMARK                         _______ _______ _______ _____ _____    ______ ____
ROOT
ATOM      1  C   UNL     1      -0.320   9.489  22.989  0.00  0.00    +0.000 C 
ATOM      2  C   UNL     1       0.061  10.132  21.662  0.00  0.00    +0.000 C 
ATOM      3  C   UNL     1      -0.268  11.426  21.354  0.00  0.00    +0.000 C 
ATOM      4  C   UNL     1       0.217  12.038  20.047  0.00  0.00    +0.000 C 
ATOM      5  C   UNL     1       0.451  11.038  18.914  0.00  0.00    +0.000 C 
ATOM      6  C   UNL     1       1.073   9.758  19.380  0.00  0.00    +0.000 A 
ATOM      7  C   UNL     1       1.796   8.970  18.473  0.00  0.00    +0.000 A 
ATOM      8  C   UNL     1       2.315   7.731  18.858  0.00  0.00    +0.000 A 
ATOM      9  C   UNL     1       2.094   7.275  20.167  0.00  0.00    +0.000 A 
ATOM     10  C   UNL     1       1.364   8.042  21.066  0.00  0.00    +0.000 A 
ATOM     11  C   UNL     1       0.845   9.299  20.691  0.00  0.00    +0.000 A 
ENDROOT
BRANCH   3  12
ATOM     12  C   UNL     1      -0.984  12.310  22.374  0.00  0.00    +0.000 C 
BRANCH  12  13
ATOM     13  N   UNL     1      -2.454  12.331  22.229  0.00  0.00    +0.000 NA
ATOM     14  C   UNL     1      -3.139  12.281  23.533  0.00  0.00    +0.000 C 
ATOM     15  C   UNL     1      -4.062  13.425  23.149  0.00  0.00    +0.000 C 
ATOM     16  C   UNL     1      -3.068  13.652  22.014  0.00  0.00    +0.000 C 
BRANCH  15  17
ATOM     17  C   UNL     1      -5.399  12.892  22.665  0.00  0.00    +0.000 C 
ATOM     18  O   UNL     1      -6.438  13.205  23.229  0.00  0.00    +0.000 OA
BRANCH  17  19
ATOM     19  O   UNL     1      -5.458  12.091  21.581  0.00  0.00    +0.000 OA
ATOM     20  H   UNL     1      -4.678  11.624  21.250  0.00  0.00    +0.000 HD
ENDBRANCH  17  19
ENDBRANCH  15  17
ENDBRANCH  12  13
ENDBRANCH   3  12
BRANCH   8  21
ATOM     21  O   UNL     1       3.023   7.021  17.944  0.00  0.00    +0.000 OA
BRANCH  21  22
ATOM     22  C   UNL     1       2.883   5.678  17.632  0.00  0.00    +0.000 C 
BRANCH  22  23
ATOM     23  C   UNL     1       4.262   4.987  17.596  0.00  0.00    +0.000 C 
ATOM     24  C   UNL     1       4.795   5.070  16.150  0.00  0.00    +0.000 C 
ATOM     25  C   UNL     1       5.229   5.736  18.542  0.00  0.00    +0.000 C 
BRANCH  23  26
ATOM     26  C   UNL     1       4.080   3.502  18.035  0.00  0.00    +0.000 C 
BRANCH  26  27
ATOM     27  C   UNL     1       3.015   3.272  19.077  0.00  0.00    +0.000 A 
ATOM     28  C   UNL     1       3.284   3.524  20.433  0.00  0.00    +0.000 A 
ATOM     29  C   UNL     1       2.291   3.334  21.397  0.00  0.00    +0.000 A 
ATOM     30  C   UNL     1       1.020   2.898  21.016  0.00  0.00    +0.000 A 
ATOM     31  C   UNL     1       0.738   2.652  19.667  0.00  0.00    +0.000 A 
ATOM     32  C   UNL     1       1.733   2.838  18.701  0.00  0.00    +0.000 A 
ENDBRANCH  26  27
ENDBRANCH  23  26
ENDBRANCH  22  23
ENDBRANCH  21  22
ENDBRANCH   8  21
TORSDOF 9
ENDMDL
MODEL 5
REMARK VINA RESULT:      -8.3      0.934      2.861
REMARK  Name = 
REMARK  12 active torsions:
REMARK  status: ('A' for Active; 'I' for Inactive)
REMARK    1  A    between atoms: C_1  and  C_2
REMARK    2  A    between atoms: C_3  and  C_4
REMARK    3  A    between atoms: C_4  and  N_5
REMARK    4  A    between atoms: C_7  and  C_8
REMARK    5  A    between atoms: C_8  and  O_10
REMARK    6  A    between atoms: C_16  and  O_17
REMARK    7  A    between atoms: O_17  and  C_18
REMARK    8  A    between atoms: C_18  and  C_19
REMARK    9  A    between atoms: C_19  and  C_20
REMARK   10  A    between atoms: C_19  and  C_21
REMARK   11  A    between atoms: C_19  and  C_22
REMARK   12  A    between atoms: C_22  and  C_23
REMARK                            x       y       z     vdW  Elec       q    Type
REMARK                         _______ _______ _______ _____ _____    ______ ____
ROOT
ATOM      1  C   UNL     1      -0.110  12.322  19.235  0.00  0.00    +0.000 C 
ATOM      2  C   UNL     1      -0.036  11.229  20.294  0.00  0.00    +0.000 C 
ATOM      3  C   UNL     1      -0.652  11.348  21.513  0.00  0.00    +0.000 C 
ATOM      4  C   UNL     1      -0.614  10.185  22.494  0.00  0.00    +0.000 C 
ATOM      5  C   UNL     1       0.600   9.265  22.358  0.00  0.00    +0.000 C 
ATOM      6  C   UNL     1       0.989   9.013  20.934  0.00  0.00    +0.000 A 
ATOM      7  C   UNL     1       1.711   7.856  20.609  0.00  0.00    +0.000 A 
ATOM      8  C   UNL     1       2.159   7.637  19.303  0.00  0.00    +0.000 A 
ATOM      9  C   UNL     1       1.890   8.600  18.318  0.00  0.00    +0.000 A 
ATOM     10  C   UNL     1       1.191   9.757  18.637  0.00  0.00    +0.000 A 
ATOM     11  C   UNL     1       0.724   9.983  19.949  0.00  0.00    +0.000 A 
ENDROOT
BRANCH   3  12
ATOM     12  C   UNL     1      -1.505  12.574  21.836  0.00  0.00    +0.000 C 
BRANCH  12  13
ATOM     13  N   UNL     1      -2.695  12.280  22.662  0.00  0.00    +0.000 NA
ATOM     14  C   UNL     1      -2.902  13.294  23.711  0.00  0.00    +0.000 C 
ATOM     15  C   UNL     1      -4.377  13.420  23.370  0.00  0.00    +0.000 C 
ATOM     16  C   UNL     1      -3.994  12.676  22.093  0.00  0.00    +0.000 C 
BRANCH  15  17
ATOM     17  C   UNL     1      -5.217  12.577  24.314  0.00  0.00    +0.000 C 
ATOM     18  O   UNL     1      -6.317  12.166  23.974  0.00  0.00    +0.000 OA
BRANCH  17  19
ATOM     19  O   UNL     1      -4.741  12.244  25.531  0.00  0.00    +0.000 OA
ATOM     20  H   UNL     1      -5.328  12.125  26.292  0.00  0.00    +0.000 HD
ENDBRANCH  17  19
ENDBRANCH  15  17
ENDBRANCH  12  13
ENDBRANCH   3  12
BRANCH   8  21
ATOM     21  O   UNL     1       2.835   6.490  19.042  0.00  0.00    +0.000 OA
BRANCH  21  22
ATOM     22  C   UNL     1       2.501   5.510  18.121  0.00  0.00    +0.000 C 
BRANCH  22  23
ATOM     23  C   UNL     1       2.520   4.117  18.786  0.00  0.00    +0.000 C 
ATOM     24  C   UNL     1       1.596   4.171  20.021  0.00  0.00    +0.000 C 
ATOM     25  C   UNL     1       1.977   3.071  17.785  0.00  0.00    +0.000 C 
BRANCH  23  26
ATOM     26  C   UNL     1       3.986   3.790  19.204  0.00  0.00    +0.000 C 
BRANCH  26  27
ATOM     27  C   UNL     1       5.033   4.138  18.177  0.00  0.00    +0.000 A 
ATOM     28  C   UNL     1       4.922   3.657  16.860  0.00  0.00    +0.000 A 
ATOM     29  C   UNL     1       5.879   3.997  15.901  0.00  0.00    +0.000 A 
ATOM     30  C   UNL     1       6.950   4.825  16.244  0.00  0.00    +0.000 A 
ATOM     31  C   UNL     1       7.067   5.316  17.549  0.00  0.00    +0.000 A 
ATOM     32  C   UNL     1       6.111   4.974  18.512  0.00  0.00    +0.000 A 
ENDBRANCH  26  27
ENDBRANCH  23  26
ENDBRANCH  22  23
ENDBRANCH  21  22
ENDBRANCH   8  21
TORSDOF 9
ENDMDL
MODEL 6
REMARK VINA RESULT:      -8.2      1.112      3.015
REMARK  Name = 
REMARK  12 active torsions:
REMARK  status: ('A' for Active; 'I' for Inactive)
REMARK    1  A    between atoms: C_1  and  C_2
REMARK    2  A    between atoms: C_3  and  C_4
REMARK    3  A    between atoms: C_4  and  N_5
REMARK    4  A    between atoms: C_7  and  C_8
REMARK    5  A    between atoms: C_8  and  O_10
REMARK    6  A    between atoms: C_16  and  O_17
REMARK    7  A    between atoms: O_17  and  C_18
REMARK    8  A    between atoms: C_18  and  C_19
REMARK    9  A    between atoms: C_19  and  C_20
REMARK   10  A    between atoms: C_19  and  C_21
REMARK   11  A    between atoms: C_19  and  C_22
REMARK   12  A    between atoms: C_22  and  C_23
REMARK                            x       y       z     vdW  Elec       q    Type
REMARK                         _______ _______ _______ _____ _____    ______ ____
ROOT
ATOM      1  C   UNL     1      -0.467  12.635  19.928  0.00  0.00    +0.000 C 
ATOM      2  C   UNL     1      -0.394  11.518  20.961  0.00  0.00    +0.000 C 
ATOM      3  C   UNL     1      -0.994  11.616  22.190  0.00  0.00    +0.000 C 
ATOM      4  C   UNL     1      -0.958  10.432  23.145  0.00  0.00    +0.000 C 
ATOM      5  C   UNL     1       0.243   9.501  22.973  0.00  0.00    +0.000 C 
ATOM      6  C   UNL     1       0.611   9.276  21.539  0.00  0.00    +0.000 A 
ATOM      7  C   UNL     1       1.315   8.118  21.179  0.00  0.00    +0.000 A 
ATOM      8  C   UNL     1       1.746   7.923  19.864  0.00  0.00    +0.000 A 
ATOM      9  C   UNL     1       1.476   8.911  18.904  0.00  0.00    +0.000 A 
ATOM     10  C   UNL     1       0.795  10.068  19.257  0.00  0.00    +0.000 A 
ATOM     11  C   UNL     1       0.346  10.270  20.579  0.00  0.00    +0.000 A 
ENDROOT
BRANCH   3  12
ATOM     12  C   UNL     1      -1.828  12.845  22.551  0.00  0.00    +0.000 C 
BRANCH  12  13
ATOM     13  N   UNL     1      -3.273  12.572  22.698  0.00  0.00    +0.000 NA
ATOM     14  C   UNL     1      -3.866  13.327  23.816  0.00  0.00    +0.000 C 
ATOM     15  C   UNL     1      -5.034  13.781  22.956  0.00  0.00    +0.000 C 
ATOM     16  C   UNL     1      -4.169  13.308  21.790  0.00  0.00    +0.000 C 
BRANCH  15  17
ATOM     17  C   UNL     1      -6.244  12.894  23.189  0.00  0.00    +0.000 C 
ATOM     18  O   UNL     1      -6.285  12.130  24.143  0.00  0.00    +0.000 OA
BRANCH  17  19
ATOM     19  O   UNL     1      -7.307  12.963  22.362  0.00  0.00    +0.000 OA
ATOM     20  H   UNL     1      -8.189  12.677  22.640  0.00  0.00    +0.000 HD
ENDBRANCH  17  19
ENDBRANCH  15  17
ENDBRANCH  12  13
ENDBRANCH   3  12
BRANCH   8  21
ATOM     21  O   UNL     1       2.404   6.774  19.569  0.00  0.00    +0.000 OA
BRANCH  21  22
ATOM     22  C   UNL     1       2.275   5.547  20.201  0.00  0.00    +0.000 C 
BRANCH  22  23
ATOM     23  C   UNL     1       2.436   4.399  19.182  0.00  0.00    +0.000 C 
ATOM     24  C   UNL     1       1.735   3.151  19.761  0.00  0.00    +0.000 C 
ATOM     25  C   UNL     1       1.753   4.799  17.854  0.00  0.00    +0.000 C 
BRANCH  23  26
ATOM     26  C   UNL     1       3.958   4.133  18.976  0.00  0.00    +0.000 C 
BRANCH  26  27
ATOM     27  C   UNL     1       4.525   4.651  17.678  0.00  0.00    +0.000 A 
ATOM     28  C   UNL     1       4.851   6.012  17.541  0.00  0.00    +0.000 A 
ATOM     29  C   UNL     1       5.398   6.490  16.348  0.00  0.00    +0.000 A 
ATOM     30  C   UNL     1       5.632   5.614  15.285  0.00  0.00    +0.000 A 
ATOM     31  C   UNL     1       5.318   4.256  15.413  0.00  0.00    +0.000 A 
ATOM     32  C   UNL     1       4.767   3.776  16.607  0.00  0.00    +0.000 A 
ENDBRANCH  26  27
ENDBRANCH  23  26
ENDBRANCH  22  23
ENDBRANCH  21  22
ENDBRANCH   8  21
TORSDOF 9
ENDMDL
MODEL 7
REMARK VINA RESULT:      -8.2      2.185      2.995
REMARK  Name = 
REMARK  12 active torsions:
REMARK  status: ('A' for Active; 'I' for Inactive)
REMARK    1  A    between atoms: C_1  and  C_2
REMARK    2  A    between atoms: C_3  and  C_4
REMARK    3  A    between atoms: C_4  and  N_5
REMARK    4  A    between atoms: C_7  and  C_8
REMARK    5  A    between atoms: C_8  and  O_10
REMARK    6  A    between atoms: C_16  and  O_17
REMARK    7  A    between atoms: O_17  and  C_18
REMARK    8  A    between atoms: C_18  and  C_19
REMARK    9  A    between atoms: C_19  and  C_20
REMARK   10  A    between atoms: C_19  and  C_21
REMARK   11  A    between atoms: C_19  and  C_22
REMARK   12  A    between atoms: C_22  and  C_23
REMARK                            x       y       z     vdW  Elec       q    Type
REMARK                         _______ _______ _______ _____ _____    ______ ____
ROOT
ATOM      1  C   UNL     1      -0.416   8.837  22.444  0.00  0.00    +0.000 C 
ATOM      2  C   UNL     1       0.154   9.461  21.177  0.00  0.00    +0.000 C 
ATOM      3  C   UNL     1      -0.132  10.748  20.801  0.00  0.00    +0.000 C 
ATOM      4  C   UNL     1       0.538  11.342  19.571  0.00  0.00    +0.000 C 
ATOM      5  C   UNL     1       0.943  10.325  18.503  0.00  0.00    +0.000 C 
ATOM      6  C   UNL     1       1.496   9.059  19.077  0.00  0.00    +0.000 A 
ATOM      7  C   UNL     1       2.350   8.261  18.301  0.00  0.00    +0.000 A 
ATOM      8  C   UNL     1       2.813   7.033  18.780  0.00  0.00    +0.000 A 
ATOM      9  C   UNL     1       2.402   6.596  20.049  0.00  0.00    +0.000 A 
ATOM     10  C   UNL     1       1.542   7.372  20.816  0.00  0.00    +0.000 A 
ATOM     11  C   UNL     1       1.078   8.619  20.347  0.00  0.00    +0.000 A 
ENDROOT
BRANCH   3  12
ATOM     12  C   UNL     1      -0.997  11.642  21.689  0.00  0.00    +0.000 C 
BRANCH  12  13
ATOM     13  N   UNL     1      -1.181  13.012  21.169  0.00  0.00    +0.000 NA
ATOM     14  C   UNL     1      -2.585  13.284  20.814  0.00  0.00    +0.000 C 
ATOM     15  C   UNL     1      -2.566  14.614  21.549  0.00  0.00    +0.000 C 
ATOM     16  C   UNL     1      -1.280  14.082  22.176  0.00  0.00    +0.000 C 
BRANCH  15  17
ATOM     17  C   UNL     1      -2.321  15.756  20.579  0.00  0.00    +0.000 C 
ATOM     18  O   UNL     1      -2.911  16.820  20.703  0.00  0.00    +0.000 OA
BRANCH  17  19
ATOM     19  O   UNL     1      -1.420  15.621  19.584  0.00  0.00    +0.000 OA
ATOM     20  H   UNL     1      -0.976  14.779  19.411  0.00  0.00    +0.000 HD
ENDBRANCH  17  19
ENDBRANCH  15  17
ENDBRANCH  12  13
ENDBRANCH   3  12
BRANCH   8  21
ATOM     21  O   UNL     1       3.653   6.314  17.994  0.00  0.00    +0.000 OA
BRANCH  21  22
ATOM     22  C   UNL     1       3.375   5.129  17.332  0.00  0.00    +0.000 C 
BRANCH  22  23
ATOM     23  C   UNL     1       4.513   4.110  17.553  0.00  0.00    +0.000 C 
ATOM     24  C   UNL     1       5.271   3.950  16.218  0.00  0.00    +0.000 C 
ATOM     25  C   UNL     1       5.481   4.656  18.629  0.00  0.00    +0.000 C 
BRANCH  23  26
ATOM     26  C   UNL     1       3.882   2.755  17.998  0.00  0.00    +0.000 C 
BRANCH  26  27
ATOM     27  C   UNL     1       2.943   2.845  19.174  0.00  0.00    +0.000 A 
ATOM     28  C   UNL     1       1.573   3.082  18.970  0.00  0.00    +0.000 A 
ATOM     29  C   UNL     1       0.697   3.143  20.057  0.00  0.00    +0.000 A 
ATOM     30  C   UNL     1       1.180   2.961  21.355  0.00  0.00    +0.000 A 
ATOM     31  C   UNL     1       2.542   2.716  21.570  0.00  0.00    +0.000 A 
ATOM     32  C   UNL     1       3.420   2.658  20.482  0.00  0.00    +0.000 A 
ENDBRANCH  26  27
ENDBRANCH  23  26
ENDBRANCH  22  23
ENDBRANCH  21  22
ENDBRANCH   8  21
TORSDOF 9
ENDMDL
MODEL 8
REMARK VINA RESULT:      -8.2      1.260      2.827
REMARK  Name = 
REMARK  12 active torsions:
REMARK  status: ('A' for Active; 'I' for Inactive)
REMARK    1  A    between atoms: C_1  and  C_2
REMARK    2  A    between atoms: C_3  and  C_4
REMARK    3  A    between atoms: C_4  and  N_5
REMARK    4  A    between atoms: C_7  and  C_8
REMARK    5  A    between atoms: C_8  and  O_10
REMARK    6  A    between atoms: C_16  and  O_17
REMARK    7  A    between atoms: O_17  and  C_18
REMARK    8  A    between atoms: C_18  and  C_19
REMARK    9  A    between atoms: C_19  and  C_20
REMARK   10  A    between atoms: C_19  and  C_21
REMARK   11  A    between atoms: C_19  and  C_22
REMARK   12  A    between atoms: C_22  and  C_23
REMARK                            x       y       z     vdW  Elec       q    Type
REMARK                         _______ _______ _______ _____ _____    ______ ____
ROOT
ATOM      1  C   UNL     1       0.078  12.721  19.999  0.00  0.00    +0.000 C 
ATOM      2  C   UNL     1       0.035  11.501  20.911  0.00  0.00    +0.000 C 
ATOM      3  C   UNL     1      -0.578  11.524  22.136  0.00  0.00    +0.000 C 
ATOM      4  C   UNL     1      -0.664  10.249  22.962  0.00  0.00    +0.000 C 
ATOM      5  C   UNL     1       0.456   9.239  22.707  0.00  0.00    +0.000 C 
ATOM      6  C   UNL     1       0.832   9.132  21.262  0.00  0.00    +0.000 A 
ATOM      7  C   UNL     1       1.441   7.960  20.790  0.00  0.00    +0.000 A 
ATOM      8  C   UNL     1       1.878   7.865  19.466  0.00  0.00    +0.000 A 
ATOM      9  C   UNL     1       1.714   8.966  18.612  0.00  0.00    +0.000 A 
ATOM     10  C   UNL     1       1.128  10.137  19.077  0.00  0.00    +0.000 A 
ATOM     11  C   UNL     1       0.672  10.240  20.408  0.00  0.00    +0.000 A 
ENDROOT
BRANCH   3  12
ATOM     12  C   UNL     1      -1.311  12.777  22.615  0.00  0.00    +0.000 C 
BRANCH  12  13
ATOM     13  N   UNL     1      -2.782  12.697  22.504  0.00  0.00    +0.000 NA
ATOM     14  C   UNL     1      -3.435  13.960  22.892  0.00  0.00    +0.000 C 
ATOM     15  C   UNL     1      -4.317  13.943  21.655  0.00  0.00    +0.000 C 
ATOM     16  C   UNL     1      -3.343  12.880  21.154  0.00  0.00    +0.000 C 
BRANCH  15  17
ATOM     17  C   UNL     1      -5.687  13.378  21.985  0.00  0.00    +0.000 C 
ATOM     18  O   UNL     1      -6.648  14.118  22.139  0.00  0.00    +0.000 OA
BRANCH  17  19
ATOM     19  O   UNL     1      -5.868  12.045  22.079  0.00  0.00    +0.000 OA
ATOM     20  H   UNL     1      -6.741  11.641  21.979  0.00  0.00    +0.000 HD
ENDBRANCH  17  19
ENDBRANCH  15  17
ENDBRANCH  12  13
ENDBRANCH   3  12
BRANCH   8  21
ATOM     21  O   UNL     1       2.441   6.699  19.060  0.00  0.00    +0.000 OA
BRANCH  21  22
ATOM     22  C   UNL     1       2.761   5.603  19.846  0.00  0.00    +0.000 C 
BRANCH  22  23
ATOM     23  C   UNL     1       2.274   4.301  19.176  0.00  0.00    +0.000 C 
ATOM     24  C   UNL     1       1.170   3.695  20.067  0.00  0.00    +0.000 C 
ATOM     25  C   UNL     1       1.684   4.635  17.786  0.00  0.00    +0.000 C 
BRANCH  23  26
ATOM     26  C   UNL     1       3.486   3.327  19.054  0.00  0.00    +0.000 C 
BRANCH  26  27
ATOM     27  C   UNL     1       4.637   3.842  18.228  0.00  0.00    +0.000 A 
ATOM     28  C   UNL     1       5.732   4.467  18.850  0.00  0.00    +0.000 A 
ATOM     29  C   UNL     1       6.810   4.924  18.088  0.00  0.00    +0.000 A 
ATOM     30  C   UNL     1       6.809   4.755  16.702  0.00  0.00    +0.000 A 
ATOM     31  C   UNL     1       5.727   4.127  16.073  0.00  0.00    +0.000 A 
ATOM     32  C   UNL     1       4.645   3.672  16.834  0.00  0.00    +0.000 A 
ENDBRANCH  26  27
ENDBRANCH  23  26
ENDBRANCH  22  23
ENDBRANCH  21  22
ENDBRANCH   8  21
TORSDOF 9
ENDMDL
MODEL 9
REMARK VINA RESULT:      -8.2      3.624      9.929
REMARK  Name = 
REMARK  12 active torsions:
REMARK  status: ('A' for Active; 'I' for Inactive)
REMARK    1  A    between atoms: C_1  and  C_2
REMARK    2  A    between atoms: C_3  and  C_4
REMARK    3  A    between atoms: C_4  and  N_5
REMARK    4  A    between atoms: C_7  and  C_8
REMARK    5  A    between atoms: C_8  and  O_10
REMARK    6  A    between atoms: C_16  and  O_17
REMARK    7  A    between atoms: O_17  and  C_18
REMARK    8  A    between atoms: C_18  and  C_19
REMARK    9  A    between atoms: C_19  and  C_20
REMARK   10  A    between atoms: C_19  and  C_21
REMARK   11  A    between atoms: C_19  and  C_22
REMARK   12  A    between atoms: C_22  and  C_23
REMARK                            x       y       z     vdW  Elec       q    Type
REMARK                         _______ _______ _______ _____ _____    ______ ____
ROOT
ATOM      1  C   UNL     1       2.146   5.506  20.931  0.00  0.00    +0.000 C 
ATOM      2  C   UNL     1       2.103   6.509  19.785  0.00  0.00    +0.000 C 
ATOM      3  C   UNL     1       2.445   6.170  18.502  0.00  0.00    +0.000 C 
ATOM      4  C   UNL     1       2.298   7.195  17.386  0.00  0.00    +0.000 C 
ATOM      5  C   UNL     1       2.417   8.654  17.830  0.00  0.00    +0.000 C 
ATOM      6  C   UNL     1       1.749   8.924  19.142  0.00  0.00    +0.000 A 
ATOM      7  C   UNL     1       1.329  10.227  19.449  0.00  0.00    +0.000 A 
ATOM      8  C   UNL     1       0.780  10.525  20.700  0.00  0.00    +0.000 A 
ATOM      9  C   UNL     1       0.667   9.504  21.657  0.00  0.00    +0.000 A 
ATOM     10  C   UNL     1       1.098   8.216  21.366  0.00  0.00    +0.000 A 
ATOM     11  C   UNL     1       1.642   7.901  20.103  0.00  0.00    +0.000 A 
ENDROOT
BRANCH   3  12
ATOM     12  C   UNL     1       2.826   4.732  18.154  0.00  0.00    +0.000 C 
BRANCH  12  13
ATOM     13  N   UNL     1       4.277   4.517  17.979  0.00  0.00    +0.000 NA
ATOM     14  C   UNL     1       4.663   4.483  16.557  0.00  0.00    +0.000 C 
ATOM     15  C   UNL     1       5.823   5.435  16.797  0.00  0.00    +0.000 C 
ATOM     16  C   UNL     1       5.134   5.705  18.132  0.00  0.00    +0.000 C 
BRANCH  15  17
ATOM     17  C   UNL     1       7.122   4.664  16.951  0.00  0.00    +0.000 C 
ATOM     18  O   UNL     1       7.874   4.509  15.999  0.00  0.00    +0.000 OA
BRANCH  17  19
ATOM     19  O   UNL     1       7.480   4.167  18.153  0.00  0.00    +0.000 OA
ATOM     20  H   UNL     1       8.180   4.571  18.683  0.00  0.00    +0.000 HD
ENDBRANCH  17  19
ENDBRANCH  15  17
ENDBRANCH  12  13
ENDBRANCH   3  12
BRANCH   8  21
ATOM     21  O   UNL     1       0.372  11.797  20.933  0.00  0.00    +0.000 OA
BRANCH  21  22
ATOM     22  C   UNL     1      -0.900  12.219  21.287  0.00  0.00    +0.000 C 
BRANCH  22  23
ATOM     23  C   UNL     1      -1.788  12.359  20.033  0.00  0.00    +0.000 C 
ATOM     24  C   UNL     1      -2.995  13.247  20.404  0.00  0.00    +0.000 C 
ATOM     25  C   UNL     1      -0.975  13.044  18.909  0.00  0.00    +0.000 C 
BRANCH  23  26
ATOM     26  C   UNL     1      -2.260  10.936  19.601  0.00  0.00    +0.000 C 
BRANCH  26  27
ATOM     27  C   UNL     1      -2.742  10.831  18.177  0.00  0.00    +0.000 A 
ATOM     28  C   UNL     1      -3.946  11.445  17.789  0.00  0.00    +0.000 A 
ATOM     29  C   UNL     1      -4.383  11.368  16.464  0.00  0.00    +0.000 A 
ATOM     30  C   UNL     1      -3.621  10.685  15.514  0.00  0.00    +0.000 A 
ATOM     31  C   UNL     1      -2.416  10.076  15.887  0.00  0.00    +0.000 A 
ATOM     32  C   UNL     1      -1.979  10.150  17.214  0.00  0.00    +0.000 A 
ENDBRANCH  26  27
ENDBRANCH  23  26
ENDBRANCH  22  23
ENDBRANCH  21  22
ENDBRANCH   8  21
TORSDOF 9
ENDMDL
