MODEL 1
REMARK VINA RESULT:      -8.8      0.000      0.000
REMARK  Name = 
REMARK  1 active torsions:
REMARK  status: ('A' for Active; 'I' for Inactive)
REMARK    1  A    between atoms: C_9  and  C_10
REMARK                            x       y       z     vdW  Elec       q    Type
REMARK                         _______ _______ _______ _____ _____    ______ ____
ROOT
ATOM      1  O   UNL     1       8.626   5.828  13.433  0.00  0.00    +0.000 OA
ATOM      2  C   UNL     1       7.680   5.072  13.311  0.00  0.00    +0.000 A 
ATOM      3  N   UNL     1       7.413   4.327  12.139  0.00  0.00    +0.000 N 
ATOM      4  C   UNL     1       6.297   3.562  12.313  0.00  0.00    +0.000 A 
ATOM      5  C   UNL     1       5.826   3.774  13.547  0.00  0.00    +0.000 A 
ATOM      6  N   UNL     1       6.632   4.693  14.206  0.00  0.00    +0.000 N 
ATOM      7  C   UNL     1       6.517   5.183  15.529  0.00  0.00    +0.000 A 
ATOM      8  C   UNL     1       5.538   4.677  16.364  0.00  0.00    +0.000 A 
ATOM      9  C   UNL     1       5.503   5.124  17.674  0.00  0.00    +0.000 A 
ATOM     10  N   UNL     1       6.345   6.075  18.119  0.00  0.00    +0.000 NA
ATOM     11  C   UNL     1       7.245   6.526  17.235  0.00  0.00    +0.000 A 
ATOM     12  N   UNL     1       7.377   6.116  15.969  0.00  0.00    +0.000 NA
ATOM     13  H   UNL     1       7.997   4.382  11.318  0.00  0.00    +0.000 HD
ENDROOT
BRANCH   9  14
ATOM     14  C   UNL     1       4.580   4.549  18.674  0.00  0.00    +0.000 A 
ATOM     15  C   UNL     1       4.665   3.200  19.057  0.00  0.00    +0.000 A 
ATOM     16  C   UNL     1       3.772   2.650  19.985  0.00  0.00    +0.000 A 
ATOM     17  C   UNL     1       2.771   3.440  20.553  0.00  0.00    +0.000 A 
ATOM     18 CL   UNL     1       1.693   2.699  21.679  0.00  0.00    +0.000 Cl
ATOM     19  C   UNL     1       2.667   4.784  20.190  0.00  0.00    +0.000 A 
ATOM     20 CL   UNL     1       1.459   5.835  20.842  0.00  0.00    +0.000 Cl
ATOM     21  C   UNL     1       3.561   5.326  19.260  0.00  0.00    +0.000 A 
ENDBRANCH   9  14
TORSDOF 1
ENDMDL
MODEL 2
REMARK VINA RESULT:      -8.2      0.948      1.535
REMARK  Name = 
REMARK  1 active torsions:
REMARK  status: ('A' for Active; 'I' for Inactive)
REMARK    1  A    between atoms: C_9  and  C_10
REMARK                            x       y       z     vdW  Elec       q    Type
REMARK                         _______ _______ _______ _____ _____    ______ ____
ROOT
ATOM      1  O   UNL     1       8.599   5.775  13.493  0.00  0.00    +0.000 OA
ATOM      2  C   UNL     1       7.651   5.032  13.313  0.00  0.00    +0.000 A 
ATOM      3  N   UNL     1       7.462   4.268  12.138  0.00  0.00    +0.000 N 
ATOM      4  C   UNL     1       6.322   3.526  12.240  0.00  0.00    +0.000 A 
ATOM      5  C   UNL     1       5.759   3.774  13.428  0.00  0.00    +0.000 A 
ATOM      6  N   UNL     1       6.529   4.692  14.130  0.00  0.00    +0.000 N 
ATOM      7  C   UNL     1       6.320   5.213  15.430  0.00  0.00    +0.000 A 
ATOM      8  C   UNL     1       5.269   4.742  16.195  0.00  0.00    +0.000 A 
ATOM      9  C   UNL     1       5.140   5.218  17.488  0.00  0.00    +0.000 A 
ATOM     10  N   UNL     1       5.963   6.163  17.979  0.00  0.00    +0.000 NA
ATOM     11  C   UNL     1       6.939   6.578  17.160  0.00  0.00    +0.000 A 
ATOM     12  N   UNL     1       7.161   6.139  15.917  0.00  0.00    +0.000 NA
ATOM     13  H   UNL     1       8.110   4.294  11.366  0.00  0.00    +0.000 HD
ENDROOT
BRANCH   9  14
ATOM     14  C   UNL     1       4.131   4.682  18.424  0.00  0.00    +0.000 A 
ATOM     15  C   UNL     1       3.815   5.347  19.620  0.00  0.00    +0.000 A 
ATOM     16  C   UNL     1       2.877   4.823  20.519  0.00  0.00    +0.000 A 
ATOM     17  C   UNL     1       2.233   3.616  20.240  0.00  0.00    +0.000 A 
ATOM     18 CL   UNL     1       1.099   3.016  21.394  0.00  0.00    +0.000 Cl
ATOM     19  C   UNL     1       2.528   2.936  19.057  0.00  0.00    +0.000 A 
ATOM     20 CL   UNL     1       1.779   1.438  18.631  0.00  0.00    +0.000 Cl
ATOM     21  C   UNL     1       3.468   3.465  18.165  0.00  0.00    +0.000 A 
ENDBRANCH   9  14
TORSDOF 1
ENDMDL
MODEL 3
REMARK VINA RESULT:      -8.2      0.835      1.571
REMARK  Name = 
REMARK  1 active torsions:
REMARK  status: ('A' for Active; 'I' for Inactive)
REMARK    1  A    between atoms: C_9  and  C_10
REMARK                            x       y       z     vdW  Elec       q    Type
REMARK                         _______ _______ _______ _____ _____    ______ ____
ROOT
ATOM      1  O   UNL     1       8.597   5.833  13.414  0.00  0.00    +0.000 OA
ATOM      2  C   UNL     1       7.675   5.057  13.234  0.00  0.00    +0.000 A 
ATOM      3  N   UNL     1       7.498   4.307  12.049  0.00  0.00    +0.000 N 
ATOM      4  C   UNL     1       6.389   3.520  12.154  0.00  0.00    +0.000 A 
ATOM      5  C   UNL     1       5.837   3.723  13.355  0.00  0.00    +0.000 A 
ATOM      6  N   UNL     1       6.581   4.658  14.062  0.00  0.00    +0.000 N 
ATOM      7  C   UNL     1       6.373   5.146  15.375  0.00  0.00    +0.000 A 
ATOM      8  C   UNL     1       5.354   4.621  16.147  0.00  0.00    +0.000 A 
ATOM      9  C   UNL     1       5.227   5.068  17.451  0.00  0.00    +0.000 A 
ATOM     10  N   UNL     1       6.020   6.035  17.947  0.00  0.00    +0.000 NA
ATOM     11  C   UNL     1       6.965   6.504  17.121  0.00  0.00    +0.000 A 
ATOM     12  N   UNL     1       7.184   6.096  15.867  0.00  0.00    +0.000 NA
ATOM     13  H   UNL     1       8.132   4.373  11.267  0.00  0.00    +0.000 HD
ENDROOT
BRANCH   9  14
ATOM     14  C   UNL     1       4.255   4.474  18.392  0.00  0.00    +0.000 A 
ATOM     15  C   UNL     1       2.926   4.927  18.454  0.00  0.00    +0.000 A 
ATOM     16  C   UNL     1       2.013   4.381  19.365  0.00  0.00    +0.000 A 
ATOM     17  C   UNL     1       2.411   3.368  20.239  0.00  0.00    +0.000 A 
ATOM     18 CL   UNL     1       1.243   2.748  21.347  0.00  0.00    +0.000 Cl
ATOM     19  C   UNL     1       3.725   2.899  20.196  0.00  0.00    +0.000 A 
ATOM     20 CL   UNL     1       4.304   1.648  21.239  0.00  0.00    +0.000 Cl
ATOM     21  C   UNL     1       4.633   3.451  19.284  0.00  0.00    +0.000 A 
ENDBRANCH   9  14
TORSDOF 1
ENDMDL
MODEL 4
REMARK VINA RESULT:      -7.7      4.628      7.094
REMARK  Name = 
REMARK  1 active torsions:
REMARK  status: ('A' for Active; 'I' for Inactive)
REMARK    1  A    between atoms: C_9  and  C_10
REMARK                            x       y       z     vdW  Elec       q    Type
REMARK                         _______ _______ _______ _____ _____    ______ ____
ROOT
ATOM      1  O   UNL     1       2.257   4.334  21.351  0.00  0.00    +0.000 OA
ATOM      2  C   UNL     1       1.890   3.720  20.365  0.00  0.00    +0.000 A 
ATOM      3  N   UNL     1       0.653   3.042  20.274  0.00  0.00    +0.000 N 
ATOM      4  C   UNL     1       0.524   2.466  19.044  0.00  0.00    +0.000 A 
ATOM      5  C   UNL     1       1.621   2.738  18.330  0.00  0.00    +0.000 A 
ATOM      6  N   UNL     1       2.497   3.503  19.089  0.00  0.00    +0.000 N 
ATOM      7  C   UNL     1       3.757   4.034  18.721  0.00  0.00    +0.000 A 
ATOM      8  C   UNL     1       4.217   3.870  17.427  0.00  0.00    +0.000 A 
ATOM      9  C   UNL     1       5.418   4.466  17.082  0.00  0.00    +0.000 A 
ATOM     10  N   UNL     1       6.162   5.130  17.984  0.00  0.00    +0.000 NA
ATOM     11  C   UNL     1       5.651   5.219  19.219  0.00  0.00    +0.000 A 
ATOM     12  N   UNL     1       4.481   4.713  19.623  0.00  0.00    +0.000 NA
ATOM     13  H   UNL     1      -0.010   3.022  21.033  0.00  0.00    +0.000 HD
ENDROOT
BRANCH   9  14
ATOM     14  C   UNL     1       5.927   4.458  15.695  0.00  0.00    +0.000 A 
ATOM     15  C   UNL     1       7.177   5.009  15.371  0.00  0.00    +0.000 A 
ATOM     16  C   UNL     1       7.646   5.024  14.052  0.00  0.00    +0.000 A 
ATOM     17  C   UNL     1       6.870   4.487  13.022  0.00  0.00    +0.000 A 
ATOM     18 CL   UNL     1       7.498   4.550  11.416  0.00  0.00    +0.000 Cl
ATOM     19  C   UNL     1       5.624   3.932  13.318  0.00  0.00    +0.000 A 
ATOM     20 CL   UNL     1       4.598   3.246  12.109  0.00  0.00    +0.000 Cl
ATOM     21  C   UNL     1       5.161   3.923  14.639  0.00  0.00    +0.000 A 
ENDBRANCH   9  14
TORSDOF 1
ENDMDL
MODEL 5
REMARK VINA RESULT:      -7.5      1.202      1.214
REMARK  Name = 
REMARK  1 active torsions:
REMARK  status: ('A' for Active; 'I' for Inactive)
REMARK    1  A    between atoms: C_9  and  C_10
REMARK                            x       y       z     vdW  Elec       q    Type
REMARK                         _______ _______ _______ _____ _____    ______ ____
ROOT
ATOM      1  O   UNL     1       8.683   5.747  13.406  0.00  0.00    +0.000 OA
ATOM      2  C   UNL     1       7.769   5.001  13.103  0.00  0.00    +0.000 A 
ATOM      3  N   UNL     1       7.710   4.283  11.887  0.00  0.00    +0.000 N 
ATOM      4  C   UNL     1       6.577   3.523  11.846  0.00  0.00    +0.000 A 
ATOM      5  C   UNL     1       5.897   3.714  12.982  0.00  0.00    +0.000 A 
ATOM      6  N   UNL     1       6.578   4.613  13.792  0.00  0.00    +0.000 N 
ATOM      7  C   UNL     1       6.235   5.077  15.084  0.00  0.00    +0.000 A 
ATOM      8  C   UNL     1       5.121   4.562  15.723  0.00  0.00    +0.000 A 
ATOM      9  C   UNL     1       4.858   4.983  17.015  0.00  0.00    +0.000 A 
ATOM     10  N   UNL     1       5.613   5.918  17.621  0.00  0.00    +0.000 NA
ATOM     11  C   UNL     1       6.657   6.379  16.920  0.00  0.00    +0.000 A 
ATOM     12  N   UNL     1       7.007   5.993  15.688  0.00  0.00    +0.000 NA
ATOM     13  H   UNL     1       8.430   4.349  11.184  0.00  0.00    +0.000 HD
ENDROOT
BRANCH   9  14
ATOM     14  C   UNL     1       3.771   4.396  17.825  0.00  0.00    +0.000 A 
ATOM     15  C   UNL     1       2.878   3.459  17.280  0.00  0.00    +0.000 A 
ATOM     16  C   UNL     1       1.832   2.923  18.041  0.00  0.00    +0.000 A 
ATOM     17  C   UNL     1       1.655   3.315  19.370  0.00  0.00    +0.000 A 
ATOM     18 CL   UNL     1       0.338   2.629  20.250  0.00  0.00    +0.000 Cl
ATOM     19  C   UNL     1       2.531   4.243  19.935  0.00  0.00    +0.000 A 
ATOM     20 CL   UNL     1       2.387   4.785  21.570  0.00  0.00    +0.000 Cl
ATOM     21  C   UNL     1       3.572   4.776  19.167  0.00  0.00    +0.000 A 
ENDBRANCH   9  14
TORSDOF 1
ENDMDL
MODEL 6
REMARK VINA RESULT:      -7.5      4.501      6.351
REMARK  Name = 
REMARK  1 active torsions:
REMARK  status: ('A' for Active; 'I' for Inactive)
REMARK    1  A    between atoms: C_9  and  C_10
REMARK                            x       y       z     vdW  Elec       q    Type
REMARK                         _______ _______ _______ _____ _____    ______ ____
ROOT
ATOM      1  O   UNL     1       5.243   4.016  17.511  0.00  0.00    +0.000 OA
ATOM      2  C   UNL     1       4.597   3.752  18.509  0.00  0.00    +0.000 A 
ATOM      3  N   UNL     1       4.703   2.532  19.216  0.00  0.00    +0.000 N 
ATOM      4  C   UNL     1       3.867   2.541  20.294  0.00  0.00    +0.000 A 
ATOM      5  C   UNL     1       3.221   3.712  20.321  0.00  0.00    +0.000 A 
ATOM      6  N   UNL     1       3.626   4.496  19.249  0.00  0.00    +0.000 N 
ATOM      7  C   UNL     1       3.221   5.809  18.909  0.00  0.00    +0.000 A 
ATOM      8  C   UNL     1       2.361   6.498  19.745  0.00  0.00    +0.000 A 
ATOM      9  C   UNL     1       2.046   7.807  19.421  0.00  0.00    +0.000 A 
ATOM     10  N   UNL     1       2.499   8.384  18.293  0.00  0.00    +0.000 NA
ATOM     11  C   UNL     1       3.307   7.636  17.531  0.00  0.00    +0.000 A 
ATOM     12  N   UNL     1       3.696   6.384  17.793  0.00  0.00    +0.000 NA
ATOM     13  H   UNL     1       5.328   1.794  18.931  0.00  0.00    +0.000 HD
ENDROOT
BRANCH   9  14
ATOM     14  C   UNL     1       1.243   8.664  20.317  0.00  0.00    +0.000 A 
ATOM     15  C   UNL     1       1.266   8.491  21.710  0.00  0.00    +0.000 A 
ATOM     16  C   UNL     1       0.484   9.287  22.556  0.00  0.00    +0.000 A 
ATOM     17  C   UNL     1      -0.344  10.278  22.023  0.00  0.00    +0.000 A 
ATOM     18 CL   UNL     1      -1.294  11.215  23.117  0.00  0.00    +0.000 Cl
ATOM     19  C   UNL     1      -0.383  10.471  20.642  0.00  0.00    +0.000 A 
ATOM     20 CL   UNL     1      -1.377  11.673  19.897  0.00  0.00    +0.000 Cl
ATOM     21  C   UNL     1       0.400   9.670  19.803  0.00  0.00    +0.000 A 
ENDBRANCH   9  14
TORSDOF 1
ENDMDL
MODEL 7
REMARK VINA RESULT:      -7.4      5.536      8.176
REMARK  Name = 
REMARK  1 active torsions:
REMARK  status: ('A' for Active; 'I' for Inactive)
REMARK    1  A    between atoms: C_9  and  C_10
REMARK                            x       y       z     vdW  Elec       q    Type
REMARK                         _______ _______ _______ _____ _____    ______ ____
ROOT
ATOM      1  O   UNL     1      -0.571  11.986  20.120  0.00  0.00    +0.000 OA
ATOM      2  C   UNL     1      -0.482  11.207  21.052  0.00  0.00    +0.000 A 
ATOM      3  N   UNL     1      -1.129  11.390  22.296  0.00  0.00    +0.000 N 
ATOM      4  C   UNL     1      -0.851  10.345  23.128  0.00  0.00    +0.000 A 
ATOM      5  C   UNL     1      -0.052   9.489  22.481  0.00  0.00    +0.000 A 
ATOM      6  N   UNL     1       0.211   9.966  21.203  0.00  0.00    +0.000 N 
ATOM      7  C   UNL     1       0.982   9.370  20.177  0.00  0.00    +0.000 A 
ATOM      8  C   UNL     1       1.525   8.113  20.371  0.00  0.00    +0.000 A 
ATOM      9  C   UNL     1       2.210   7.530  19.319  0.00  0.00    +0.000 A 
ATOM     10  N   UNL     1       2.412   8.181  18.159  0.00  0.00    +0.000 NA
ATOM     11  C   UNL     1       1.872   9.403  18.068  0.00  0.00    +0.000 A 
ATOM     12  N   UNL     1       1.159  10.020  19.016  0.00  0.00    +0.000 NA
ATOM     13  H   UNL     1      -1.710  12.192  22.491  0.00  0.00    +0.000 HD
ENDROOT
BRANCH   9  14
ATOM     14  C   UNL     1       2.712   6.142  19.384  0.00  0.00    +0.000 A 
ATOM     15  C   UNL     1       3.638   5.654  18.448  0.00  0.00    +0.000 A 
ATOM     16  C   UNL     1       4.092   4.330  18.496  0.00  0.00    +0.000 A 
ATOM     17  C   UNL     1       3.627   3.461  19.485  0.00  0.00    +0.000 A 
ATOM     18 CL   UNL     1       4.214   1.838  19.480  0.00  0.00    +0.000 Cl
ATOM     19  C   UNL     1       2.708   3.922  20.428  0.00  0.00    +0.000 A 
ATOM     20 CL   UNL     1       2.079   2.918  21.686  0.00  0.00    +0.000 Cl
ATOM     21  C   UNL     1       2.257   5.246  20.373  0.00  0.00    +0.000 A 
ENDBRANCH   9  14
TORSDOF 1
ENDMDL
MODEL 8
REMARK VINA RESULT:      -7.2      4.212      6.324
REMARK  Name = 
REMARK  1 active torsions:
REMARK  status: ('A' for Active; 'I' for Inactive)
REMARK    1  A    between atoms: C_9  and  C_10
REMARK                            x       y       z     vdW  Elec       q    Type
REMARK                         _______ _______ _______ _____ _____    ______ ____
ROOT
ATOM      1  O   UNL     1       5.559   4.011  17.746  0.00  0.00    +0.000 OA
ATOM      2  C   UNL     1       4.775   3.796  18.653  0.00  0.00    +0.000 A 
ATOM      3  N   UNL     1       4.765   2.608  19.420  0.00  0.00    +0.000 N 
ATOM      4  C   UNL     1       3.786   2.670  20.367  0.00  0.00    +0.000 A 
ATOM      5  C   UNL     1       3.157   3.846  20.252  0.00  0.00    +0.000 A 
ATOM      6  N   UNL     1       3.719   4.579  19.215  0.00  0.00    +0.000 N 
ATOM      7  C   UNL     1       3.383   5.878  18.766  0.00  0.00    +0.000 A 
ATOM      8  C   UNL     1       2.423   6.609  19.441  0.00  0.00    +0.000 A 
ATOM      9  C   UNL     1       2.174   7.904  19.020  0.00  0.00    +0.000 A 
ATOM     10  N   UNL     1       2.788   8.428  17.944  0.00  0.00    +0.000 NA
ATOM     11  C   UNL     1       3.686   7.641  17.336  0.00  0.00    +0.000 A 
ATOM     12  N   UNL     1       4.018   6.399  17.704  0.00  0.00    +0.000 NA
ATOM     13  H   UNL     1       5.415   1.854  19.257  0.00  0.00    +0.000 HD
ENDROOT
BRANCH   9  14
ATOM     14  C   UNL     1       1.263   8.806  19.756  0.00  0.00    +0.000 A 
ATOM     15  C   UNL     1       0.536   9.809  19.095  0.00  0.00    +0.000 A 
ATOM     16  C   UNL     1      -0.306  10.680  19.797  0.00  0.00    +0.000 A 
ATOM     17  C   UNL     1      -0.439  10.566  21.183  0.00  0.00    +0.000 A 
ATOM     18 CL   UNL     1      -1.480  11.679  21.992  0.00  0.00    +0.000 Cl
ATOM     19  C   UNL     1       0.273   9.576  21.863  0.00  0.00    +0.000 A 
ATOM     20 CL   UNL     1       0.169   9.363  23.575  0.00  0.00    +0.000 Cl
ATOM     21  C   UNL     1       1.114   8.711  21.154  0.00  0.00    +0.000 A 
ENDBRANCH   9  14
TORSDOF 1
ENDMDL
MODEL 9
REMARK VINA RESULT:      -7.2      5.786      8.373
REMARK  Name = 
REMARK  1 active torsions:
REMARK  status: ('A' for Active; 'I' for Inactive)
REMARK    1  A    between atoms: C_9  and  C_10
REMARK                            x       y       z     vdW  Elec       q    Type
REMARK                         _______ _______ _______ _____ _____    ______ ____
ROOT
ATOM      1  O   UNL     1      -0.861  11.994  20.081  0.00  0.00    +0.000 OA
ATOM      2  C   UNL     1      -0.711  11.266  21.046  0.00  0.00    +0.000 A 
ATOM      3  N   UNL     1      -1.332  11.479  22.298  0.00  0.00    +0.000 N 
ATOM      4  C   UNL     1      -0.984  10.489  23.169  0.00  0.00    +0.000 A 
ATOM      5  C   UNL     1      -0.163   9.640  22.541  0.00  0.00    +0.000 A 
ATOM      6  N   UNL     1       0.043  10.066  21.235  0.00  0.00    +0.000 N 
ATOM      7  C   UNL     1       0.815   9.457  20.217  0.00  0.00    +0.000 A 
ATOM      8  C   UNL     1       1.421   8.237  20.454  0.00  0.00    +0.000 A 
ATOM      9  C   UNL     1       2.104   7.635  19.411  0.00  0.00    +0.000 A 
ATOM     10  N   UNL     1       2.245   8.238  18.217  0.00  0.00    +0.000 NA
ATOM     11  C   UNL     1       1.646   9.429  18.083  0.00  0.00    +0.000 A 
ATOM     12  N   UNL     1       0.930  10.057  19.021  0.00  0.00    +0.000 NA
ATOM     13  H   UNL     1      -1.944  12.262  22.471  0.00  0.00    +0.000 HD
ENDROOT
BRANCH   9  14
ATOM     14  C   UNL     1       2.672   6.276  19.527  0.00  0.00    +0.000 A 
ATOM     15  C   UNL     1       2.072   5.300  20.340  0.00  0.00    +0.000 A 
ATOM     16  C   UNL     1       2.627   4.020  20.469  0.00  0.00    +0.000 A 
ATOM     17  C   UNL     1       3.799   3.688  19.787  0.00  0.00    +0.000 A 
ATOM     18 CL   UNL     1       4.440   2.100  20.001  0.00  0.00    +0.000 Cl
ATOM     19  C   UNL     1       4.413   4.641  18.972  0.00  0.00    +0.000 A 
ATOM     20 CL   UNL     1       5.865   4.317  18.092  0.00  0.00    +0.000 Cl
ATOM     21  C   UNL     1       3.855   5.918  18.850  0.00  0.00    +0.000 A 
ENDBRANCH   9  14
TORSDOF 1
ENDMDL
