MODEL 1
REMARK VINA RESULT:      -8.4      0.000      0.000
REMARK  Name = 
REMARK  8 active torsions:
REMARK  status: ('A' for Active; 'I' for Inactive)
REMARK    1  A    between atoms: C_1  and  C_2
REMARK    2  A    between atoms: C_2  and  C_3
REMARK    3  A    between atoms: C_7  and  C_8
REMARK    4  A    between atoms: C_13  and  C_14
REMARK    5  A    between atoms: C_14  and  C_15
REMARK    6  A    between atoms: C_14  and  S_16
REMARK    7  A    between atoms: S_16  and  C_17
REMARK    8  A    between atoms: N_21  and  C_22
REMARK                            x       y       z     vdW  Elec       q    Type
REMARK                         _______ _______ _______ _____ _____    ______ ____
ROOT
ATOM      1  C   UNL     1       1.797   8.002  19.588  0.00  0.00    +0.000 C 
ATOM      2  O   UNL     1       1.809   8.192  18.372  0.00  0.00    +0.000 OA
ATOM      3  N   UNL     1       2.323   6.900  20.223  0.00  0.00    +0.000 N 
ATOM      4  C   UNL     1       2.967   5.874  19.528  0.00  0.00    +0.000 A 
ATOM      5  C   UNL     1       3.878   6.163  18.514  0.00  0.00    +0.000 A 
ATOM      6  C   UNL     1       4.460   5.120  17.782  0.00  0.00    +0.000 A 
ATOM      7  C   UNL     1       4.052   3.818  18.088  0.00  0.00    +0.000 A 
ATOM      8  C   UNL     1       3.168   3.623  19.139  0.00  0.00    +0.000 A 
ATOM      9  N   UNL     1       2.656   4.619  19.897  0.00  0.00    +0.000 NA
ATOM     10  H   UNL     1       1.930   6.656  21.124  0.00  0.00    +0.000 HD
ENDROOT
BRANCH   1  15
ATOM     11  C   UNL     1      -0.088  10.963  20.636  0.00  0.00    +0.000 A 
ATOM     12  C   UNL     1      -0.334  10.721  21.989  0.00  0.00    +0.000 A 
ATOM     13  C   UNL     1       0.186   9.576  22.577  0.00  0.00    +0.000 A 
ATOM     14  C   UNL     1       0.922   8.694  21.803  0.00  0.00    +0.000 A 
ATOM     15  C   UNL     1       1.111   8.999  20.459  0.00  0.00    +0.000 A 
ATOM     16  N   UNL     1       0.646  10.127  19.861  0.00  0.00    +0.000 NA
BRANCH  11  18
ATOM     17  C   UNL     1      -2.146  12.215  19.988  0.00  0.00    +0.000 C 
ATOM     18  C   UNL     1      -0.627  12.211  19.986  0.00  0.00    +0.000 C 
ENDBRANCH  11  18
ENDBRANCH   1  15
BRANCH   6  19
ATOM     19  C   UNL     1       5.498   5.366  16.699  0.00  0.00    +0.000 C 
ATOM     20  C   UNL     1       5.077   6.522  15.786  0.00  0.00    +0.000 C 
BRANCH  19  21
ATOM     21  S   UNL     1       5.814   3.909  15.640  0.00  0.00    +0.000 S 
BRANCH  21  22
ATOM     22  C   UNL     1       6.813   4.621  14.430  0.00  0.00    +0.000 A 
ATOM     23  N   UNL     1       7.774   5.495  14.614  0.00  0.00    +0.000 NA
ATOM     24  N   UNL     1       8.360   5.727  13.386  0.00  0.00    +0.000 NA
ATOM     25  C   UNL     1       7.732   4.979  12.503  0.00  0.00    +0.000 A 
ATOM     26  N   UNL     1       6.732   4.293  13.110  0.00  0.00    +0.000 N 
ATOM     27  C   UNL     1       5.811   3.384  12.482  0.00  0.00    +0.000 C 
ENDBRANCH  21  22
ENDBRANCH  19  21
ENDBRANCH   6  19
TORSDOF 5
ENDMDL
MODEL 2
REMARK VINA RESULT:      -8.0      2.123      3.330
REMARK  Name = 
REMARK  8 active torsions:
REMARK  status: ('A' for Active; 'I' for Inactive)
REMARK    1  A    between atoms: C_1  and  C_2
REMARK    2  A    between atoms: C_2  and  C_3
REMARK    3  A    between atoms: C_7  and  C_8
REMARK    4  A    between atoms: C_13  and  C_14
REMARK    5  A    between atoms: C_14  and  C_15
REMARK    6  A    between atoms: C_14  and  S_16
REMARK    7  A    between atoms: S_16  and  C_17
REMARK    8  A    between atoms: N_21  and  C_22
REMARK                            x       y       z     vdW  Elec       q    Type
REMARK                         _______ _______ _______ _____ _____    ______ ____
ROOT
ATOM      1  C   UNL     1       1.911   8.691  18.429  0.00  0.00    +0.000 C 
ATOM      2  O   UNL     1       2.108   8.790  17.218  0.00  0.00    +0.000 OA
ATOM      3  N   UNL     1       2.129   7.557  19.178  0.00  0.00    +0.000 N 
ATOM      4  C   UNL     1       2.637   6.382  18.622  0.00  0.00    +0.000 A 
ATOM      5  C   UNL     1       3.704   6.420  17.726  0.00  0.00    +0.000 A 
ATOM      6  C   UNL     1       4.153   5.236  17.127  0.00  0.00    +0.000 A 
ATOM      7  C   UNL     1       3.462   4.061  17.434  0.00  0.00    +0.000 A 
ATOM      8  C   UNL     1       2.437   4.111  18.367  0.00  0.00    +0.000 A 
ATOM      9  N   UNL     1       2.043   5.237  19.004  0.00  0.00    +0.000 NA
ATOM     10  H   UNL     1       1.588   7.457  20.029  0.00  0.00    +0.000 HD
ENDROOT
BRANCH   1  15
ATOM     11  C   UNL     1       0.220  10.676  21.003  0.00  0.00    +0.000 A 
ATOM     12  C   UNL     1       0.468  11.991  20.605  0.00  0.00    +0.000 A 
ATOM     13  C   UNL     1       1.166  12.221  19.426  0.00  0.00    +0.000 A 
ATOM     14  C   UNL     1       1.611  11.140  18.684  0.00  0.00    +0.000 A 
ATOM     15  C   UNL     1       1.335   9.860  19.154  0.00  0.00    +0.000 A 
ATOM     16  N   UNL     1       0.626   9.600  20.284  0.00  0.00    +0.000 NA
BRANCH  11  18
ATOM     17  C   UNL     1       0.198   9.445  23.172  0.00  0.00    +0.000 C 
ATOM     18  C   UNL     1      -0.552  10.408  22.268  0.00  0.00    +0.000 C 
ENDBRANCH  11  18
ENDBRANCH   1  15
BRANCH   6  19
ATOM     19  C   UNL     1       5.343   5.204  16.181  0.00  0.00    +0.000 C 
ATOM     20  C   UNL     1       5.105   4.221  15.031  0.00  0.00    +0.000 C 
BRANCH  19  21
ATOM     21  S   UNL     1       6.914   4.739  16.992  0.00  0.00    +0.000 S 
BRANCH  21  22
ATOM     22  C   UNL     1       7.496   6.296  17.447  0.00  0.00    +0.000 A 
ATOM     23  N   UNL     1       7.495   7.384  16.714  0.00  0.00    +0.000 NA
ATOM     24  N   UNL     1       7.975   8.411  17.501  0.00  0.00    +0.000 NA
ATOM     25  C   UNL     1       8.246   7.906  18.686  0.00  0.00    +0.000 A 
ATOM     26  N   UNL     1       7.991   6.573  18.686  0.00  0.00    +0.000 N 
ATOM     27  C   UNL     1       8.174   5.665  19.786  0.00  0.00    +0.000 C 
ENDBRANCH  21  22
ENDBRANCH  19  21
ENDBRANCH   6  19
TORSDOF 5
ENDMDL
MODEL 3
REMARK VINA RESULT:      -7.9      1.954      2.892
REMARK  Name = 
REMARK  8 active torsions:
REMARK  status: ('A' for Active; 'I' for Inactive)
REMARK    1  A    between atoms: C_1  and  C_2
REMARK    2  A    between atoms: C_2  and  C_3
REMARK    3  A    between atoms: C_7  and  C_8
REMARK    4  A    between atoms: C_13  and  C_14
REMARK    5  A    between atoms: C_14  and  C_15
REMARK    6  A    between atoms: C_14  and  S_16
REMARK    7  A    between atoms: S_16  and  C_17
REMARK    8  A    between atoms: N_21  and  C_22
REMARK                            x       y       z     vdW  Elec       q    Type
REMARK                         _______ _______ _______ _____ _____    ______ ____
ROOT
ATOM      1  C   UNL     1       1.981   7.866  19.128  0.00  0.00    +0.000 C 
ATOM      2  O   UNL     1       2.237   8.270  17.994  0.00  0.00    +0.000 OA
ATOM      3  N   UNL     1       2.130   6.568  19.559  0.00  0.00    +0.000 N 
ATOM      4  C   UNL     1       2.630   5.559  18.734  0.00  0.00    +0.000 A 
ATOM      5  C   UNL     1       3.739   5.788  17.921  0.00  0.00    +0.000 A 
ATOM      6  C   UNL     1       4.182   4.785  17.049  0.00  0.00    +0.000 A 
ATOM      7  C   UNL     1       3.445   3.599  17.010  0.00  0.00    +0.000 A 
ATOM      8  C   UNL     1       2.378   3.445  17.884  0.00  0.00    +0.000 A 
ATOM      9  N   UNL     1       1.986   4.380  18.779  0.00  0.00    +0.000 NA
ATOM     10  H   UNL     1       1.548   6.270  20.333  0.00  0.00    +0.000 HD
ENDROOT
BRANCH   1  15
ATOM     11  C   UNL     1       0.406  10.867  20.520  0.00  0.00    +0.000 A 
ATOM     12  C   UNL     1       0.149  10.507  21.843  0.00  0.00    +0.000 A 
ATOM     13  C   UNL     1       0.559   9.260  22.297  0.00  0.00    +0.000 A 
ATOM     14  C   UNL     1       1.197   8.399  21.420  0.00  0.00    +0.000 A 
ATOM     15  C   UNL     1       1.404   8.827  20.112  0.00  0.00    +0.000 A 
ATOM     16  N   UNL     1       1.048  10.051  19.646  0.00  0.00    +0.000 NA
BRANCH  11  18
ATOM     17  C   UNL     1       0.018  13.254  21.132  0.00  0.00    +0.000 C 
ATOM     18  C   UNL     1      -0.013  12.224  20.016  0.00  0.00    +0.000 C 
ENDBRANCH  11  18
ENDBRANCH   1  15
BRANCH   6  19
ATOM     19  C   UNL     1       5.414   4.954  16.174  0.00  0.00    +0.000 C 
ATOM     20  C   UNL     1       5.326   4.072  14.925  0.00  0.00    +0.000 C 
BRANCH  19  21
ATOM     21  S   UNL     1       6.981   4.554  17.027  0.00  0.00    +0.000 S 
BRANCH  21  22
ATOM     22  C   UNL     1       7.525   6.140  17.427  0.00  0.00    +0.000 A 
ATOM     23  N   UNL     1       7.550   7.187  16.638  0.00  0.00    +0.000 NA
ATOM     24  N   UNL     1       7.981   8.260  17.392  0.00  0.00    +0.000 NA
ATOM     25  C   UNL     1       8.196   7.821  18.614  0.00  0.00    +0.000 A 
ATOM     26  N   UNL     1       7.953   6.487  18.673  0.00  0.00    +0.000 N 
ATOM     27  C   UNL     1       8.089   5.641  19.827  0.00  0.00    +0.000 C 
ENDBRANCH  21  22
ENDBRANCH  19  21
ENDBRANCH   6  19
TORSDOF 5
ENDMDL
MODEL 4
REMARK VINA RESULT:      -7.9      0.900      1.066
REMARK  Name = 
REMARK  8 active torsions:
REMARK  status: ('A' for Active; 'I' for Inactive)
REMARK    1  A    between atoms: C_1  and  C_2
REMARK    2  A    between atoms: C_2  and  C_3
REMARK    3  A    between atoms: C_7  and  C_8
REMARK    4  A    between atoms: C_13  and  C_14
REMARK    5  A    between atoms: C_14  and  C_15
REMARK    6  A    between atoms: C_14  and  S_16
REMARK    7  A    between atoms: S_16  and  C_17
REMARK    8  A    between atoms: N_21  and  C_22
REMARK                            x       y       z     vdW  Elec       q    Type
REMARK                         _______ _______ _______ _____ _____    ______ ____
ROOT
ATOM      1  C   UNL     1       1.472   8.333  20.059  0.00  0.00    +0.000 C 
ATOM      2  O   UNL     1       1.538   8.552  18.850  0.00  0.00    +0.000 OA
ATOM      3  N   UNL     1       1.874   7.172  20.677  0.00  0.00    +0.000 N 
ATOM      4  C   UNL     1       2.440   6.108  19.972  0.00  0.00    +0.000 A 
ATOM      5  C   UNL     1       3.405   6.335  18.992  0.00  0.00    +0.000 A 
ATOM      6  C   UNL     1       3.909   5.261  18.248  0.00  0.00    +0.000 A 
ATOM      7  C   UNL     1       3.373   3.996  18.506  0.00  0.00    +0.000 A 
ATOM      8  C   UNL     1       2.444   3.858  19.527  0.00  0.00    +0.000 A 
ATOM      9  N   UNL     1       2.004   4.878  20.298  0.00  0.00    +0.000 NA
ATOM     10  H   UNL     1       1.433   6.943  21.560  0.00  0.00    +0.000 HD
ENDROOT
BRANCH   1  15
ATOM     11  C   UNL     1       0.124  11.541  21.207  0.00  0.00    +0.000 A 
ATOM     12  C   UNL     1      -0.462  11.219  22.432  0.00  0.00    +0.000 A 
ATOM     13  C   UNL     1      -0.357   9.920  22.913  0.00  0.00    +0.000 A 
ATOM     14  C   UNL     1       0.311   8.973  22.155  0.00  0.00    +0.000 A 
ATOM     15  C   UNL     1       0.856   9.369  20.938  0.00  0.00    +0.000 A 
ATOM     16  N   UNL     1       0.801  10.637  20.456  0.00  0.00    +0.000 NA
BRANCH  11  18
ATOM     17  C   UNL     1       1.296  13.734  21.008  0.00  0.00    +0.000 C 
ATOM     18  C   UNL     1       0.037  12.949  20.680  0.00  0.00    +0.000 C 
ENDBRANCH  11  18
ENDBRANCH   1  15
BRANCH   6  19
ATOM     19  C   UNL     1       4.997   5.436  17.201  0.00  0.00    +0.000 C 
ATOM     20  C   UNL     1       4.738   6.676  16.340  0.00  0.00    +0.000 C 
BRANCH  19  21
ATOM     21  S   UNL     1       5.170   4.006  16.074  0.00  0.00    +0.000 S 
BRANCH  21  22
ATOM     22  C   UNL     1       6.348   4.620  14.977  0.00  0.00    +0.000 A 
ATOM     23  N   UNL     1       7.383   5.371  15.270  0.00  0.00    +0.000 NA
ATOM     24  N   UNL     1       8.098   5.558  14.105  0.00  0.00    +0.000 NA
ATOM     25  C   UNL     1       7.471   4.907  13.149  0.00  0.00    +0.000 A 
ATOM     26  N   UNL     1       6.348   4.330  13.646  0.00  0.00    +0.000 N 
ATOM     27  C   UNL     1       5.390   3.548  12.914  0.00  0.00    +0.000 C 
ENDBRANCH  21  22
ENDBRANCH  19  21
ENDBRANCH   6  19
TORSDOF 5
ENDMDL
MODEL 5
REMARK VINA RESULT:      -7.8      2.424      9.046
REMARK  Name = 
REMARK  8 active torsions:
REMARK  status: ('A' for Active; 'I' for Inactive)
REMARK    1  A    between atoms: C_1  and  C_2
REMARK    2  A    between atoms: C_2  and  C_3
REMARK    3  A    between atoms: C_7  and  C_8
REMARK    4  A    between atoms: C_13  and  C_14
REMARK    5  A    between atoms: C_14  and  C_15
REMARK    6  A    between atoms: C_14  and  S_16
REMARK    7  A    between atoms: S_16  and  C_17
REMARK    8  A    between atoms: N_21  and  C_22
REMARK                            x       y       z     vdW  Elec       q    Type
REMARK                         _______ _______ _______ _____ _____    ______ ____
ROOT
ATOM      1  C   UNL     1       5.551   5.349  15.727  0.00  0.00    +0.000 C 
ATOM      2  O   UNL     1       5.969   6.402  16.209  0.00  0.00    +0.000 OA
ATOM      3  N   UNL     1       4.583   4.550  16.291  0.00  0.00    +0.000 N 
ATOM      4  C   UNL     1       3.942   4.882  17.485  0.00  0.00    +0.000 A 
ATOM      5  C   UNL     1       3.502   6.184  17.720  0.00  0.00    +0.000 A 
ATOM      6  C   UNL     1       2.924   6.513  18.953  0.00  0.00    +0.000 A 
ATOM      7  C   UNL     1       2.859   5.504  19.918  0.00  0.00    +0.000 A 
ATOM      8  C   UNL     1       3.286   4.228  19.583  0.00  0.00    +0.000 A 
ATOM      9  N   UNL     1       3.780   3.885  18.372  0.00  0.00    +0.000 NA
ATOM     10  H   UNL     1       4.597   3.567  16.045  0.00  0.00    +0.000 HD
ENDROOT
BRANCH   1  15
ATOM     11  C   UNL     1       5.975   3.582  12.546  0.00  0.00    +0.000 A 
ATOM     12  C   UNL     1       7.178   4.092  12.056  0.00  0.00    +0.000 A 
ATOM     13  C   UNL     1       7.891   5.002  12.827  0.00  0.00    +0.000 A 
ATOM     14  C   UNL     1       7.381   5.392  14.054  0.00  0.00    +0.000 A 
ATOM     15  C   UNL     1       6.168   4.848  14.466  0.00  0.00    +0.000 A 
ATOM     16  N   UNL     1       5.464   3.931  13.753  0.00  0.00    +0.000 NA
BRANCH  11  18
ATOM     17  C   UNL     1       3.947   3.205  11.143  0.00  0.00    +0.000 C 
ATOM     18  C   UNL     1       5.198   2.579  11.733  0.00  0.00    +0.000 C 
ENDBRANCH  11  18
ENDBRANCH   1  15
BRANCH   6  19
ATOM     19  C   UNL     1       2.379   7.900  19.252  0.00  0.00    +0.000 C 
ATOM     20  C   UNL     1       1.295   7.844  20.332  0.00  0.00    +0.000 C 
BRANCH  19  21
ATOM     21  S   UNL     1       1.665   8.739  17.792  0.00  0.00    +0.000 S 
BRANCH  21  22
ATOM     22  C   UNL     1       0.972  10.126  18.545  0.00  0.00    +0.000 A 
ATOM     23  N   UNL     1       1.579  10.985  19.328  0.00  0.00    +0.000 NA
ATOM     24  N   UNL     1       0.670  11.977  19.634  0.00  0.00    +0.000 NA
ATOM     25  C   UNL     1      -0.455  11.683  19.019  0.00  0.00    +0.000 A 
ATOM     26  N   UNL     1      -0.320  10.511  18.349  0.00  0.00    +0.000 N 
ATOM     27  C   UNL     1      -1.330   9.847  17.569  0.00  0.00    +0.000 C 
ENDBRANCH  21  22
ENDBRANCH  19  21
ENDBRANCH   6  19
TORSDOF 5
ENDMDL
MODEL 6
REMARK VINA RESULT:      -7.8      1.630      2.487
REMARK  Name = 
REMARK  8 active torsions:
REMARK  status: ('A' for Active; 'I' for Inactive)
REMARK    1  A    between atoms: C_1  and  C_2
REMARK    2  A    between atoms: C_2  and  C_3
REMARK    3  A    between atoms: C_7  and  C_8
REMARK    4  A    between atoms: C_13  and  C_14
REMARK    5  A    between atoms: C_14  and  C_15
REMARK    6  A    between atoms: C_14  and  S_16
REMARK    7  A    between atoms: S_16  and  C_17
REMARK    8  A    between atoms: N_21  and  C_22
REMARK                            x       y       z     vdW  Elec       q    Type
REMARK                         _______ _______ _______ _____ _____    ______ ____
ROOT
ATOM      1  C   UNL     1       2.347   7.753  19.202  0.00  0.00    +0.000 C 
ATOM      2  O   UNL     1       3.028   8.012  18.210  0.00  0.00    +0.000 OA
ATOM      3  N   UNL     1       2.432   6.596  19.941  0.00  0.00    +0.000 N 
ATOM      4  C   UNL     1       3.348   5.585  19.644  0.00  0.00    +0.000 A 
ATOM      5  C   UNL     1       4.669   5.893  19.322  0.00  0.00    +0.000 A 
ATOM      6  C   UNL     1       5.554   4.869  18.959  0.00  0.00    +0.000 A 
ATOM      7  C   UNL     1       5.040   3.571  18.897  0.00  0.00    +0.000 A 
ATOM      8  C   UNL     1       3.722   3.353  19.272  0.00  0.00    +0.000 A 
ATOM      9  N   UNL     1       2.881   4.325  19.692  0.00  0.00    +0.000 NA
ATOM     10  H   UNL     1       1.606   6.318  20.457  0.00  0.00    +0.000 HD
ENDROOT
BRANCH   1  15
ATOM     11  C   UNL     1       0.056   9.677  21.317  0.00  0.00    +0.000 A 
ATOM     12  C   UNL     1      -0.447  10.643  20.445  0.00  0.00    +0.000 A 
ATOM     13  C   UNL     1      -0.059  10.619  19.111  0.00  0.00    +0.000 A 
ATOM     14  C   UNL     1       0.832   9.647  18.685  0.00  0.00    +0.000 A 
ATOM     15  C   UNL     1       1.299   8.728  19.620  0.00  0.00    +0.000 A 
ATOM     16  N   UNL     1       0.913   8.702  20.921  0.00  0.00    +0.000 NA
BRANCH  11  18
ATOM     17  C   UNL     1      -1.224  10.890  23.081  0.00  0.00    +0.000 C 
ATOM     18  C   UNL     1      -0.370   9.675  22.762  0.00  0.00    +0.000 C 
ENDBRANCH  11  18
ENDBRANCH   1  15
BRANCH   6  19
ATOM     19  C   UNL     1       7.018   5.133  18.646  0.00  0.00    +0.000 C 
ATOM     20  C   UNL     1       7.762   5.642  19.885  0.00  0.00    +0.000 C 
BRANCH  19  21
ATOM     21  S   UNL     1       7.275   6.349  17.305  0.00  0.00    +0.000 S 
BRANCH  21  22
ATOM     22  C   UNL     1       6.741   5.429  15.950  0.00  0.00    +0.000 A 
ATOM     23  N   UNL     1       7.313   4.361  15.447  0.00  0.00    +0.000 NA
ATOM     24  N   UNL     1       6.504   3.904  14.426  0.00  0.00    +0.000 NA
ATOM     25  C   UNL     1       5.468   4.711  14.353  0.00  0.00    +0.000 A 
ATOM     26  N   UNL     1       5.592   5.703  15.271  0.00  0.00    +0.000 N 
ATOM     27  C   UNL     1       4.674   6.787  15.492  0.00  0.00    +0.000 C 
ENDBRANCH  21  22
ENDBRANCH  19  21
ENDBRANCH   6  19
TORSDOF 5
ENDMDL
MODEL 7
REMARK VINA RESULT:      -7.7      3.817      9.098
REMARK  Name = 
REMARK  8 active torsions:
REMARK  status: ('A' for Active; 'I' for Inactive)
REMARK    1  A    between atoms: C_1  and  C_2
REMARK    2  A    between atoms: C_2  and  C_3
REMARK    3  A    between atoms: C_7  and  C_8
REMARK    4  A    between atoms: C_13  and  C_14
REMARK    5  A    between atoms: C_14  and  C_15
REMARK    6  A    between atoms: C_14  and  S_16
REMARK    7  A    between atoms: S_16  and  C_17
REMARK    8  A    between atoms: N_21  and  C_22
REMARK                            x       y       z     vdW  Elec       q    Type
REMARK                         _______ _______ _______ _____ _____    ______ ____
ROOT
ATOM      1  C   UNL     1       2.778   7.148  18.527  0.00  0.00    +0.000 C 
ATOM      2  O   UNL     1       3.138   8.142  17.896  0.00  0.00    +0.000 OA
ATOM      3  N   UNL     1       1.964   7.165  19.635  0.00  0.00    +0.000 N 
ATOM      4  C   UNL     1       1.427   8.347  20.150  0.00  0.00    +0.000 A 
ATOM      5  C   UNL     1       0.886   9.313  19.302  0.00  0.00    +0.000 A 
ATOM      6  C   UNL     1       0.417  10.521  19.833  0.00  0.00    +0.000 A 
ATOM      7  C   UNL     1       0.560  10.715  21.209  0.00  0.00    +0.000 A 
ATOM      8  C   UNL     1       1.075   9.683  21.981  0.00  0.00    +0.000 A 
ATOM      9  N   UNL     1       1.465   8.486  21.487  0.00  0.00    +0.000 NA
ATOM     10  H   UNL     1       2.050   6.391  20.282  0.00  0.00    +0.000 HD
ENDROOT
BRANCH   1  15
ATOM     11  C   UNL     1       3.114   3.515  18.190  0.00  0.00    +0.000 A 
ATOM     12  C   UNL     1       4.092   3.376  17.203  0.00  0.00    +0.000 A 
ATOM     13  C   UNL     1       4.691   4.514  16.679  0.00  0.00    +0.000 A 
ATOM     14  C   UNL     1       4.292   5.759  17.137  0.00  0.00    +0.000 A 
ATOM     15  C   UNL     1       3.301   5.814  18.113  0.00  0.00    +0.000 A 
ATOM     16  N   UNL     1       2.720   4.721  18.670  0.00  0.00    +0.000 NA
BRANCH  11  18
ATOM     17  C   UNL     1       0.955   2.425  18.799  0.00  0.00    +0.000 C 
ATOM     18  C   UNL     1       2.468   2.291  18.784  0.00  0.00    +0.000 C 
ENDBRANCH  11  18
ENDBRANCH   1  15
BRANCH   6  19
ATOM     19  C   UNL     1      -0.229  11.592  18.969  0.00  0.00    +0.000 C 
ATOM     20  C   UNL     1       0.549  12.909  19.050  0.00  0.00    +0.000 C 
BRANCH  19  21
ATOM     21  S   UNL     1      -1.967  11.946  19.416  0.00  0.00    +0.000 S 
BRANCH  21  22
ATOM     22  C   UNL     1      -2.747  11.586  17.922  0.00  0.00    +0.000 A 
ATOM     23  N   UNL     1      -2.178  11.176  16.814  0.00  0.00    +0.000 NA
ATOM     24  N   UNL     1      -3.184  10.933  15.900  0.00  0.00    +0.000 NA
ATOM     25  C   UNL     1      -4.327  11.202  16.493  0.00  0.00    +0.000 A 
ATOM     26  N   UNL     1      -4.098  11.647  17.754  0.00  0.00    +0.000 N 
ATOM     27  C   UNL     1      -5.088  12.057  18.712  0.00  0.00    +0.000 C 
ENDBRANCH  21  22
ENDBRANCH  19  21
ENDBRANCH   6  19
TORSDOF 5
ENDMDL
MODEL 8
REMARK VINA RESULT:      -7.6      2.425      9.107
REMARK  Name = 
REMARK  8 active torsions:
REMARK  status: ('A' for Active; 'I' for Inactive)
REMARK    1  A    between atoms: C_1  and  C_2
REMARK    2  A    between atoms: C_2  and  C_3
REMARK    3  A    between atoms: C_7  and  C_8
REMARK    4  A    between atoms: C_13  and  C_14
REMARK    5  A    between atoms: C_14  and  C_15
REMARK    6  A    between atoms: C_14  and  S_16
REMARK    7  A    between atoms: S_16  and  C_17
REMARK    8  A    between atoms: N_21  and  C_22
REMARK                            x       y       z     vdW  Elec       q    Type
REMARK                         _______ _______ _______ _____ _____    ______ ____
ROOT
ATOM      1  C   UNL     1       5.553   5.383  15.731  0.00  0.00    +0.000 C 
ATOM      2  O   UNL     1       5.978   6.440  16.198  0.00  0.00    +0.000 OA
ATOM      3  N   UNL     1       4.579   4.599  16.304  0.00  0.00    +0.000 N 
ATOM      4  C   UNL     1       3.938   4.952  17.493  0.00  0.00    +0.000 A 
ATOM      5  C   UNL     1       3.507   6.260  17.708  0.00  0.00    +0.000 A 
ATOM      6  C   UNL     1       2.930   6.610  18.936  0.00  0.00    +0.000 A 
ATOM      7  C   UNL     1       2.856   5.616  19.915  0.00  0.00    +0.000 A 
ATOM      8  C   UNL     1       3.276   4.332  19.599  0.00  0.00    +0.000 A 
ATOM      9  N   UNL     1       3.768   3.968  18.393  0.00  0.00    +0.000 NA
ATOM     10  H   UNL     1       4.587   3.613  16.073  0.00  0.00    +0.000 HD
ENDROOT
BRANCH   1  15
ATOM     11  C   UNL     1       5.969   3.569  12.575  0.00  0.00    +0.000 A 
ATOM     12  C   UNL     1       7.176   4.064  12.080  0.00  0.00    +0.000 A 
ATOM     13  C   UNL     1       7.895   4.979  12.839  0.00  0.00    +0.000 A 
ATOM     14  C   UNL     1       7.386   5.390  14.060  0.00  0.00    +0.000 A 
ATOM     15  C   UNL     1       6.169   4.860  14.478  0.00  0.00    +0.000 A 
ATOM     16  N   UNL     1       5.459   3.939  13.777  0.00  0.00    +0.000 NA
BRANCH  11  18
ATOM     17  C   UNL     1       3.997   3.211  11.090  0.00  0.00    +0.000 C 
ATOM     18  C   UNL     1       5.186   2.560  11.775  0.00  0.00    +0.000 C 
ENDBRANCH  11  18
ENDBRANCH   1  15
BRANCH   6  19
ATOM     19  C   UNL     1       2.394   8.005  19.214  0.00  0.00    +0.000 C 
ATOM     20  C   UNL     1       1.513   8.016  20.467  0.00  0.00    +0.000 C 
BRANCH  19  21
ATOM     21  S   UNL     1       1.410   8.702  17.839  0.00  0.00    +0.000 S 
BRANCH  21  22
ATOM     22  C   UNL     1       0.652  10.023  18.644  0.00  0.00    +0.000 A 
ATOM     23  N   UNL     1      -0.482  10.000  19.303  0.00  0.00    +0.000 NA
ATOM     24  N   UNL     1      -0.665  11.253  19.852  0.00  0.00    +0.000 NA
ATOM     25  C   UNL     1       0.370  11.989  19.508  0.00  0.00    +0.000 A 
ATOM     26  N   UNL     1       1.207  11.266  18.721  0.00  0.00    +0.000 N 
ATOM     27  C   UNL     1       2.437  11.720  18.132  0.00  0.00    +0.000 C 
ENDBRANCH  21  22
ENDBRANCH  19  21
ENDBRANCH   6  19
TORSDOF 5
ENDMDL
MODEL 9
REMARK VINA RESULT:      -7.6      3.431      9.001
REMARK  Name = 
REMARK  8 active torsions:
REMARK  status: ('A' for Active; 'I' for Inactive)
REMARK    1  A    between atoms: C_1  and  C_2
REMARK    2  A    between atoms: C_2  and  C_3
REMARK    3  A    between atoms: C_7  and  C_8
REMARK    4  A    between atoms: C_13  and  C_14
REMARK    5  A    between atoms: C_14  and  C_15
REMARK    6  A    between atoms: C_14  and  S_16
REMARK    7  A    between atoms: S_16  and  C_17
REMARK    8  A    between atoms: N_21  and  C_22
REMARK                            x       y       z     vdW  Elec       q    Type
REMARK                         _______ _______ _______ _____ _____    ______ ____
ROOT
ATOM      1  C   UNL     1       2.653   7.509  18.315  0.00  0.00    +0.000 C 
ATOM      2  O   UNL     1       2.970   8.531  17.707  0.00  0.00    +0.000 OA
ATOM      3  N   UNL     1       1.857   7.468  19.436  0.00  0.00    +0.000 N 
ATOM      4  C   UNL     1       1.290   8.616  19.992  0.00  0.00    +0.000 A 
ATOM      5  C   UNL     1       0.704   9.587  19.181  0.00  0.00    +0.000 A 
ATOM      6  C   UNL     1       0.204  10.763  19.752  0.00  0.00    +0.000 A 
ATOM      7  C   UNL     1       0.363  10.923  21.131  0.00  0.00    +0.000 A 
ATOM      8  C   UNL     1       0.925   9.888  21.865  0.00  0.00    +0.000 A 
ATOM      9  N   UNL     1       1.345   8.719  21.331  0.00  0.00    +0.000 NA
ATOM     10  H   UNL     1       1.979   6.679  20.059  0.00  0.00    +0.000 HD
ENDROOT
BRANCH   1  15
ATOM     11  C   UNL     1       5.011   5.013  17.036  0.00  0.00    +0.000 A 
ATOM     12  C   UNL     1       4.330   3.809  17.219  0.00  0.00    +0.000 A 
ATOM     13  C   UNL     1       3.037   3.832  17.727  0.00  0.00    +0.000 A 
ATOM     14  C   UNL     1       2.463   5.050  18.054  0.00  0.00    +0.000 A 
ATOM     15  C   UNL     1       3.213   6.205  17.855  0.00  0.00    +0.000 A 
ATOM     16  N   UNL     1       4.465   6.220  17.329  0.00  0.00    +0.000 NA
BRANCH  11  18
ATOM     17  C   UNL     1       7.432   4.688  17.542  0.00  0.00    +0.000 C 
ATOM     18  C   UNL     1       6.407   5.008  16.468  0.00  0.00    +0.000 C 
ENDBRANCH  11  18
ENDBRANCH   1  15
BRANCH   6  19
ATOM     19  C   UNL     1      -0.491  11.836  18.929  0.00  0.00    +0.000 C 
ATOM     20  C   UNL     1      -0.049  13.237  19.364  0.00  0.00    +0.000 C 
BRANCH  19  21
ATOM     21  S   UNL     1      -2.316  11.773  19.032  0.00  0.00    +0.000 S 
BRANCH  21  22
ATOM     22  C   UNL     1      -2.690  11.147  17.471  0.00  0.00    +0.000 A 
ATOM     23  N   UNL     1      -1.905  10.434  16.699  0.00  0.00    +0.000 NA
ATOM     24  N   UNL     1      -2.638  10.079  15.584  0.00  0.00    +0.000 NA
ATOM     25  C   UNL     1      -3.843  10.588  15.726  0.00  0.00    +0.000 A 
ATOM     26  N   UNL     1      -3.910  11.295  16.883  0.00  0.00    +0.000 N 
ATOM     27  C   UNL     1      -5.050  12.012  17.384  0.00  0.00    +0.000 C 
ENDBRANCH  21  22
ENDBRANCH  19  21
ENDBRANCH   6  19
TORSDOF 5
ENDMDL
