MODEL 1
REMARK VINA RESULT:      -7.4      0.000      0.000
REMARK  Name = 
REMARK  8 active torsions:
REMARK  status: ('A' for Active; 'I' for Inactive)
REMARK    1  A    between atoms: C_2  and  C_3
REMARK    2  A    between atoms: C_3  and  N_4
REMARK    3  A    between atoms: N_4  and  C_5
REMARK    4  A    between atoms: C_5  and  C_6
REMARK    5  A    between atoms: C_13  and  C_15
REMARK    6  A    between atoms: C_18  and  C_19
REMARK    7  A    between atoms: C_19  and  C_20
REMARK    8  A    between atoms: C_20  and  N_21
REMARK                            x       y       z     vdW  Elec       q    Type
REMARK                         _______ _______ _______ _____ _____    ______ ____
ROOT
ATOM      1  N   UNL     1       3.762   4.437  19.638  0.00  0.00    +0.000 N 
ATOM      2  C   UNL     1       2.530   5.024  19.977  0.00  0.00    +0.000 C 
ATOM      3  O   UNL     1       1.656   4.406  20.585  0.00  0.00    +0.000 OA
ENDROOT
BRANCH   2   4
ATOM      4  C   UNL     1       2.214   6.428  19.641  0.00  0.00    +0.000 A 
ATOM      5  C   UNL     1       2.324   6.968  18.366  0.00  0.00    +0.000 A 
ATOM      6  C   UNL     1       2.035   8.313  18.163  0.00  0.00    +0.000 A 
ATOM      7  C   UNL     1       1.530   9.071  19.220  0.00  0.00    +0.000 A 
ATOM      8  N   UNL     1       1.338   8.545  20.450  0.00  0.00    +0.000 NA
ATOM      9  C   UNL     1       1.679   7.242  20.634  0.00  0.00    +0.000 A 
BRANCH   7  10
ATOM     10  C   UNL     1       1.183  10.529  19.026  0.00  0.00    +0.000 C 
BRANCH  10  11
ATOM     11  C   UNL     1      -0.335  10.771  19.120  0.00  0.00    +0.000 C 
BRANCH  11  12
ATOM     12  N   UNL     1      -0.997  11.028  17.828  0.00  0.00    +0.000 NA
ATOM     13  C   UNL     1      -2.077  12.020  17.993  0.00  0.00    +0.000 C 
ATOM     14  C   UNL     1      -3.300  11.204  18.363  0.00  0.00    +0.000 C 
ATOM     15  C   UNL     1      -3.153   9.971  17.496  0.00  0.00    +0.000 C 
ATOM     16  C   UNL     1      -1.652   9.834  17.262  0.00  0.00    +0.000 C 
ENDBRANCH  11  12
ENDBRANCH  10  11
ENDBRANCH   7  10
ENDBRANCH   2   4
BRANCH   1  17
ATOM     17  C   UNL     1       3.923   3.038  20.049  0.00  0.00    +0.000 C 
BRANCH  17  19
ATOM     18  C   UNL     1       3.775   1.398  18.161  0.00  0.00    +0.000 C 
ATOM     19  C   UNL     1       3.188   2.098  19.142  0.00  0.00    +0.000 C 
ENDBRANCH  17  19
ENDBRANCH   1  17
BRANCH   1  20
ATOM     20  C   UNL     1       4.973   5.187  19.261  0.00  0.00    +0.000 C 
BRANCH  20  21
ATOM     21  C   UNL     1       5.492   4.985  17.853  0.00  0.00    +0.000 A 
ATOM     22  C   UNL     1       6.863   4.902  17.572  0.00  0.00    +0.000 A 
ATOM     23  C   UNL     1       7.312   4.532  16.303  0.00  0.00    +0.000 A 
ATOM     24  C   UNL     1       6.390   4.253  15.307  0.00  0.00    +0.000 A 
ATOM     25  F   UNL     1       6.823   3.853  14.099  0.00  0.00    +0.000 F 
ATOM     26  C   UNL     1       5.027   4.361  15.543  0.00  0.00    +0.000 A 
ATOM     27  C   UNL     1       4.578   4.724  16.812  0.00  0.00    +0.000 A 
ENDBRANCH  20  21
ENDBRANCH   1  20
TORSDOF 8
ENDMDL
MODEL 2
REMARK VINA RESULT:      -7.4      1.397      2.064
REMARK  Name = 
REMARK  8 active torsions:
REMARK  status: ('A' for Active; 'I' for Inactive)
REMARK    1  A    between atoms: C_2  and  C_3
REMARK    2  A    between atoms: C_3  and  N_4
REMARK    3  A    between atoms: N_4  and  C_5
REMARK    4  A    between atoms: C_5  and  C_6
REMARK    5  A    between atoms: C_13  and  C_15
REMARK    6  A    between atoms: C_18  and  C_19
REMARK    7  A    between atoms: C_19  and  C_20
REMARK    8  A    between atoms: C_20  and  N_21
REMARK                            x       y       z     vdW  Elec       q    Type
REMARK                         _______ _______ _______ _____ _____    ______ ____
ROOT
ATOM      1  N   UNL     1       3.842   4.081  19.491  0.00  0.00    +0.000 N 
ATOM      2  C   UNL     1       2.604   4.689  19.767  0.00  0.00    +0.000 C 
ATOM      3  O   UNL     1       1.691   4.087  20.334  0.00  0.00    +0.000 OA
ENDROOT
BRANCH   2   4
ATOM      4  C   UNL     1       2.327   6.096  19.412  0.00  0.00    +0.000 A 
ATOM      5  C   UNL     1       2.358   6.593  18.116  0.00  0.00    +0.000 A 
ATOM      6  C   UNL     1       2.117   7.945  17.893  0.00  0.00    +0.000 A 
ATOM      7  C   UNL     1       1.736   8.756  18.962  0.00  0.00    +0.000 A 
ATOM      8  N   UNL     1       1.619   8.275  20.220  0.00  0.00    +0.000 NA
ATOM      9  C   UNL     1       1.913   6.964  20.417  0.00  0.00    +0.000 A 
BRANCH   7  10
ATOM     10  C   UNL     1       1.442  10.223  18.749  0.00  0.00    +0.000 C 
BRANCH  10  11
ATOM     11  C   UNL     1       0.158  10.659  19.478  0.00  0.00    +0.000 C 
BRANCH  11  12
ATOM     12  N   UNL     1       0.236  11.983  20.123  0.00  0.00    +0.000 NA
ATOM     13  C   UNL     1      -0.875  12.842  19.669  0.00  0.00    +0.000 C 
ATOM     14  C   UNL     1      -0.357  13.516  18.413  0.00  0.00    +0.000 C 
ATOM     15  C   UNL     1       1.091  13.795  18.758  0.00  0.00    +0.000 C 
ATOM     16  C   UNL     1       1.463  12.725  19.780  0.00  0.00    +0.000 C 
ENDBRANCH  11  12
ENDBRANCH  10  11
ENDBRANCH   7  10
ENDBRANCH   2   4
BRANCH   1  17
ATOM     17  C   UNL     1       3.960   2.680  19.913  0.00  0.00    +0.000 C 
BRANCH  17  19
ATOM     18  C   UNL     1       2.736   1.946  17.854  0.00  0.00    +0.000 C 
ATOM     19  C   UNL     1       3.670   1.729  18.791  0.00  0.00    +0.000 C 
ENDBRANCH  17  19
ENDBRANCH   1  17
BRANCH   1  20
ATOM     20  C   UNL     1       5.081   4.810  19.170  0.00  0.00    +0.000 C 
BRANCH  20  21
ATOM     21  C   UNL     1       5.631   4.643  17.769  0.00  0.00    +0.000 A 
ATOM     22  C   UNL     1       4.800   4.639  16.642  0.00  0.00    +0.000 A 
ATOM     23  C   UNL     1       5.340   4.669  15.355  0.00  0.00    +0.000 A 
ATOM     24  C   UNL     1       6.717   4.695  15.192  0.00  0.00    +0.000 A 
ATOM     25  F   UNL     1       7.234   4.771  13.954  0.00  0.00    +0.000 F 
ATOM     26  C   UNL     1       7.567   4.664  16.288  0.00  0.00    +0.000 A 
ATOM     27  C   UNL     1       7.027   4.639  17.573  0.00  0.00    +0.000 A 
ENDBRANCH  20  21
ENDBRANCH   1  20
TORSDOF 8
ENDMDL
MODEL 3
REMARK VINA RESULT:      -7.3      3.018      4.536
REMARK  Name = 
REMARK  8 active torsions:
REMARK  status: ('A' for Active; 'I' for Inactive)
REMARK    1  A    between atoms: C_2  and  C_3
REMARK    2  A    between atoms: C_3  and  N_4
REMARK    3  A    between atoms: N_4  and  C_5
REMARK    4  A    between atoms: C_5  and  C_6
REMARK    5  A    between atoms: C_13  and  C_15
REMARK    6  A    between atoms: C_18  and  C_19
REMARK    7  A    between atoms: C_19  and  C_20
REMARK    8  A    between atoms: C_20  and  N_21
REMARK                            x       y       z     vdW  Elec       q    Type
REMARK                         _______ _______ _______ _____ _____    ______ ____
ROOT
ATOM      1  N   UNL     1       4.464   4.923  17.240  0.00  0.00    +0.000 N 
ATOM      2  C   UNL     1       4.604   6.284  17.564  0.00  0.00    +0.000 C 
ATOM      3  O   UNL     1       5.635   6.912  17.319  0.00  0.00    +0.000 OA
ENDROOT
BRANCH   2   4
ATOM      4  C   UNL     1       3.515   7.052  18.202  0.00  0.00    +0.000 A 
ATOM      5  C   UNL     1       3.000   6.774  19.462  0.00  0.00    +0.000 A 
ATOM      6  C   UNL     1       1.948   7.538  19.957  0.00  0.00    +0.000 A 
ATOM      7  C   UNL     1       1.504   8.642  19.229  0.00  0.00    +0.000 A 
ATOM      8  N   UNL     1       2.047   8.980  18.038  0.00  0.00    +0.000 NA
ATOM      9  C   UNL     1       3.035   8.185  17.553  0.00  0.00    +0.000 A 
BRANCH   7  10
ATOM     10  C   UNL     1       0.380   9.507  19.751  0.00  0.00    +0.000 C 
BRANCH  10  11
ATOM     11  C   UNL     1       0.310   9.484  21.289  0.00  0.00    +0.000 C 
BRANCH  11  12
ATOM     12  N   UNL     1       0.474  10.802  21.932  0.00  0.00    +0.000 NA
ATOM     13  C   UNL     1      -0.698  11.113  22.772  0.00  0.00    +0.000 C 
ATOM     14  C   UNL     1      -1.681  11.786  21.834  0.00  0.00    +0.000 C 
ATOM     15  C   UNL     1      -0.780  12.635  20.962  0.00  0.00    +0.000 C 
ATOM     16  C   UNL     1       0.564  11.912  20.966  0.00  0.00    +0.000 C 
ENDBRANCH  11  12
ENDBRANCH  10  11
ENDBRANCH   7  10
ENDBRANCH   2   4
BRANCH   1  17
ATOM     17  C   UNL     1       5.634   4.306  16.604  0.00  0.00    +0.000 C 
BRANCH  17  19
ATOM     18  C   UNL     1       5.571   3.970  14.123  0.00  0.00    +0.000 C 
ATOM     19  C   UNL     1       5.803   4.756  15.184  0.00  0.00    +0.000 C 
ENDBRANCH  17  19
ENDBRANCH   1  17
BRANCH   1  20
ATOM     20  C   UNL     1       3.178   4.209  17.152  0.00  0.00    +0.000 C 
BRANCH  20  21
ATOM     21  C   UNL     1       2.642   3.602  18.432  0.00  0.00    +0.000 A 
ATOM     22  C   UNL     1       3.492   3.125  19.439  0.00  0.00    +0.000 A 
ATOM     23  C   UNL     1       2.984   2.742  20.681  0.00  0.00    +0.000 A 
ATOM     24  C   UNL     1       1.620   2.827  20.917  0.00  0.00    +0.000 A 
ATOM     25  F   UNL     1       1.139   2.502  22.129  0.00  0.00    +0.000 F 
ATOM     26  C   UNL     1       0.749   3.262  19.929  0.00  0.00    +0.000 A 
ATOM     27  C   UNL     1       1.257   3.650  18.690  0.00  0.00    +0.000 A 
ENDBRANCH  20  21
ENDBRANCH   1  20
TORSDOF 8
ENDMDL
MODEL 4
REMARK VINA RESULT:      -7.3      2.746      4.282
REMARK  Name = 
REMARK  8 active torsions:
REMARK  status: ('A' for Active; 'I' for Inactive)
REMARK    1  A    between atoms: C_2  and  C_3
REMARK    2  A    between atoms: C_3  and  N_4
REMARK    3  A    between atoms: N_4  and  C_5
REMARK    4  A    between atoms: C_5  and  C_6
REMARK    5  A    between atoms: C_13  and  C_15
REMARK    6  A    between atoms: C_18  and  C_19
REMARK    7  A    between atoms: C_19  and  C_20
REMARK    8  A    between atoms: C_20  and  N_21
REMARK                            x       y       z     vdW  Elec       q    Type
REMARK                         _______ _______ _______ _____ _____    ______ ____
ROOT
ATOM      1  N   UNL     1       3.774   5.752  17.767  0.00  0.00    +0.000 N 
ATOM      2  C   UNL     1       3.831   7.150  17.911  0.00  0.00    +0.000 C 
ATOM      3  O   UNL     1       4.834   7.798  17.610  0.00  0.00    +0.000 OA
ENDROOT
BRANCH   2   4
ATOM      4  C   UNL     1       2.683   7.931  18.416  0.00  0.00    +0.000 A 
ATOM      5  C   UNL     1       2.216   7.874  19.723  0.00  0.00    +0.000 A 
ATOM      6  C   UNL     1       1.103   8.626  20.087  0.00  0.00    +0.000 A 
ATOM      7  C   UNL     1       0.544   9.510  19.165  0.00  0.00    +0.000 A 
ATOM      8  N   UNL     1       1.034   9.643  17.912  0.00  0.00    +0.000 NA
ATOM      9  C   UNL     1       2.087   8.857  17.566  0.00  0.00    +0.000 A 
BRANCH   7  10
ATOM     10  C   UNL     1      -0.650  10.359  19.537  0.00  0.00    +0.000 C 
BRANCH  10  11
ATOM     11  C   UNL     1      -1.366  10.913  18.292  0.00  0.00    +0.000 C 
BRANCH  11  12
ATOM     12  N   UNL     1      -2.494  10.091  17.815  0.00  0.00    +0.000 NA
ATOM     13  C   UNL     1      -2.332   9.779  16.382  0.00  0.00    +0.000 C 
ATOM     14  C   UNL     1      -2.980  10.941  15.656  0.00  0.00    +0.000 C 
ATOM     15  C   UNL     1      -4.189  11.240  16.518  0.00  0.00    +0.000 C 
ATOM     16  C   UNL     1      -3.796  10.775  17.917  0.00  0.00    +0.000 C 
ENDBRANCH  11  12
ENDBRANCH  10  11
ENDBRANCH   7  10
ENDBRANCH   2   4
BRANCH   1  17
ATOM     17  C   UNL     1       4.995   5.126  17.246  0.00  0.00    +0.000 C 
BRANCH  17  19
ATOM     18  C   UNL     1       5.720   4.028  15.115  0.00  0.00    +0.000 C 
ATOM     19  C   UNL     1       4.909   4.868  15.772  0.00  0.00    +0.000 C 
ENDBRANCH  17  19
ENDBRANCH   1  17
BRANCH   1  20
ATOM     20  C   UNL     1       2.531   4.961  17.743  0.00  0.00    +0.000 C 
BRANCH  20  21
ATOM     21  C   UNL     1       2.208   4.155  18.983  0.00  0.00    +0.000 A 
ATOM     22  C   UNL     1       2.770   4.457  20.231  0.00  0.00    +0.000 A 
ATOM     23  C   UNL     1       2.320   3.822  21.390  0.00  0.00    +0.000 A 
ATOM     24  C   UNL     1       1.311   2.876  21.303  0.00  0.00    +0.000 A 
ATOM     25  F   UNL     1       0.847   2.299  22.425  0.00  0.00    +0.000 F 
ATOM     26  C   UNL     1       0.760   2.529  20.078  0.00  0.00    +0.000 A 
ATOM     27  C   UNL     1       1.205   3.167  18.921  0.00  0.00    +0.000 A 
ENDBRANCH  20  21
ENDBRANCH   1  20
TORSDOF 8
ENDMDL
MODEL 5
REMARK VINA RESULT:      -7.3      2.662      4.114
REMARK  Name = 
REMARK  8 active torsions:
REMARK  status: ('A' for Active; 'I' for Inactive)
REMARK    1  A    between atoms: C_2  and  C_3
REMARK    2  A    between atoms: C_3  and  N_4
REMARK    3  A    between atoms: N_4  and  C_5
REMARK    4  A    between atoms: C_5  and  C_6
REMARK    5  A    between atoms: C_13  and  C_15
REMARK    6  A    between atoms: C_18  and  C_19
REMARK    7  A    between atoms: C_19  and  C_20
REMARK    8  A    between atoms: C_20  and  N_21
REMARK                            x       y       z     vdW  Elec       q    Type
REMARK                         _______ _______ _______ _____ _____    ______ ____
ROOT
ATOM      1  N   UNL     1       4.310   5.058  17.434  0.00  0.00    +0.000 N 
ATOM      2  C   UNL     1       4.470   6.443  17.618  0.00  0.00    +0.000 C 
ATOM      3  O   UNL     1       5.523   7.022  17.349  0.00  0.00    +0.000 OA
ENDROOT
BRANCH   2   4
ATOM      4  C   UNL     1       3.376   7.296  18.128  0.00  0.00    +0.000 A 
ATOM      5  C   UNL     1       2.778   7.135  19.371  0.00  0.00    +0.000 A 
ATOM      6  C   UNL     1       1.729   7.971  19.742  0.00  0.00    +0.000 A 
ATOM      7  C   UNL     1       1.372   9.029  18.906  0.00  0.00    +0.000 A 
ATOM      8  N   UNL     1       1.995   9.254  17.728  0.00  0.00    +0.000 NA
ATOM      9  C   UNL     1       2.979   8.390  17.367  0.00  0.00    +0.000 A 
BRANCH   7  10
ATOM     10  C   UNL     1       0.253   9.970  19.292  0.00  0.00    +0.000 C 
BRANCH  10  11
ATOM     11  C   UNL     1      -1.023   9.705  18.472  0.00  0.00    +0.000 C 
BRANCH  11  12
ATOM     12  N   UNL     1      -1.478  10.846  17.656  0.00  0.00    +0.000 NA
ATOM     13  C   UNL     1      -1.641  12.046  18.499  0.00  0.00    +0.000 C 
ATOM     14  C   UNL     1      -3.060  11.964  19.024  0.00  0.00    +0.000 C 
ATOM     15  C   UNL     1      -3.825  11.425  17.833  0.00  0.00    +0.000 C 
ATOM     16  C   UNL     1      -2.798  10.627  17.036  0.00  0.00    +0.000 C 
ENDBRANCH  11  12
ENDBRANCH  10  11
ENDBRANCH   7  10
ENDBRANCH   2   4
BRANCH   1  17
ATOM     17  C   UNL     1       5.488   4.355  16.913  0.00  0.00    +0.000 C 
BRANCH  17  19
ATOM     18  C   UNL     1       6.120   4.803  14.531  0.00  0.00    +0.000 C 
ATOM     19  C   UNL     1       5.397   4.127  15.434  0.00  0.00    +0.000 C 
ENDBRANCH  17  19
ENDBRANCH   1  17
BRANCH   1  20
ATOM     20  C   UNL     1       3.012   4.365  17.371  0.00  0.00    +0.000 C 
BRANCH  20  21
ATOM     21  C   UNL     1       2.529   3.698  18.642  0.00  0.00    +0.000 A 
ATOM     22  C   UNL     1       3.419   3.238  19.623  0.00  0.00    +0.000 A 
ATOM     23  C   UNL     1       2.951   2.798  20.861  0.00  0.00    +0.000 A 
ATOM     24  C   UNL     1       1.590   2.806  21.121  0.00  0.00    +0.000 A 
ATOM     25  F   UNL     1       1.146   2.425  22.330  0.00  0.00    +0.000 F 
ATOM     26  C   UNL     1       0.681   3.221  20.159  0.00  0.00    +0.000 A 
ATOM     27  C   UNL     1       1.148   3.667  18.923  0.00  0.00    +0.000 A 
ENDBRANCH  20  21
ENDBRANCH   1  20
TORSDOF 8
ENDMDL
MODEL 6
REMARK VINA RESULT:      -7.3      2.913      4.468
REMARK  Name = 
REMARK  8 active torsions:
REMARK  status: ('A' for Active; 'I' for Inactive)
REMARK    1  A    between atoms: C_2  and  C_3
REMARK    2  A    between atoms: C_3  and  N_4
REMARK    3  A    between atoms: N_4  and  C_5
REMARK    4  A    between atoms: C_5  and  C_6
REMARK    5  A    between atoms: C_13  and  C_15
REMARK    6  A    between atoms: C_18  and  C_19
REMARK    7  A    between atoms: C_19  and  C_20
REMARK    8  A    between atoms: C_20  and  N_21
REMARK                            x       y       z     vdW  Elec       q    Type
REMARK                         _______ _______ _______ _____ _____    ______ ____
ROOT
ATOM      1  N   UNL     1       4.468   4.817  17.327  0.00  0.00    +0.000 N 
ATOM      2  C   UNL     1       4.632   6.185  17.607  0.00  0.00    +0.000 C 
ATOM      3  O   UNL     1       5.680   6.783  17.360  0.00  0.00    +0.000 OA
ENDROOT
BRANCH   2   4
ATOM      4  C   UNL     1       3.549   6.998  18.200  0.00  0.00    +0.000 A 
ATOM      5  C   UNL     1       3.021   6.787  19.466  0.00  0.00    +0.000 A 
ATOM      6  C   UNL     1       1.976   7.588  19.916  0.00  0.00    +0.000 A 
ATOM      7  C   UNL     1       1.554   8.662  19.134  0.00  0.00    +0.000 A 
ATOM      8  N   UNL     1       2.110   8.937  17.933  0.00  0.00    +0.000 NA
ATOM      9  C   UNL     1       3.091   8.106  17.495  0.00  0.00    +0.000 A 
BRANCH   7  10
ATOM     10  C   UNL     1       0.438   9.567  19.606  0.00  0.00    +0.000 C 
BRANCH  10  11
ATOM     11  C   UNL     1       0.663  11.025  19.167  0.00  0.00    +0.000 C 
BRANCH  11  12
ATOM     12  N   UNL     1      -0.408  11.959  19.564  0.00  0.00    +0.000 NA
ATOM     13  C   UNL     1       0.147  13.306  19.800  0.00  0.00    +0.000 C 
ATOM     14  C   UNL     1       0.569  13.302  21.256  0.00  0.00    +0.000 C 
ATOM     15  C   UNL     1      -0.535  12.508  21.922  0.00  0.00    +0.000 C 
ATOM     16  C   UNL     1      -1.066  11.584  20.829  0.00  0.00    +0.000 C 
ENDBRANCH  11  12
ENDBRANCH  10  11
ENDBRANCH   7  10
ENDBRANCH   2   4
BRANCH   1  17
ATOM     17  C   UNL     1       5.635   4.155  16.733  0.00  0.00    +0.000 C 
BRANCH  17  19
ATOM     18  C   UNL     1       6.280   4.687  14.371  0.00  0.00    +0.000 C 
ATOM     19  C   UNL     1       5.509   4.023  15.245  0.00  0.00    +0.000 C 
ENDBRANCH  17  19
ENDBRANCH   1  17
BRANCH   1  20
ATOM     20  C   UNL     1       3.168   4.129  17.239  0.00  0.00    +0.000 C 
BRANCH  20  21
ATOM     21  C   UNL     1       2.621   3.533  18.520  0.00  0.00    +0.000 A 
ATOM     22  C   UNL     1       3.461   3.108  19.558  0.00  0.00    +0.000 A 
ATOM     23  C   UNL     1       2.935   2.736  20.796  0.00  0.00    +0.000 A 
ATOM     24  C   UNL     1       1.564   2.779  20.997  0.00  0.00    +0.000 A 
ATOM     25  F   UNL     1       1.063   2.465  22.203  0.00  0.00    +0.000 F 
ATOM     26  C   UNL     1       0.704   3.161  19.978  0.00  0.00    +0.000 A 
ATOM     27  C   UNL     1       1.229   3.538  18.743  0.00  0.00    +0.000 A 
ENDBRANCH  20  21
ENDBRANCH   1  20
TORSDOF 8
ENDMDL
MODEL 7
REMARK VINA RESULT:      -7.2      2.855      4.430
REMARK  Name = 
REMARK  8 active torsions:
REMARK  status: ('A' for Active; 'I' for Inactive)
REMARK    1  A    between atoms: C_2  and  C_3
REMARK    2  A    between atoms: C_3  and  N_4
REMARK    3  A    between atoms: N_4  and  C_5
REMARK    4  A    between atoms: C_5  and  C_6
REMARK    5  A    between atoms: C_13  and  C_15
REMARK    6  A    between atoms: C_18  and  C_19
REMARK    7  A    between atoms: C_19  and  C_20
REMARK    8  A    between atoms: C_20  and  N_21
REMARK                            x       y       z     vdW  Elec       q    Type
REMARK                         _______ _______ _______ _____ _____    ______ ____
ROOT
ATOM      1  N   UNL     1       4.398   4.900  17.286  0.00  0.00    +0.000 N 
ATOM      2  C   UNL     1       4.550   6.274  17.540  0.00  0.00    +0.000 C 
ATOM      3  O   UNL     1       5.589   6.878  17.273  0.00  0.00    +0.000 OA
ENDROOT
BRANCH   2   4
ATOM      4  C   UNL     1       3.463   7.086  18.125  0.00  0.00    +0.000 A 
ATOM      5  C   UNL     1       2.977   6.922  19.416  0.00  0.00    +0.000 A 
ATOM      6  C   UNL     1       1.924   7.717  19.859  0.00  0.00    +0.000 A 
ATOM      7  C   UNL     1       1.450   8.741  19.040  0.00  0.00    +0.000 A 
ATOM      8  N   UNL     1       1.963   8.972  17.811  0.00  0.00    +0.000 NA
ATOM      9  C   UNL     1       2.954   8.146  17.383  0.00  0.00    +0.000 A 
BRANCH   7  10
ATOM     10  C   UNL     1       0.324   9.637  19.502  0.00  0.00    +0.000 C 
BRANCH  10  11
ATOM     11  C   UNL     1       0.852  10.887  20.230  0.00  0.00    +0.000 C 
BRANCH  11  12
ATOM     12  N   UNL     1      -0.171  11.910  20.517  0.00  0.00    +0.000 NA
ATOM     13  C   UNL     1      -1.137  11.996  19.405  0.00  0.00    +0.000 C 
ATOM     14  C   UNL     1      -0.530  12.994  18.439  0.00  0.00    +0.000 C 
ATOM     15  C   UNL     1       0.075  14.029  19.365  0.00  0.00    +0.000 C 
ATOM     16  C   UNL     1       0.387  13.268  20.651  0.00  0.00    +0.000 C 
ENDBRANCH  11  12
ENDBRANCH  10  11
ENDBRANCH   7  10
ENDBRANCH   2   4
BRANCH   1  17
ATOM     17  C   UNL     1       5.568   4.239  16.695  0.00  0.00    +0.000 C 
BRANCH  17  19
ATOM     18  C   UNL     1       6.335   4.559  14.332  0.00  0.00    +0.000 C 
ATOM     19  C   UNL     1       5.437   4.089  15.209  0.00  0.00    +0.000 C 
ENDBRANCH  17  19
ENDBRANCH   1  17
BRANCH   1  20
ATOM     20  C   UNL     1       3.105   4.196  17.221  0.00  0.00    +0.000 C 
BRANCH  20  21
ATOM     21  C   UNL     1       2.592   3.586  18.508  0.00  0.00    +0.000 A 
ATOM     22  C   UNL     1       3.459   3.165  19.526  0.00  0.00    +0.000 A 
ATOM     23  C   UNL     1       2.963   2.779  20.773  0.00  0.00    +0.000 A 
ATOM     24  C   UNL     1       1.596   2.804  21.002  0.00  0.00    +0.000 A 
ATOM     25  F   UNL     1       1.125   2.476  22.217  0.00  0.00    +0.000 F 
ATOM     26  C   UNL     1       0.710   3.181  20.004  0.00  0.00    +0.000 A 
ATOM     27  C   UNL     1       1.206   3.572  18.760  0.00  0.00    +0.000 A 
ENDBRANCH  20  21
ENDBRANCH   1  20
TORSDOF 8
ENDMDL
MODEL 8
REMARK VINA RESULT:      -7.2      3.515      8.770
REMARK  Name = 
REMARK  8 active torsions:
REMARK  status: ('A' for Active; 'I' for Inactive)
REMARK    1  A    between atoms: C_2  and  C_3
REMARK    2  A    between atoms: C_3  and  N_4
REMARK    3  A    between atoms: N_4  and  C_5
REMARK    4  A    between atoms: C_5  and  C_6
REMARK    5  A    between atoms: C_13  and  C_15
REMARK    6  A    between atoms: C_18  and  C_19
REMARK    7  A    between atoms: C_19  and  C_20
REMARK    8  A    between atoms: C_20  and  N_21
REMARK                            x       y       z     vdW  Elec       q    Type
REMARK                         _______ _______ _______ _____ _____    ______ ____
ROOT
ATOM      1  N   UNL     1      -0.785  11.543  19.777  0.00  0.00    +0.000 N 
ATOM      2  C   UNL     1       0.581  11.246  19.937  0.00  0.00    +0.000 C 
ATOM      3  O   UNL     1       1.347  11.996  20.544  0.00  0.00    +0.000 OA
ENDROOT
BRANCH   2   4
ATOM      4  C   UNL     1       1.179  10.006  19.402  0.00  0.00    +0.000 A 
ATOM      5  C   UNL     1       1.670   9.872  18.110  0.00  0.00    +0.000 A 
ATOM      6  C   UNL     1       2.182   8.647  17.694  0.00  0.00    +0.000 A 
ATOM      7  C   UNL     1       2.299   7.607  18.615  0.00  0.00    +0.000 A 
ATOM      8  N   UNL     1       1.903   7.741  19.901  0.00  0.00    +0.000 NA
ATOM      9  C   UNL     1       1.356   8.930  20.266  0.00  0.00    +0.000 A 
BRANCH   7  10
ATOM     10  C   UNL     1       2.874   6.271  18.202  0.00  0.00    +0.000 C 
BRANCH  10  11
ATOM     11  C   UNL     1       3.302   5.433  19.420  0.00  0.00    +0.000 C 
BRANCH  11  12
ATOM     12  N   UNL     1       2.552   4.176  19.595  0.00  0.00    +0.000 NA
ATOM     13  C   UNL     1       3.482   3.040  19.742  0.00  0.00    +0.000 C 
ATOM     14  C   UNL     1       3.760   2.579  18.325  0.00  0.00    +0.000 C 
ATOM     15  C   UNL     1       2.410   2.729  17.655  0.00  0.00    +0.000 C 
ATOM     16  C   UNL     1       1.707   3.836  18.436  0.00  0.00    +0.000 C 
ENDBRANCH  11  12
ENDBRANCH  10  11
ENDBRANCH   7  10
ENDBRANCH   2   4
BRANCH   1  17
ATOM     17  C   UNL     1      -1.224  12.810  20.373  0.00  0.00    +0.000 C 
BRANCH  17  19
ATOM     18  C   UNL     1      -1.549  12.211  22.783  0.00  0.00    +0.000 C 
ATOM     19  C   UNL     1      -2.055  12.595  21.603  0.00  0.00    +0.000 C 
ENDBRANCH  17  19
ENDBRANCH   1  17
BRANCH   1  20
ATOM     20  C   UNL     1      -1.819  10.560  19.410  0.00  0.00    +0.000 C 
BRANCH  20  21
ATOM     21  C   UNL     1      -2.364  10.635  17.999  0.00  0.00    +0.000 A 
ATOM     22  C   UNL     1      -1.850   9.844  16.962  0.00  0.00    +0.000 A 
ATOM     23  C   UNL     1      -2.485   9.794  15.720  0.00  0.00    +0.000 A 
ATOM     24  C   UNL     1      -3.632  10.542  15.507  0.00  0.00    +0.000 A 
ATOM     25  F   UNL     1      -4.267  10.456  14.326  0.00  0.00    +0.000 F 
ATOM     26  C   UNL     1      -4.145  11.362  16.501  0.00  0.00    +0.000 A 
ATOM     27  C   UNL     1      -3.515  11.408  17.745  0.00  0.00    +0.000 A 
ENDBRANCH  20  21
ENDBRANCH   1  20
TORSDOF 8
ENDMDL
MODEL 9
REMARK VINA RESULT:      -7.2      3.646      8.765
REMARK  Name = 
REMARK  8 active torsions:
REMARK  status: ('A' for Active; 'I' for Inactive)
REMARK    1  A    between atoms: C_2  and  C_3
REMARK    2  A    between atoms: C_3  and  N_4
REMARK    3  A    between atoms: N_4  and  C_5
REMARK    4  A    between atoms: C_5  and  C_6
REMARK    5  A    between atoms: C_13  and  C_15
REMARK    6  A    between atoms: C_18  and  C_19
REMARK    7  A    between atoms: C_19  and  C_20
REMARK    8  A    between atoms: C_20  and  N_21
REMARK                            x       y       z     vdW  Elec       q    Type
REMARK                         _______ _______ _______ _____ _____    ______ ____
ROOT
ATOM      1  N   UNL     1      -0.810  11.526  19.976  0.00  0.00    +0.000 N 
ATOM      2  C   UNL     1       0.557  11.233  20.126  0.00  0.00    +0.000 C 
ATOM      3  O   UNL     1       1.316  11.962  20.766  0.00  0.00    +0.000 OA
ENDROOT
BRANCH   2   4
ATOM      4  C   UNL     1       1.166  10.021  19.540  0.00  0.00    +0.000 A 
ATOM      5  C   UNL     1       1.635   9.937  18.235  0.00  0.00    +0.000 A 
ATOM      6  C   UNL     1       2.159   8.735  17.771  0.00  0.00    +0.000 A 
ATOM      7  C   UNL     1       2.310   7.668  18.655  0.00  0.00    +0.000 A 
ATOM      8  N   UNL     1       1.936   7.754  19.951  0.00  0.00    +0.000 NA
ATOM      9  C   UNL     1       1.377   8.921  20.365  0.00  0.00    +0.000 A 
BRANCH   7  10
ATOM     10  C   UNL     1       2.900   6.357  18.188  0.00  0.00    +0.000 C 
BRANCH  10  11
ATOM     11  C   UNL     1       2.120   5.151  18.743  0.00  0.00    +0.000 C 
BRANCH  11  12
ATOM     12  N   UNL     1       2.840   4.374  19.769  0.00  0.00    +0.000 NA
ATOM     13  C   UNL     1       2.919   2.954  19.376  0.00  0.00    +0.000 C 
ATOM     14  C   UNL     1       1.647   2.330  19.915  0.00  0.00    +0.000 C 
ATOM     15  C   UNL     1       1.475   3.024  21.249  0.00  0.00    +0.000 C 
ATOM     16  C   UNL     1       2.165   4.375  21.080  0.00  0.00    +0.000 C 
ENDBRANCH  11  12
ENDBRANCH  10  11
ENDBRANCH   7  10
ENDBRANCH   2   4
BRANCH   1  17
ATOM     17  C   UNL     1      -1.261  12.763  20.624  0.00  0.00    +0.000 C 
BRANCH  17  19
ATOM     18  C   UNL     1      -2.684  12.558  22.675  0.00  0.00    +0.000 C 
ATOM     19  C   UNL     1      -2.565  12.579  21.340  0.00  0.00    +0.000 C 
ENDBRANCH  17  19
ENDBRANCH   1  17
BRANCH   1  20
ATOM     20  C   UNL     1      -1.837  10.552  19.564  0.00  0.00    +0.000 C 
BRANCH  20  21
ATOM     21  C   UNL     1      -2.335  10.645  18.137  0.00  0.00    +0.000 A 
ATOM     22  C   UNL     1      -1.788   9.867  17.108  0.00  0.00    +0.000 A 
ATOM     23  C   UNL     1      -2.382   9.832  15.846  0.00  0.00    +0.000 A 
ATOM     24  C   UNL     1      -3.522  10.583  15.605  0.00  0.00    +0.000 A 
ATOM     25  F   UNL     1      -4.119  10.513  14.403  0.00  0.00    +0.000 F 
ATOM     26  C   UNL     1      -4.067  11.391  16.593  0.00  0.00    +0.000 A 
ATOM     27  C   UNL     1      -3.478  11.421  17.856  0.00  0.00    +0.000 A 
ENDBRANCH  20  21
ENDBRANCH   1  20
TORSDOF 8
ENDMDL
