MODEL 1
REMARK VINA RESULT:      -7.6      0.000      0.000
REMARK  Name = 
REMARK  9 active torsions:
REMARK  status: ('A' for Active; 'I' for Inactive)
REMARK    1  A    between atoms: C_1  and  O_2
REMARK    2  A    between atoms: O_2  and  C_3
REMARK    3  A    between atoms: C_5  and  C_6
REMARK    4  A    between atoms: C_12  and  C_13
REMARK    5  A    between atoms: C_12  and  C_14
REMARK    6  A    between atoms: C_16  and  O_17
REMARK    7  A    between atoms: O_17  and  C_18
REMARK    8  A    between atoms: C_19  and  O_20
REMARK    9  A    between atoms: O_20  and  C_21
REMARK                            x       y       z     vdW  Elec       q    Type
REMARK                         _______ _______ _______ _____ _____    ______ ____
ROOT
ATOM      1  C   UNL     1       3.948   3.390  19.562  0.00  0.00    +0.000 A 
ATOM      2  C   UNL     1       4.621   4.134  18.585  0.00  0.00    +0.000 A 
ATOM      3  C   UNL     1       4.431   5.513  18.467  0.00  0.00    +0.000 A 
ATOM      4  C   UNL     1       3.361   6.067  19.182  0.00  0.00    +0.000 A 
ATOM      5  C   UNL     1       2.634   5.335  20.137  0.00  0.00    +0.000 A 
ATOM      6  C   UNL     1       2.981   4.005  20.377  0.00  0.00    +0.000 A 
ENDROOT
BRANCH   3   7
ATOM      7  C   UNL     1       5.368   6.442  17.694  0.00  0.00    +0.000 C 
ATOM      8  N   UNL     1       4.869   6.649  16.334  0.00  0.00    +0.000 NA
ATOM      9  C   UNL     1       5.477   5.831  15.292  0.00  0.00    +0.000 C 
ATOM     10  C   UNL     1       6.294   4.630  15.742  0.00  0.00    +0.000 C 
ATOM     11  C   UNL     1       7.196   4.923  16.922  0.00  0.00    +0.000 C 
ATOM     12  O   UNL     1       8.125   4.157  17.193  0.00  0.00    +0.000 OA
ATOM     13  C   UNL     1       6.899   6.154  17.773  0.00  0.00    +0.000 C 
ATOM     14  C   UNL     1       7.742   7.306  17.188  0.00  0.00    +0.000 C 
ATOM     15  C   UNL     1       7.373   5.985  19.237  0.00  0.00    +0.000 C 
ATOM     16  H   UNL     1       4.953   7.634  16.081  0.00  0.00    +0.000 HD
ENDBRANCH   3   7
BRANCH   1  18
ATOM     17  C   UNL     1       3.746   1.216  18.637  0.00  0.00    +0.000 C 
ATOM     18  O   UNL     1       4.192   2.043  19.710  0.00  0.00    +0.000 OA
ENDBRANCH   1  18
BRANCH   5  19
ATOM     19  O   UNL     1       1.676   6.109  20.732  0.00  0.00    +0.000 OA
ATOM     20  C   UNL     1       1.718   7.515  20.574  0.00  0.00    +0.000 C 
ENDBRANCH   5  19
BRANCH   6  21
ATOM     21  O   UNL     1       2.375   3.275  21.374  0.00  0.00    +0.000 OA
ATOM     22  C   UNL     1       1.092   2.768  20.983  0.00  0.00    +0.000 C 
ENDBRANCH   6  21
TORSDOF 4
ENDMDL
MODEL 2
REMARK VINA RESULT:      -7.2      0.838      2.872
REMARK  Name = 
REMARK  9 active torsions:
REMARK  status: ('A' for Active; 'I' for Inactive)
REMARK    1  A    between atoms: C_1  and  O_2
REMARK    2  A    between atoms: O_2  and  C_3
REMARK    3  A    between atoms: C_5  and  C_6
REMARK    4  A    between atoms: C_12  and  C_13
REMARK    5  A    between atoms: C_12  and  C_14
REMARK    6  A    between atoms: C_16  and  O_17
REMARK    7  A    between atoms: O_17  and  C_18
REMARK    8  A    between atoms: C_19  and  O_20
REMARK    9  A    between atoms: O_20  and  C_21
REMARK                            x       y       z     vdW  Elec       q    Type
REMARK                         _______ _______ _______ _____ _____    ______ ____
ROOT
ATOM      1  C   UNL     1       2.441   5.366  19.808  0.00  0.00    +0.000 A 
ATOM      2  C   UNL     1       3.554   6.089  19.359  0.00  0.00    +0.000 A 
ATOM      3  C   UNL     1       4.356   5.610  18.321  0.00  0.00    +0.000 A 
ATOM      4  C   UNL     1       4.159   4.278  17.932  0.00  0.00    +0.000 A 
ATOM      5  C   UNL     1       3.078   3.509  18.398  0.00  0.00    +0.000 A 
ATOM      6  C   UNL     1       2.173   4.087  19.289  0.00  0.00    +0.000 A 
ENDROOT
BRANCH   3   7
ATOM      7  C   UNL     1       5.348   6.473  17.540  0.00  0.00    +0.000 C 
ATOM      8  N   UNL     1       4.917   6.606  16.147  0.00  0.00    +0.000 NA
ATOM      9  C   UNL     1       5.556   5.716  15.187  0.00  0.00    +0.000 C 
ATOM     10  C   UNL     1       6.325   4.530  15.746  0.00  0.00    +0.000 C 
ATOM     11  C   UNL     1       7.178   4.877  16.948  0.00  0.00    +0.000 C 
ATOM     12  O   UNL     1       8.077   4.112  17.308  0.00  0.00    +0.000 OA
ATOM     13  C   UNL     1       6.867   6.163  17.709  0.00  0.00    +0.000 C 
ATOM     14  C   UNL     1       7.760   7.262  17.097  0.00  0.00    +0.000 C 
ATOM     15  C   UNL     1       7.269   6.075  19.201  0.00  0.00    +0.000 C 
ATOM     16  H   UNL     1       5.033   7.573  15.840  0.00  0.00    +0.000 HD
ENDBRANCH   3   7
BRANCH   1  18
ATOM     17  C   UNL     1       1.479   7.297  20.791  0.00  0.00    +0.000 C 
ATOM     18  O   UNL     1       1.621   5.878  20.788  0.00  0.00    +0.000 OA
ENDBRANCH   1  18
BRANCH   5  19
ATOM     19  O   UNL     1       3.076   2.263  17.835  0.00  0.00    +0.000 OA
ATOM     20  C   UNL     1       3.746   1.201  18.491  0.00  0.00    +0.000 C 
ENDBRANCH   5  19
BRANCH   6  21
ATOM     21  O   UNL     1       1.041   3.417  19.694  0.00  0.00    +0.000 OA
ATOM     22  C   UNL     1       1.247   2.662  20.895  0.00  0.00    +0.000 C 
ENDBRANCH   6  21
TORSDOF 4
ENDMDL
MODEL 3
REMARK VINA RESULT:      -7.1      1.809      5.702
REMARK  Name = 
REMARK  9 active torsions:
REMARK  status: ('A' for Active; 'I' for Inactive)
REMARK    1  A    between atoms: C_1  and  O_2
REMARK    2  A    between atoms: O_2  and  C_3
REMARK    3  A    between atoms: C_5  and  C_6
REMARK    4  A    between atoms: C_12  and  C_13
REMARK    5  A    between atoms: C_12  and  C_14
REMARK    6  A    between atoms: C_16  and  O_17
REMARK    7  A    between atoms: O_17  and  C_18
REMARK    8  A    between atoms: C_19  and  O_20
REMARK    9  A    between atoms: O_20  and  C_21
REMARK                            x       y       z     vdW  Elec       q    Type
REMARK                         _______ _______ _______ _____ _____    ______ ____
ROOT
ATOM      1  C   UNL     1       5.967   5.334  16.219  0.00  0.00    +0.000 A 
ATOM      2  C   UNL     1       4.778   4.615  16.392  0.00  0.00    +0.000 A 
ATOM      3  C   UNL     1       4.245   4.393  17.663  0.00  0.00    +0.000 A 
ATOM      4  C   UNL     1       5.071   4.687  18.756  0.00  0.00    +0.000 A 
ATOM      5  C   UNL     1       6.294   5.368  18.614  0.00  0.00    +0.000 A 
ATOM      6  C   UNL     1       6.707   5.756  17.339  0.00  0.00    +0.000 A 
ENDROOT
BRANCH   3   7
ATOM      7  C   UNL     1       2.804   3.948  17.921  0.00  0.00    +0.000 C 
ATOM      8  N   UNL     1       1.967   5.104  18.250  0.00  0.00    +0.000 NA
ATOM      9  C   UNL     1       1.721   5.339  19.666  0.00  0.00    +0.000 C 
ATOM     10  C   UNL     1       2.609   4.602  20.656  0.00  0.00    +0.000 C 
ATOM     11  C   UNL     1       2.848   3.153  20.289  0.00  0.00    +0.000 C 
ATOM     12  O   UNL     1       3.278   2.365  21.137  0.00  0.00    +0.000 OA
ATOM     13  C   UNL     1       2.583   2.717  18.852  0.00  0.00    +0.000 C 
ATOM     14  C   UNL     1       1.127   2.206  18.810  0.00  0.00    +0.000 C 
ATOM     15  C   UNL     1       3.463   1.516  18.429  0.00  0.00    +0.000 C 
ATOM     16  H   UNL     1       1.075   5.035  17.759  0.00  0.00    +0.000 HD
ENDBRANCH   3   7
BRANCH   1  18
ATOM     17  C   UNL     1       6.615   4.467  14.110  0.00  0.00    +0.000 C 
ATOM     18  O   UNL     1       6.448   5.602  14.958  0.00  0.00    +0.000 OA
ENDBRANCH   1  18
BRANCH   5  19
ATOM     19  O   UNL     1       6.888   5.579  19.827  0.00  0.00    +0.000 OA
ATOM     20  C   UNL     1       8.267   5.305  19.985  0.00  0.00    +0.000 C 
ENDBRANCH   5  19
BRANCH   6  21
ATOM     21  O   UNL     1       7.839   6.515  17.153  0.00  0.00    +0.000 OA
ATOM     22  C   UNL     1       7.626   7.902  17.446  0.00  0.00    +0.000 C 
ENDBRANCH   6  21
TORSDOF 4
ENDMDL
MODEL 4
REMARK VINA RESULT:      -7.0      2.363      5.725
REMARK  Name = 
REMARK  9 active torsions:
REMARK  status: ('A' for Active; 'I' for Inactive)
REMARK    1  A    between atoms: C_1  and  O_2
REMARK    2  A    between atoms: O_2  and  C_3
REMARK    3  A    between atoms: C_5  and  C_6
REMARK    4  A    between atoms: C_12  and  C_13
REMARK    5  A    between atoms: C_12  and  C_14
REMARK    6  A    between atoms: C_16  and  O_17
REMARK    7  A    between atoms: O_17  and  C_18
REMARK    8  A    between atoms: C_19  and  O_20
REMARK    9  A    between atoms: O_20  and  C_21
REMARK                            x       y       z     vdW  Elec       q    Type
REMARK                         _______ _______ _______ _____ _____    ______ ____
ROOT
ATOM      1  C   UNL     1       5.719   5.597  16.642  0.00  0.00    +0.000 A 
ATOM      2  C   UNL     1       4.826   4.750  17.310  0.00  0.00    +0.000 A 
ATOM      3  C   UNL     1       4.931   4.526  18.684  0.00  0.00    +0.000 A 
ATOM      4  C   UNL     1       6.105   4.969  19.309  0.00  0.00    +0.000 A 
ATOM      5  C   UNL     1       7.046   5.783  18.654  0.00  0.00    +0.000 A 
ATOM      6  C   UNL     1       6.811   6.157  17.330  0.00  0.00    +0.000 A 
ENDROOT
BRANCH   3   7
ATOM      7  C   UNL     1       3.815   3.925  19.540  0.00  0.00    +0.000 C 
ATOM      8  N   UNL     1       3.967   2.472  19.624  0.00  0.00    +0.000 NA
ATOM      9  C   UNL     1       3.144   1.684  18.717  0.00  0.00    +0.000 C 
ATOM     10  C   UNL     1       2.486   2.420  17.561  0.00  0.00    +0.000 C 
ATOM     11  C   UNL     1       1.888   3.754  17.958  0.00  0.00    +0.000 C 
ATOM     12  O   UNL     1       1.069   4.307  17.219  0.00  0.00    +0.000 OA
ATOM     13  C   UNL     1       2.355   4.397  19.260  0.00  0.00    +0.000 C 
ATOM     14  C   UNL     1       1.371   3.935  20.355  0.00  0.00    +0.000 C 
ATOM     15  C   UNL     1       2.251   5.941  19.224  0.00  0.00    +0.000 C 
ATOM     16  H   UNL     1       3.803   2.162  20.583  0.00  0.00    +0.000 HD
ENDBRANCH   3   7
BRANCH   1  18
ATOM     17  C   UNL     1       5.767   4.748  14.429  0.00  0.00    +0.000 C 
ATOM     18  O   UNL     1       5.567   5.859  15.299  0.00  0.00    +0.000 OA
ENDBRANCH   1  18
BRANCH   5  19
ATOM     19  O   UNL     1       8.075   6.122  19.488  0.00  0.00    +0.000 OA
ATOM     20  C   UNL     1       8.510   5.199  20.469  0.00  0.00    +0.000 C 
ENDBRANCH   5  19
BRANCH   6  21
ATOM     21  O   UNL     1       7.642   7.036  16.676  0.00  0.00    +0.000 OA
ATOM     22  C   UNL     1       7.753   8.296  17.351  0.00  0.00    +0.000 C 
ENDBRANCH   6  21
TORSDOF 4
ENDMDL
MODEL 5
REMARK VINA RESULT:      -7.0      2.238      6.056
REMARK  Name = 
REMARK  9 active torsions:
REMARK  status: ('A' for Active; 'I' for Inactive)
REMARK    1  A    between atoms: C_1  and  O_2
REMARK    2  A    between atoms: O_2  and  C_3
REMARK    3  A    between atoms: C_5  and  C_6
REMARK    4  A    between atoms: C_12  and  C_13
REMARK    5  A    between atoms: C_12  and  C_14
REMARK    6  A    between atoms: C_16  and  O_17
REMARK    7  A    between atoms: O_17  and  C_18
REMARK    8  A    between atoms: C_19  and  O_20
REMARK    9  A    between atoms: O_20  and  C_21
REMARK                            x       y       z     vdW  Elec       q    Type
REMARK                         _______ _______ _______ _____ _____    ______ ____
ROOT
ATOM      1  C   UNL     1       4.417   6.843  17.829  0.00  0.00    +0.000 A 
ATOM      2  C   UNL     1       3.729   5.822  18.498  0.00  0.00    +0.000 A 
ATOM      3  C   UNL     1       4.298   4.558  18.666  0.00  0.00    +0.000 A 
ATOM      4  C   UNL     1       5.453   4.279  17.924  0.00  0.00    +0.000 A 
ATOM      5  C   UNL     1       6.143   5.271  17.204  0.00  0.00    +0.000 A 
ATOM      6  C   UNL     1       5.656   6.578  17.219  0.00  0.00    +0.000 A 
ENDROOT
BRANCH   3   7
ATOM      7  C   UNL     1       3.792   3.520  19.670  0.00  0.00    +0.000 C 
ATOM      8  N   UNL     1       4.441   2.229  19.436  0.00  0.00    +0.000 NA
ATOM      9  C   UNL     1       3.681   1.257  18.661  0.00  0.00    +0.000 C 
ATOM     10  C   UNL     1       2.476   1.773  17.892  0.00  0.00    +0.000 C 
ATOM     11  C   UNL     1       1.630   2.750  18.681  0.00  0.00    +0.000 C 
ATOM     12  O   UNL     1       0.480   3.006  18.314  0.00  0.00    +0.000 OA
ATOM     13  C   UNL     1       2.252   3.426  19.899  0.00  0.00    +0.000 C 
ATOM     14  C   UNL     1       1.894   2.550  21.117  0.00  0.00    +0.000 C 
ATOM     15  C   UNL     1       1.631   4.816  20.181  0.00  0.00    +0.000 C 
ATOM     16  H   UNL     1       4.712   1.812  20.327  0.00  0.00    +0.000 HD
ENDBRANCH   3   7
BRANCH   1  18
ATOM     17  C   UNL     1       2.460   8.180  17.903  0.00  0.00    +0.000 C 
ATOM     18  O   UNL     1       3.873   8.103  17.725  0.00  0.00    +0.000 OA
ENDBRANCH   1  18
BRANCH   5  19
ATOM     19  O   UNL     1       7.263   4.762  16.607  0.00  0.00    +0.000 OA
ATOM     20  C   UNL     1       7.264   4.529  15.211  0.00  0.00    +0.000 C 
ENDBRANCH   5  19
BRANCH   6  21
ATOM     21  O   UNL     1       6.347   7.607  16.621  0.00  0.00    +0.000 OA
ATOM     22  C   UNL     1       7.477   8.034  17.393  0.00  0.00    +0.000 C 
ENDBRANCH   6  21
TORSDOF 4
ENDMDL
MODEL 6
REMARK VINA RESULT:      -6.8      1.910      5.618
REMARK  Name = 
REMARK  9 active torsions:
REMARK  status: ('A' for Active; 'I' for Inactive)
REMARK    1  A    between atoms: C_1  and  O_2
REMARK    2  A    between atoms: O_2  and  C_3
REMARK    3  A    between atoms: C_5  and  C_6
REMARK    4  A    between atoms: C_12  and  C_13
REMARK    5  A    between atoms: C_12  and  C_14
REMARK    6  A    between atoms: C_16  and  O_17
REMARK    7  A    between atoms: O_17  and  C_18
REMARK    8  A    between atoms: C_19  and  O_20
REMARK    9  A    between atoms: O_20  and  C_21
REMARK                            x       y       z     vdW  Elec       q    Type
REMARK                         _______ _______ _______ _____ _____    ______ ____
ROOT
ATOM      1  C   UNL     1       6.223   4.960  16.140  0.00  0.00    +0.000 A 
ATOM      2  C   UNL     1       5.225   4.000  16.351  0.00  0.00    +0.000 A 
ATOM      3  C   UNL     1       4.732   3.739  17.631  0.00  0.00    +0.000 A 
ATOM      4  C   UNL     1       5.449   4.278  18.707  0.00  0.00    +0.000 A 
ATOM      5  C   UNL     1       6.488   5.209  18.529  0.00  0.00    +0.000 A 
ATOM      6  C   UNL     1       6.826   5.604  17.235  0.00  0.00    +0.000 A 
ENDROOT
BRANCH   3   7
ATOM      7  C   UNL     1       3.425   2.994  17.908  0.00  0.00    +0.000 C 
ATOM      8  N   UNL     1       2.367   3.477  17.018  0.00  0.00    +0.000 NA
ATOM      9  C   UNL     1       1.454   4.463  17.580  0.00  0.00    +0.000 C 
ATOM     10  C   UNL     1       1.875   5.141  18.874  0.00  0.00    +0.000 C 
ATOM     11  C   UNL     1       2.475   4.189  19.886  0.00  0.00    +0.000 C 
ATOM     12  O   UNL     1       2.572   4.527  21.069  0.00  0.00    +0.000 OA
ATOM     13  C   UNL     1       2.983   2.837  19.395  0.00  0.00    +0.000 C 
ATOM     14  C   UNL     1       1.814   1.843  19.556  0.00  0.00    +0.000 C 
ATOM     15  C   UNL     1       4.130   2.284  20.276  0.00  0.00    +0.000 C 
ATOM     16  H   UNL     1       1.831   2.687  16.658  0.00  0.00    +0.000 HD
ENDBRANCH   3   7
BRANCH   1  18
ATOM     17  C   UNL     1       6.400   4.253  13.883  0.00  0.00    +0.000 C 
ATOM     18  O   UNL     1       6.656   5.254  14.866  0.00  0.00    +0.000 OA
ENDBRANCH   1  18
BRANCH   5  19
ATOM     19  O   UNL     1       6.995   5.622  19.730  0.00  0.00    +0.000 OA
ATOM     20  C   UNL     1       8.350   5.360  20.042  0.00  0.00    +0.000 C 
ENDBRANCH   5  19
BRANCH   6  21
ATOM     21  O   UNL     1       7.760   6.589  17.008  0.00  0.00    +0.000 OA
ATOM     22  C   UNL     1       7.298   7.888  17.400  0.00  0.00    +0.000 C 
ENDBRANCH   6  21
TORSDOF 4
ENDMDL
MODEL 7
REMARK VINA RESULT:      -6.7      2.381      6.276
REMARK  Name = 
REMARK  9 active torsions:
REMARK  status: ('A' for Active; 'I' for Inactive)
REMARK    1  A    between atoms: C_1  and  O_2
REMARK    2  A    between atoms: O_2  and  C_3
REMARK    3  A    between atoms: C_5  and  C_6
REMARK    4  A    between atoms: C_12  and  C_13
REMARK    5  A    between atoms: C_12  and  C_14
REMARK    6  A    between atoms: C_16  and  O_17
REMARK    7  A    between atoms: O_17  and  C_18
REMARK    8  A    between atoms: C_19  and  O_20
REMARK    9  A    between atoms: O_20  and  C_21
REMARK                            x       y       z     vdW  Elec       q    Type
REMARK                         _______ _______ _______ _____ _____    ______ ____
ROOT
ATOM      1  C   UNL     1       6.968   6.000  16.540  0.00  0.00    +0.000 A 
ATOM      2  C   UNL     1       5.987   5.841  17.527  0.00  0.00    +0.000 A 
ATOM      3  C   UNL     1       5.130   4.738  17.524  0.00  0.00    +0.000 A 
ATOM      4  C   UNL     1       5.120   3.948  16.366  0.00  0.00    +0.000 A 
ATOM      5  C   UNL     1       6.062   4.111  15.335  0.00  0.00    +0.000 A 
ATOM      6  C   UNL     1       7.038   5.101  15.461  0.00  0.00    +0.000 A 
ENDROOT
BRANCH   3   7
ATOM      7  C   UNL     1       4.295   4.301  18.728  0.00  0.00    +0.000 C 
ATOM      8  N   UNL     1       4.535   2.888  19.027  0.00  0.00    +0.000 NA
ATOM      9  C   UNL     1       3.551   1.945  18.513  0.00  0.00    +0.000 C 
ATOM     10  C   UNL     1       2.589   2.454  17.452  0.00  0.00    +0.000 C 
ATOM     11  C   UNL     1       2.045   3.836  17.745  0.00  0.00    +0.000 C 
ATOM     12  O   UNL     1       1.040   4.242  17.153  0.00  0.00    +0.000 OA
ATOM     13  C   UNL     1       2.789   4.710  18.750  0.00  0.00    +0.000 C 
ATOM     14  C   UNL     1       2.134   4.454  20.123  0.00  0.00    +0.000 C 
ATOM     15  C   UNL     1       2.603   6.220  18.468  0.00  0.00    +0.000 C 
ATOM     16  H   UNL     1       4.631   2.760  20.035  0.00  0.00    +0.000 HD
ENDBRANCH   3   7
BRANCH   1  18
ATOM     17  C   UNL     1       7.590   8.025  17.605  0.00  0.00    +0.000 C 
ATOM     18  O   UNL     1       7.849   7.057  16.590  0.00  0.00    +0.000 OA
ENDBRANCH   1  18
BRANCH   5  19
ATOM     19  O   UNL     1       5.873   3.191  14.341  0.00  0.00    +0.000 OA
ATOM     20  C   UNL     1       5.102   3.538  13.206  0.00  0.00    +0.000 C 
ENDBRANCH   5  19
BRANCH   6  21
ATOM     21  O   UNL     1       8.046   5.234  14.535  0.00  0.00    +0.000 OA
ATOM     22  C   UNL     1       7.557   5.586  13.234  0.00  0.00    +0.000 C 
ENDBRANCH   6  21
TORSDOF 4
ENDMDL
MODEL 8
REMARK VINA RESULT:      -6.4      2.389      5.441
REMARK  Name = 
REMARK  9 active torsions:
REMARK  status: ('A' for Active; 'I' for Inactive)
REMARK    1  A    between atoms: C_1  and  O_2
REMARK    2  A    between atoms: O_2  and  C_3
REMARK    3  A    between atoms: C_5  and  C_6
REMARK    4  A    between atoms: C_12  and  C_13
REMARK    5  A    between atoms: C_12  and  C_14
REMARK    6  A    between atoms: C_16  and  O_17
REMARK    7  A    between atoms: O_17  and  C_18
REMARK    8  A    between atoms: C_19  and  O_20
REMARK    9  A    between atoms: O_20  and  C_21
REMARK                            x       y       z     vdW  Elec       q    Type
REMARK                         _______ _______ _______ _____ _____    ______ ____
ROOT
ATOM      1  C   UNL     1       6.598   5.290  18.585  0.00  0.00    +0.000 A 
ATOM      2  C   UNL     1       5.770   4.520  19.411  0.00  0.00    +0.000 A 
ATOM      3  C   UNL     1       4.379   4.606  19.323  0.00  0.00    +0.000 A 
ATOM      4  C   UNL     1       3.857   5.668  18.572  0.00  0.00    +0.000 A 
ATOM      5  C   UNL     1       4.666   6.490  17.768  0.00  0.00    +0.000 A 
ATOM      6  C   UNL     1       6.040   6.250  17.722  0.00  0.00    +0.000 A 
ENDROOT
BRANCH   3   7
ATOM      7  C   UNL     1       3.419   3.569  19.909  0.00  0.00    +0.000 C 
ATOM      8  N   UNL     1       3.920   2.216  19.658  0.00  0.00    +0.000 NA
ATOM      9  C   UNL     1       3.340   1.516  18.519  0.00  0.00    +0.000 C 
ATOM     10  C   UNL     1       2.555   2.349  17.519  0.00  0.00    +0.000 C 
ATOM     11  C   UNL     1       1.639   3.365  18.167  0.00  0.00    +0.000 C 
ATOM     12  O   UNL     1       0.731   3.883  17.512  0.00  0.00    +0.000 OA
ATOM     13  C   UNL     1       1.897   3.748  19.621  0.00  0.00    +0.000 C 
ATOM     14  C   UNL     1       1.024   2.812  20.483  0.00  0.00    +0.000 C 
ATOM     15  C   UNL     1       1.420   5.185  19.944  0.00  0.00    +0.000 C 
ATOM     16  H   UNL     1       3.809   1.646  20.497  0.00  0.00    +0.000 HD
ENDBRANCH   3   7
BRANCH   1  18
ATOM     17  C   UNL     1       8.564   5.411  19.905  0.00  0.00    +0.000 C 
ATOM     18  O   UNL     1       7.967   5.150  18.637  0.00  0.00    +0.000 OA
ENDBRANCH   1  18
BRANCH   5  19
ATOM     19  O   UNL     1       3.918   7.418  17.097  0.00  0.00    +0.000 OA
ATOM     20  C   UNL     1       2.863   8.081  17.769  0.00  0.00    +0.000 C 
ENDBRANCH   5  19
BRANCH   6  21
ATOM     21  O   UNL     1       6.862   6.954  16.872  0.00  0.00    +0.000 OA
ATOM     22  C   UNL     1       7.458   8.095  17.502  0.00  0.00    +0.000 C 
ENDBRANCH   6  21
TORSDOF 4
ENDMDL
MODEL 9
REMARK VINA RESULT:      -6.3      1.746      3.558
REMARK  Name = 
REMARK  9 active torsions:
REMARK  status: ('A' for Active; 'I' for Inactive)
REMARK    1  A    between atoms: C_1  and  O_2
REMARK    2  A    between atoms: O_2  and  C_3
REMARK    3  A    between atoms: C_5  and  C_6
REMARK    4  A    between atoms: C_12  and  C_13
REMARK    5  A    between atoms: C_12  and  C_14
REMARK    6  A    between atoms: C_16  and  O_17
REMARK    7  A    between atoms: O_17  and  C_18
REMARK    8  A    between atoms: C_19  and  O_20
REMARK    9  A    between atoms: O_20  and  C_21
REMARK                            x       y       z     vdW  Elec       q    Type
REMARK                         _______ _______ _______ _____ _____    ______ ____
ROOT
ATOM      1  C   UNL     1       3.193   5.697  19.645  0.00  0.00    +0.000 A 
ATOM      2  C   UNL     1       4.420   5.828  18.984  0.00  0.00    +0.000 A 
ATOM      3  C   UNL     1       5.250   4.724  18.775  0.00  0.00    +0.000 A 
ATOM      4  C   UNL     1       4.931   3.552  19.472  0.00  0.00    +0.000 A 
ATOM      5  C   UNL     1       3.728   3.403  20.185  0.00  0.00    +0.000 A 
ATOM      6  C   UNL     1       2.821   4.463  20.209  0.00  0.00    +0.000 A 
ENDROOT
BRANCH   3   7
ATOM      7  C   UNL     1       6.404   4.701  17.772  0.00  0.00    +0.000 C 
ATOM      8  N   UNL     1       7.550   5.443  18.300  0.00  0.00    +0.000 NA
ATOM      9  C   UNL     1       7.703   6.814  17.830  0.00  0.00    +0.000 C 
ATOM     10  C   UNL     1       6.508   7.446  17.135  0.00  0.00    +0.000 C 
ATOM     11  C   UNL     1       5.818   6.517  16.158  0.00  0.00    +0.000 C 
ATOM     12  O   UNL     1       5.047   6.976  15.311  0.00  0.00    +0.000 OA
ATOM     13  C   UNL     1       6.073   5.018  16.281  0.00  0.00    +0.000 C 
ATOM     14  C   UNL     1       7.252   4.696  15.338  0.00  0.00    +0.000 C 
ATOM     15  C   UNL     1       4.881   4.174  15.769  0.00  0.00    +0.000 C 
ATOM     16  H   UNL     1       8.411   4.926  18.116  0.00  0.00    +0.000 HD
ENDBRANCH   3   7
BRANCH   1  18
ATOM     17  C   UNL     1       2.345   7.699  18.699  0.00  0.00    +0.000 C 
ATOM     18  O   UNL     1       2.354   6.780  19.789  0.00  0.00    +0.000 OA
ENDBRANCH   1  18
BRANCH   5  19
ATOM     19  O   UNL     1       3.628   2.155  20.735  0.00  0.00    +0.000 OA
ATOM     20  C   UNL     1       4.798   1.383  20.930  0.00  0.00    +0.000 C 
ENDBRANCH   5  19
BRANCH   6  21
ATOM     21  O   UNL     1       1.585   4.335  20.800  0.00  0.00    +0.000 OA
ATOM     22  C   UNL     1       0.677   3.553  20.014  0.00  0.00    +0.000 C 
ENDBRANCH   6  21
TORSDOF 4
ENDMDL
