MODEL 1
REMARK VINA RESULT:      -6.0      0.000      0.000
REMARK  Name = 
REMARK  8 active torsions:
REMARK  status: ('A' for Active; 'I' for Inactive)
REMARK    1  A    between atoms: C_1  and  C_2
REMARK    2  A    between atoms: C_2  and  C_3
REMARK    3  A    between atoms: C_3  and  C_4
REMARK    4  A    between atoms: C_3  and  N_10
REMARK    5  A    between atoms: C_11  and  C_12
REMARK    6  A    between atoms: C_12  and  O_14
REMARK    7  A    between atoms: O_14  and  C_15
REMARK    8  A    between atoms: C_18  and  S_19
REMARK                            x       y       z     vdW  Elec       q    Type
REMARK                         _______ _______ _______ _____ _____    ______ ____
ROOT
ATOM      1  N   UNL     1       3.893   4.977  18.691  0.00  0.00    +0.000 N 
ATOM      2  C   UNL     1       3.515   4.038  19.648  0.00  0.00    +0.000 A 
ATOM      3  C   UNL     1       2.504   4.669  20.360  0.00  0.00    +0.000 A 
ATOM      4  N   UNL     1       2.257   5.924  19.893  0.00  0.00    +0.000 NA
ATOM      5  C   UNL     1       3.096   6.087  18.903  0.00  0.00    +0.000 A 
ENDROOT
BRANCH   2   6
ATOM      6  C   UNL     1       4.049   2.717  19.875  0.00  0.00    +0.000 C 
ATOM      7  O   UNL     1       5.106   2.449  20.424  0.00  0.00    +0.000 OA
BRANCH   6   8
ATOM      8  O   UNL     1       3.191   1.762  19.413  0.00  0.00    +0.000 OA
ATOM      9  C   UNL     1       3.403   1.451  18.033  0.00  0.00    +0.000 C 
ENDBRANCH   6   8
ENDBRANCH   2   6
BRANCH   5  10
ATOM     10  S   UNL     1       3.160   7.559  17.992  0.00  0.00    +0.000 S 
ATOM     11  H   UNL     1       4.492   7.582  17.841  0.00  0.00    +0.000 HD
ENDBRANCH   5  10
BRANCH   1  12
ATOM     12  C   UNL     1       4.936   4.863  17.656  0.00  0.00    +0.000 C 
BRANCH  12  13
ATOM     13  C   UNL     1       6.141   5.749  17.979  0.00  0.00    +0.000 A 
ATOM     14  C   UNL     1       7.017   5.492  19.043  0.00  0.00    +0.000 A 
ATOM     15  C   UNL     1       8.106   6.329  19.304  0.00  0.00    +0.000 A 
ATOM     16  C   UNL     1       8.328   7.454  18.517  0.00  0.00    +0.000 A 
ATOM     17  C   UNL     1       7.466   7.739  17.464  0.00  0.00    +0.000 A 
ATOM     18  C   UNL     1       6.388   6.893  17.194  0.00  0.00    +0.000 A 
ENDBRANCH  12  13
BRANCH  12  20
ATOM     19  C   UNL     1       5.396   4.261  15.194  0.00  0.00    +0.000 C 
ATOM     20  C   UNL     1       4.431   4.892  16.191  0.00  0.00    +0.000 C 
ENDBRANCH  12  20
ENDBRANCH   1  12
TORSDOF 6
ENDMDL
MODEL 2
REMARK VINA RESULT:      -5.9      2.251      5.222
REMARK  Name = 
REMARK  8 active torsions:
REMARK  status: ('A' for Active; 'I' for Inactive)
REMARK    1  A    between atoms: C_1  and  C_2
REMARK    2  A    between atoms: C_2  and  C_3
REMARK    3  A    between atoms: C_3  and  C_4
REMARK    4  A    between atoms: C_3  and  N_10
REMARK    5  A    between atoms: C_11  and  C_12
REMARK    6  A    between atoms: C_12  and  O_14
REMARK    7  A    between atoms: O_14  and  C_15
REMARK    8  A    between atoms: C_18  and  S_19
REMARK                            x       y       z     vdW  Elec       q    Type
REMARK                         _______ _______ _______ _____ _____    ______ ____
ROOT
ATOM      1  N   UNL     1       4.714   4.882  18.116  0.00  0.00    +0.000 N 
ATOM      2  C   UNL     1       6.097   4.952  17.964  0.00  0.00    +0.000 A 
ATOM      3  C   UNL     1       6.351   4.182  16.836  0.00  0.00    +0.000 A 
ATOM      4  N   UNL     1       5.211   3.655  16.309  0.00  0.00    +0.000 NA
ATOM      5  C   UNL     1       4.251   4.083  17.088  0.00  0.00    +0.000 A 
ENDROOT
BRANCH   2   6
ATOM      6  C   UNL     1       7.061   5.642  18.785  0.00  0.00    +0.000 C 
ATOM      7  O   UNL     1       7.161   5.569  19.999  0.00  0.00    +0.000 OA
BRANCH   6   8
ATOM      8  O   UNL     1       7.901   6.394  18.016  0.00  0.00    +0.000 OA
ATOM      9  C   UNL     1       7.325   7.644  17.629  0.00  0.00    +0.000 C 
ENDBRANCH   6   8
ENDBRANCH   2   6
BRANCH   5  10
ATOM     10  S   UNL     1       2.594   3.657  16.813  0.00  0.00    +0.000 S 
ATOM     11  H   UNL     1       2.825   2.812  15.799  0.00  0.00    +0.000 HD
ENDBRANCH   5  10
BRANCH   1  12
ATOM     12  C   UNL     1       3.874   5.503  19.156  0.00  0.00    +0.000 C 
BRANCH  12  13
ATOM     13  C   UNL     1       3.142   4.446  19.986  0.00  0.00    +0.000 A 
ATOM     14  C   UNL     1       3.768   3.293  20.481  0.00  0.00    +0.000 A 
ATOM     15  C   UNL     1       3.061   2.351  21.234  0.00  0.00    +0.000 A 
ATOM     16  C   UNL     1       1.706   2.533  21.489  0.00  0.00    +0.000 A 
ATOM     17  C   UNL     1       1.058   3.661  20.997  0.00  0.00    +0.000 A 
ATOM     18  C   UNL     1       1.770   4.610  20.259  0.00  0.00    +0.000 A 
ENDBRANCH  12  13
BRANCH  12  20
ATOM     19  C   UNL     1       3.653   7.499  17.543  0.00  0.00    +0.000 C 
ATOM     20  C   UNL     1       3.035   6.723  18.700  0.00  0.00    +0.000 C 
ENDBRANCH  12  20
ENDBRANCH   1  12
TORSDOF 6
ENDMDL
MODEL 3
REMARK VINA RESULT:      -5.9      0.436      1.185
REMARK  Name = 
REMARK  8 active torsions:
REMARK  status: ('A' for Active; 'I' for Inactive)
REMARK    1  A    between atoms: C_1  and  C_2
REMARK    2  A    between atoms: C_2  and  C_3
REMARK    3  A    between atoms: C_3  and  C_4
REMARK    4  A    between atoms: C_3  and  N_10
REMARK    5  A    between atoms: C_11  and  C_12
REMARK    6  A    between atoms: C_12  and  O_14
REMARK    7  A    between atoms: O_14  and  C_15
REMARK    8  A    between atoms: C_18  and  S_19
REMARK                            x       y       z     vdW  Elec       q    Type
REMARK                         _______ _______ _______ _____ _____    ______ ____
ROOT
ATOM      1  N   UNL     1       3.987   4.690  18.474  0.00  0.00    +0.000 N 
ATOM      2  C   UNL     1       3.604   3.693  19.368  0.00  0.00    +0.000 A 
ATOM      3  C   UNL     1       2.546   4.255  20.069  0.00  0.00    +0.000 A 
ATOM      4  N   UNL     1       2.273   5.523  19.654  0.00  0.00    +0.000 NA
ATOM      5  C   UNL     1       3.145   5.762  18.707  0.00  0.00    +0.000 A 
ENDROOT
BRANCH   2   6
ATOM      6  C   UNL     1       4.174   2.380  19.553  0.00  0.00    +0.000 C 
ATOM      7  O   UNL     1       5.064   2.082  20.333  0.00  0.00    +0.000 OA
BRANCH   6   8
ATOM      8  O   UNL     1       3.561   1.468  18.744  0.00  0.00    +0.000 OA
ATOM      9  C   UNL     1       2.620   2.067  17.850  0.00  0.00    +0.000 C 
ENDBRANCH   6   8
ENDBRANCH   2   6
BRANCH   5  10
ATOM     10  S   UNL     1       3.193   7.278  17.871  0.00  0.00    +0.000 S 
ATOM     11  H   UNL     1       1.931   7.238  17.420  0.00  0.00    +0.000 HD
ENDBRANCH   5  10
BRANCH   1  12
ATOM     12  C   UNL     1       5.071   4.662  17.477  0.00  0.00    +0.000 C 
BRANCH  12  13
ATOM     13  C   UNL     1       6.199   5.626  17.852  0.00  0.00    +0.000 A 
ATOM     14  C   UNL     1       6.493   6.783  17.117  0.00  0.00    +0.000 A 
ATOM     15  C   UNL     1       7.534   7.636  17.495  0.00  0.00    +0.000 A 
ATOM     16  C   UNL     1       8.317   7.337  18.604  0.00  0.00    +0.000 A 
ATOM     17  C   UNL     1       8.055   6.189  19.342  0.00  0.00    +0.000 A 
ATOM     18  C   UNL     1       7.004   5.346  18.974  0.00  0.00    +0.000 A 
ENDBRANCH  12  13
BRANCH  12  20
ATOM     19  C   UNL     1       5.657   4.110  15.030  0.00  0.00    +0.000 C 
ATOM     20  C   UNL     1       4.620   4.672  15.995  0.00  0.00    +0.000 C 
ENDBRANCH  12  20
ENDBRANCH   1  12
TORSDOF 6
ENDMDL
MODEL 4
REMARK VINA RESULT:      -5.9      2.581      5.115
REMARK  Name = 
REMARK  8 active torsions:
REMARK  status: ('A' for Active; 'I' for Inactive)
REMARK    1  A    between atoms: C_1  and  C_2
REMARK    2  A    between atoms: C_2  and  C_3
REMARK    3  A    between atoms: C_3  and  C_4
REMARK    4  A    between atoms: C_3  and  N_10
REMARK    5  A    between atoms: C_11  and  C_12
REMARK    6  A    between atoms: C_12  and  O_14
REMARK    7  A    between atoms: O_14  and  C_15
REMARK    8  A    between atoms: C_18  and  S_19
REMARK                            x       y       z     vdW  Elec       q    Type
REMARK                         _______ _______ _______ _____ _____    ______ ____
ROOT
ATOM      1  N   UNL     1       5.103   5.614  17.173  0.00  0.00    +0.000 N 
ATOM      2  C   UNL     1       5.615   5.792  15.889  0.00  0.00    +0.000 A 
ATOM      3  C   UNL     1       4.931   6.898  15.403  0.00  0.00    +0.000 A 
ATOM      4  N   UNL     1       4.042   7.389  16.310  0.00  0.00    +0.000 NA
ATOM      5  C   UNL     1       4.160   6.608  17.354  0.00  0.00    +0.000 A 
ENDROOT
BRANCH   2   6
ATOM      6  C   UNL     1       6.612   5.010  15.200  0.00  0.00    +0.000 C 
ATOM      7  O   UNL     1       7.778   5.322  15.017  0.00  0.00    +0.000 OA
BRANCH   6   8
ATOM      8  O   UNL     1       6.090   3.820  14.781  0.00  0.00    +0.000 OA
ATOM      9  C   UNL     1       6.015   3.720  13.357  0.00  0.00    +0.000 C 
ENDBRANCH   6   8
ENDBRANCH   2   6
BRANCH   5  10
ATOM     10  S   UNL     1       3.207   6.842  18.781  0.00  0.00    +0.000 S 
ATOM     11  H   UNL     1       2.190   6.051  18.410  0.00  0.00    +0.000 HD
ENDBRANCH   5  10
BRANCH   1  12
ATOM     12  C   UNL     1       5.452   4.581  18.164  0.00  0.00    +0.000 C 
BRANCH  12  13
ATOM     13  C   UNL     1       4.264   3.660  18.450  0.00  0.00    +0.000 A 
ATOM     14  C   UNL     1       3.457   3.116  17.441  0.00  0.00    +0.000 A 
ATOM     15  C   UNL     1       2.380   2.279  17.747  0.00  0.00    +0.000 A 
ATOM     16  C   UNL     1       2.074   1.986  19.072  0.00  0.00    +0.000 A 
ATOM     17  C   UNL     1       2.851   2.524  20.092  0.00  0.00    +0.000 A 
ATOM     18  C   UNL     1       3.938   3.346  19.784  0.00  0.00    +0.000 A 
ENDBRANCH  12  13
BRANCH  12  20
ATOM     19  C   UNL     1       7.573   5.750  19.042  0.00  0.00    +0.000 C 
ATOM     20  C   UNL     1       6.252   5.077  19.395  0.00  0.00    +0.000 C 
ENDBRANCH  12  20
ENDBRANCH   1  12
TORSDOF 6
ENDMDL
MODEL 5
REMARK VINA RESULT:      -5.9      0.813      1.670
REMARK  Name = 
REMARK  8 active torsions:
REMARK  status: ('A' for Active; 'I' for Inactive)
REMARK    1  A    between atoms: C_1  and  C_2
REMARK    2  A    between atoms: C_2  and  C_3
REMARK    3  A    between atoms: C_3  and  C_4
REMARK    4  A    between atoms: C_3  and  N_10
REMARK    5  A    between atoms: C_11  and  C_12
REMARK    6  A    between atoms: C_12  and  O_14
REMARK    7  A    between atoms: O_14  and  C_15
REMARK    8  A    between atoms: C_18  and  S_19
REMARK                            x       y       z     vdW  Elec       q    Type
REMARK                         _______ _______ _______ _____ _____    ______ ____
ROOT
ATOM      1  N   UNL     1       3.947   4.761  17.948  0.00  0.00    +0.000 N 
ATOM      2  C   UNL     1       3.420   3.715  18.702  0.00  0.00    +0.000 A 
ATOM      3  C   UNL     1       2.316   4.275  19.331  0.00  0.00    +0.000 A 
ATOM      4  N   UNL     1       2.152   5.587  19.005  0.00  0.00    +0.000 NA
ATOM      5  C   UNL     1       3.135   5.855  18.184  0.00  0.00    +0.000 A 
ENDROOT
BRANCH   2   6
ATOM      6  C   UNL     1       3.903   2.361  18.828  0.00  0.00    +0.000 C 
ATOM      7  O   UNL     1       3.468   1.381  18.244  0.00  0.00    +0.000 OA
BRANCH   6   8
ATOM      8  O   UNL     1       4.962   2.303  19.687  0.00  0.00    +0.000 OA
ATOM      9  C   UNL     1       4.607   1.769  20.965  0.00  0.00    +0.000 C 
ENDBRANCH   6   8
ENDBRANCH   2   6
BRANCH   5  10
ATOM     10  S   UNL     1       3.348   7.431  17.499  0.00  0.00    +0.000 S 
ATOM     11  H   UNL     1       2.056   7.787  17.543  0.00  0.00    +0.000 HD
ENDBRANCH   5  10
BRANCH   1  12
ATOM     12  C   UNL     1       5.135   4.756  17.076  0.00  0.00    +0.000 C 
BRANCH  12  13
ATOM     13  C   UNL     1       6.244   5.647  17.641  0.00  0.00    +0.000 A 
ATOM     14  C   UNL     1       6.651   6.842  17.030  0.00  0.00    +0.000 A 
ATOM     15  C   UNL     1       7.670   7.626  17.579  0.00  0.00    +0.000 A 
ATOM     16  C   UNL     1       8.320   7.217  18.739  0.00  0.00    +0.000 A 
ATOM     17  C   UNL     1       7.945   6.029  19.356  0.00  0.00    +0.000 A 
ATOM     18  C   UNL     1       6.914   5.256  18.816  0.00  0.00    +0.000 A 
ENDBRANCH  12  13
BRANCH  12  20
ATOM     19  C   UNL     1       5.855   4.145  14.680  0.00  0.00    +0.000 C 
ATOM     20  C   UNL     1       4.853   4.884  15.558  0.00  0.00    +0.000 C 
ENDBRANCH  12  20
ENDBRANCH   1  12
TORSDOF 6
ENDMDL
MODEL 6
REMARK VINA RESULT:      -5.8      0.695      1.161
REMARK  Name = 
REMARK  8 active torsions:
REMARK  status: ('A' for Active; 'I' for Inactive)
REMARK    1  A    between atoms: C_1  and  C_2
REMARK    2  A    between atoms: C_2  and  C_3
REMARK    3  A    between atoms: C_3  and  C_4
REMARK    4  A    between atoms: C_3  and  N_10
REMARK    5  A    between atoms: C_11  and  C_12
REMARK    6  A    between atoms: C_12  and  O_14
REMARK    7  A    between atoms: O_14  and  C_15
REMARK    8  A    between atoms: C_18  and  S_19
REMARK                            x       y       z     vdW  Elec       q    Type
REMARK                         _______ _______ _______ _____ _____    ______ ____
ROOT
ATOM      1  N   UNL     1       3.973   4.678  18.316  0.00  0.00    +0.000 N 
ATOM      2  C   UNL     1       3.538   3.663  19.165  0.00  0.00    +0.000 A 
ATOM      3  C   UNL     1       2.461   4.224  19.839  0.00  0.00    +0.000 A 
ATOM      4  N   UNL     1       2.227   5.507  19.449  0.00  0.00    +0.000 NA
ATOM      5  C   UNL     1       3.140   5.757  18.545  0.00  0.00    +0.000 A 
ENDROOT
BRANCH   2   6
ATOM      6  C   UNL     1       4.078   2.336  19.335  0.00  0.00    +0.000 C 
ATOM      7  O   UNL     1       3.729   1.331  18.737  0.00  0.00    +0.000 OA
BRANCH   6   8
ATOM      8  O   UNL     1       5.083   2.337  20.258  0.00  0.00    +0.000 OA
ATOM      9  C   UNL     1       5.193   1.094  20.956  0.00  0.00    +0.000 C 
ENDBRANCH   6   8
ENDBRANCH   2   6
BRANCH   5  10
ATOM     10  S   UNL     1       3.247   7.295  17.756  0.00  0.00    +0.000 S 
ATOM     11  H   UNL     1       4.039   7.875  18.669  0.00  0.00    +0.000 HD
ENDBRANCH   5  10
BRANCH   1  12
ATOM     12  C   UNL     1       5.096   4.658  17.363  0.00  0.00    +0.000 C 
BRANCH  12  13
ATOM     13  C   UNL     1       6.237   5.566  17.827  0.00  0.00    +0.000 A 
ATOM     14  C   UNL     1       6.978   5.329  18.994  0.00  0.00    +0.000 A 
ATOM     15  C   UNL     1       8.012   6.185  19.383  0.00  0.00    +0.000 A 
ATOM     16  C   UNL     1       8.311   7.312  18.623  0.00  0.00    +0.000 A 
ATOM     17  C   UNL     1       7.582   7.577  17.470  0.00  0.00    +0.000 A 
ATOM     18  C   UNL     1       6.560   6.711  17.073  0.00  0.00    +0.000 A 
ENDBRANCH  12  13
BRANCH  12  20
ATOM     19  C   UNL     1       5.711   4.092  14.927  0.00  0.00    +0.000 C 
ATOM     20  C   UNL     1       4.708   4.750  15.866  0.00  0.00    +0.000 C 
ENDBRANCH  12  20
ENDBRANCH   1  12
TORSDOF 6
ENDMDL
MODEL 7
REMARK VINA RESULT:      -5.8      2.595      5.059
REMARK  Name = 
REMARK  8 active torsions:
REMARK  status: ('A' for Active; 'I' for Inactive)
REMARK    1  A    between atoms: C_1  and  C_2
REMARK    2  A    between atoms: C_2  and  C_3
REMARK    3  A    between atoms: C_3  and  C_4
REMARK    4  A    between atoms: C_3  and  N_10
REMARK    5  A    between atoms: C_11  and  C_12
REMARK    6  A    between atoms: C_12  and  O_14
REMARK    7  A    between atoms: O_14  and  C_15
REMARK    8  A    between atoms: C_18  and  S_19
REMARK                            x       y       z     vdW  Elec       q    Type
REMARK                         _______ _______ _______ _____ _____    ______ ____
ROOT
ATOM      1  N   UNL     1       5.199   5.599  17.265  0.00  0.00    +0.000 N 
ATOM      2  C   UNL     1       5.833   5.789  16.038  0.00  0.00    +0.000 A 
ATOM      3  C   UNL     1       5.144   6.849  15.464  0.00  0.00    +0.000 A 
ATOM      4  N   UNL     1       4.140   7.301  16.264  0.00  0.00    +0.000 NA
ATOM      5  C   UNL     1       4.190   6.541  17.329  0.00  0.00    +0.000 A 
ENDROOT
BRANCH   2   6
ATOM      6  C   UNL     1       6.937   5.055  15.471  0.00  0.00    +0.000 C 
ATOM      7  O   UNL     1       7.819   4.482  16.090  0.00  0.00    +0.000 OA
BRANCH   6   8
ATOM      8  O   UNL     1       6.866   5.050  14.108  0.00  0.00    +0.000 OA
ATOM      9  C   UNL     1       6.247   3.869  13.591  0.00  0.00    +0.000 C 
ENDBRANCH   6   8
ENDBRANCH   2   6
BRANCH   5  10
ATOM     10  S   UNL     1       3.081   6.739  18.645  0.00  0.00    +0.000 S 
ATOM     11  H   UNL     1       3.973   7.230  19.516  0.00  0.00    +0.000 HD
ENDBRANCH   5  10
BRANCH   1  12
ATOM     12  C   UNL     1       5.498   4.600  18.306  0.00  0.00    +0.000 C 
BRANCH  12  13
ATOM     13  C   UNL     1       4.294   3.692  18.568  0.00  0.00    +0.000 A 
ATOM     14  C   UNL     1       3.822   3.399  19.856  0.00  0.00    +0.000 A 
ATOM     15  C   UNL     1       2.719   2.562  20.051  0.00  0.00    +0.000 A 
ATOM     16  C   UNL     1       2.079   1.983  18.960  0.00  0.00    +0.000 A 
ATOM     17  C   UNL     1       2.535   2.246  17.674  0.00  0.00    +0.000 A 
ATOM     18  C   UNL     1       3.627   3.096  17.480  0.00  0.00    +0.000 A 
ENDBRANCH  12  13
BRANCH  12  20
ATOM     19  C   UNL     1       7.587   5.780  19.241  0.00  0.00    +0.000 C 
ATOM     20  C   UNL     1       6.242   5.135  19.555  0.00  0.00    +0.000 C 
ENDBRANCH  12  20
ENDBRANCH   1  12
TORSDOF 6
ENDMDL
MODEL 8
REMARK VINA RESULT:      -5.7      2.800      3.902
REMARK  Name = 
REMARK  8 active torsions:
REMARK  status: ('A' for Active; 'I' for Inactive)
REMARK    1  A    between atoms: C_1  and  C_2
REMARK    2  A    between atoms: C_2  and  C_3
REMARK    3  A    between atoms: C_3  and  C_4
REMARK    4  A    between atoms: C_3  and  N_10
REMARK    5  A    between atoms: C_11  and  C_12
REMARK    6  A    between atoms: C_12  and  O_14
REMARK    7  A    between atoms: O_14  and  C_15
REMARK    8  A    between atoms: C_18  and  S_19
REMARK                            x       y       z     vdW  Elec       q    Type
REMARK                         _______ _______ _______ _____ _____    ______ ____
ROOT
ATOM      1  N   UNL     1       2.821   5.204  19.441  0.00  0.00    +0.000 N 
ATOM      2  C   UNL     1       2.578   6.551  19.181  0.00  0.00    +0.000 A 
ATOM      3  C   UNL     1       1.875   6.988  20.296  0.00  0.00    +0.000 A 
ATOM      4  N   UNL     1       1.680   5.990  21.202  0.00  0.00    +0.000 NA
ATOM      5  C   UNL     1       2.249   4.938  20.670  0.00  0.00    +0.000 A 
ENDROOT
BRANCH   2   6
ATOM      6  C   UNL     1       2.946   7.327  18.022  0.00  0.00    +0.000 C 
ATOM      7  O   UNL     1       4.045   7.358  17.492  0.00  0.00    +0.000 OA
BRANCH   6   8
ATOM      8  O   UNL     1       1.876   8.029  17.549  0.00  0.00    +0.000 OA
ATOM      9  C   UNL     1       1.985   9.433  17.792  0.00  0.00    +0.000 C 
ENDBRANCH   6   8
ENDBRANCH   2   6
BRANCH   5  10
ATOM     10  S   UNL     1       2.249   3.400  21.468  0.00  0.00    +0.000 S 
ATOM     11  H   UNL     1       1.756   2.699  20.437  0.00  0.00    +0.000 HD
ENDBRANCH   5  10
BRANCH   1  12
ATOM     12  C   UNL     1       3.524   4.220  18.599  0.00  0.00    +0.000 C 
BRANCH  12  13
ATOM     13  C   UNL     1       4.985   4.619  18.379  0.00  0.00    +0.000 A 
ATOM     14  C   UNL     1       5.655   4.431  17.161  0.00  0.00    +0.000 A 
ATOM     15  C   UNL     1       6.992   4.809  17.004  0.00  0.00    +0.000 A 
ATOM     16  C   UNL     1       7.693   5.363  18.070  0.00  0.00    +0.000 A 
ATOM     17  C   UNL     1       7.056   5.547  19.292  0.00  0.00    +0.000 A 
ATOM     18  C   UNL     1       5.715   5.185  19.443  0.00  0.00    +0.000 A 
ENDBRANCH  12  13
BRANCH  12  20
ATOM     19  C   UNL     1       2.341   2.262  17.417  0.00  0.00    +0.000 C 
ATOM     20  C   UNL     1       2.749   3.728  17.351  0.00  0.00    +0.000 C 
ENDBRANCH  12  20
ENDBRANCH   1  12
TORSDOF 6
ENDMDL
MODEL 9
REMARK VINA RESULT:      -5.7      2.588      3.921
REMARK  Name = 
REMARK  8 active torsions:
REMARK  status: ('A' for Active; 'I' for Inactive)
REMARK    1  A    between atoms: C_1  and  C_2
REMARK    2  A    between atoms: C_2  and  C_3
REMARK    3  A    between atoms: C_3  and  C_4
REMARK    4  A    between atoms: C_3  and  N_10
REMARK    5  A    between atoms: C_11  and  C_12
REMARK    6  A    between atoms: C_12  and  O_14
REMARK    7  A    between atoms: O_14  and  C_15
REMARK    8  A    between atoms: C_18  and  S_19
REMARK                            x       y       z     vdW  Elec       q    Type
REMARK                         _______ _______ _______ _____ _____    ______ ____
ROOT
ATOM      1  N   UNL     1       4.494   4.987  18.331  0.00  0.00    +0.000 N 
ATOM      2  C   UNL     1       3.576   3.939  18.351  0.00  0.00    +0.000 A 
ATOM      3  C   UNL     1       4.189   2.968  19.132  0.00  0.00    +0.000 A 
ATOM      4  N   UNL     1       5.413   3.367  19.577  0.00  0.00    +0.000 NA
ATOM      5  C   UNL     1       5.574   4.569  19.086  0.00  0.00    +0.000 A 
ENDROOT
BRANCH   2   6
ATOM      6  C   UNL     1       2.290   3.854  17.702  0.00  0.00    +0.000 C 
ATOM      7  O   UNL     1       2.088   3.561  16.535  0.00  0.00    +0.000 OA
BRANCH   6   8
ATOM      8  O   UNL     1       1.284   4.121  18.585  0.00  0.00    +0.000 OA
ATOM      9  C   UNL     1       0.726   2.938  19.161  0.00  0.00    +0.000 C 
ENDBRANCH   6   8
ENDBRANCH   2   6
BRANCH   5  10
ATOM     10  S   UNL     1       7.011   5.491  19.381  0.00  0.00    +0.000 S 
ATOM     11  H   UNL     1       6.477   6.304  20.303  0.00  0.00    +0.000 HD
ENDBRANCH   5  10
BRANCH   1  12
ATOM     12  C   UNL     1       4.386   6.287  17.647  0.00  0.00    +0.000 C 
BRANCH  12  13
ATOM     13  C   UNL     1       3.289   7.155  18.268  0.00  0.00    +0.000 A 
ATOM     14  C   UNL     1       2.816   6.971  19.575  0.00  0.00    +0.000 A 
ATOM     15  C   UNL     1       1.811   7.786  20.103  0.00  0.00    +0.000 A 
ATOM     16  C   UNL     1       1.241   8.788  19.325  0.00  0.00    +0.000 A 
ATOM     17  C   UNL     1       1.682   8.981  18.021  0.00  0.00    +0.000 A 
ATOM     18  C   UNL     1       2.699   8.178  17.500  0.00  0.00    +0.000 A 
ENDBRANCH  12  13
BRANCH  12  20
ATOM     19  C   UNL     1       5.520   5.326  15.543  0.00  0.00    +0.000 C 
ATOM     20  C   UNL     1       4.431   6.236  16.099  0.00  0.00    +0.000 C 
ENDBRANCH  12  20
ENDBRANCH   1  12
TORSDOF 6
ENDMDL
