MODEL 1
REMARK VINA RESULT:      -7.3      0.000      0.000
REMARK  Name = 
REMARK  7 active torsions:
REMARK  status: ('A' for Active; 'I' for Inactive)
REMARK    1  A    between atoms: C_1  and  C_2
REMARK    2  A    between atoms: C_2  and  C_3
REMARK    3  A    between atoms: C_4  and  C_5
REMARK    4  A    between atoms: C_4  and  C_6
REMARK    5  A    between atoms: C_6  and  N_7
REMARK    6  A    between atoms: C_15  and  O_16
REMARK    7  A    between atoms: C_20  and  C_21
REMARK                            x       y       z     vdW  Elec       q    Type
REMARK                         _______ _______ _______ _____ _____    ______ ____
ROOT
ATOM      1  N   UNL     1       3.021   4.760  18.493  0.00  0.00    +0.000 NA
ATOM      2  C   UNL     1       3.308   4.002  17.249  0.00  0.00    +0.000 C 
ATOM      3  C   UNL     1       4.641   4.301  16.616  0.00  0.00    +0.000 A 
ATOM      4  C   UNL     1       4.800   4.423  15.226  0.00  0.00    +0.000 A 
ATOM      5  C   UNL     1       5.968   4.961  14.675  0.00  0.00    +0.000 A 
ATOM      6  C   UNL     1       7.014   5.410  15.495  0.00  0.00    +0.000 A 
ATOM      7  C   UNL     1       6.912   5.215  16.880  0.00  0.00    +0.000 A 
ATOM      8  N   UNL     1       7.741   5.605  17.912  0.00  0.00    +0.000 NA
ATOM      9  C   UNL     1       7.133   5.190  18.996  0.00  0.00    +0.000 A 
ATOM     10  N   UNL     1       5.993   4.505  18.731  0.00  0.00    +0.000 N 
ATOM     11  C   UNL     1       5.774   4.598  17.380  0.00  0.00    +0.000 A 
ATOM     12  C   UNL     1       5.157   3.746  19.629  0.00  0.00    +0.000 C 
ATOM     13  C   UNL     1       3.669   4.187  19.700  0.00  0.00    +0.000 C 
ATOM     14  C   UNL     1       2.819   3.000  20.200  0.00  0.00    +0.000 C 
ENDROOT
BRANCH   9  15
ATOM     15  O   UNL     1       7.577   5.460  20.206  0.00  0.00    +0.000 OA
ATOM     16  H   UNL     1       8.389   5.958  20.003  0.00  0.00    +0.000 HD
ENDBRANCH   9  15
BRANCH   1  17
ATOM     17  C   UNL     1       3.245   6.228  18.414  0.00  0.00    +0.000 C 
BRANCH  17  21
ATOM     18  C   UNL     1       2.453   9.082  17.585  0.00  0.00    +0.000 C 
ATOM     19  C   UNL     1       1.905   8.377  18.808  0.00  0.00    +0.000 C 
ATOM     20  C   UNL     1       0.977   9.254  19.608  0.00  0.00    +0.000 C 
ATOM     21  C   UNL     1       2.275   7.116  19.186  0.00  0.00    +0.000 C 
ATOM     22  C   UNL     1       1.912   6.521  20.527  0.00  0.00    +0.000 C 
ENDBRANCH  17  21
ENDBRANCH   1  17
TORSDOF 3
ENDMDL
MODEL 2
REMARK VINA RESULT:      -6.9      6.100      9.048
REMARK  Name = 
REMARK  7 active torsions:
REMARK  status: ('A' for Active; 'I' for Inactive)
REMARK    1  A    between atoms: C_1  and  C_2
REMARK    2  A    between atoms: C_2  and  C_3
REMARK    3  A    between atoms: C_4  and  C_5
REMARK    4  A    between atoms: C_4  and  C_6
REMARK    5  A    between atoms: C_6  and  N_7
REMARK    6  A    between atoms: C_15  and  O_16
REMARK    7  A    between atoms: C_20  and  C_21
REMARK                            x       y       z     vdW  Elec       q    Type
REMARK                         _______ _______ _______ _____ _____    ______ ____
ROOT
ATOM      1  N   UNL     1      -1.496  12.854  19.619  0.00  0.00    +0.000 NA
ATOM      2  C   UNL     1      -1.057  12.730  21.032  0.00  0.00    +0.000 C 
ATOM      3  C   UNL     1      -0.378  11.431  21.374  0.00  0.00    +0.000 A 
ATOM      4  C   UNL     1      -0.622  10.754  22.580  0.00  0.00    +0.000 A 
ATOM      5  C   UNL     1      -0.200   9.433  22.768  0.00  0.00    +0.000 A 
ATOM      6  C   UNL     1       0.468   8.736  21.749  0.00  0.00    +0.000 A 
ATOM      7  C   UNL     1       0.798   9.421  20.571  0.00  0.00    +0.000 A 
ATOM      8  N   UNL     1       1.383   8.982  19.402  0.00  0.00    +0.000 NA
ATOM      9  C   UNL     1       1.412  10.041  18.631  0.00  0.00    +0.000 A 
ATOM     10  N   UNL     1       0.937  11.153  19.245  0.00  0.00    +0.000 N 
ATOM     11  C   UNL     1       0.438  10.758  20.460  0.00  0.00    +0.000 A 
ATOM     12  C   UNL     1       0.975  12.525  18.800  0.00  0.00    +0.000 C 
ATOM     13  C   UNL     1      -0.402  13.235  18.689  0.00  0.00    +0.000 C 
ATOM     14  C   UNL     1      -0.186  14.760  18.780  0.00  0.00    +0.000 C 
ENDROOT
BRANCH   9  15
ATOM     15  O   UNL     1       1.821   9.997  17.380  0.00  0.00    +0.000 OA
ATOM     16  H   UNL     1       2.510   9.310  17.430  0.00  0.00    +0.000 HD
ENDBRANCH   9  15
BRANCH   1  17
ATOM     17  C   UNL     1      -2.272  11.703  19.086  0.00  0.00    +0.000 C 
BRANCH  17  21
ATOM     18  C   UNL     1      -3.738  11.102  16.449  0.00  0.00    +0.000 C 
ATOM     19  C   UNL     1      -4.421  11.638  17.691  0.00  0.00    +0.000 C 
ATOM     20  C   UNL     1      -5.887  11.902  17.470  0.00  0.00    +0.000 C 
ATOM     21  C   UNL     1      -3.763  11.923  18.855  0.00  0.00    +0.000 C 
ATOM     22  C   UNL     1      -4.403  12.678  19.996  0.00  0.00    +0.000 C 
ENDBRANCH  17  21
ENDBRANCH   1  17
TORSDOF 3
ENDMDL
MODEL 3
REMARK VINA RESULT:      -6.9      5.963      8.965
REMARK  Name = 
REMARK  7 active torsions:
REMARK  status: ('A' for Active; 'I' for Inactive)
REMARK    1  A    between atoms: C_1  and  C_2
REMARK    2  A    between atoms: C_2  and  C_3
REMARK    3  A    between atoms: C_4  and  C_5
REMARK    4  A    between atoms: C_4  and  C_6
REMARK    5  A    between atoms: C_6  and  N_7
REMARK    6  A    between atoms: C_15  and  O_16
REMARK    7  A    between atoms: C_20  and  C_21
REMARK                            x       y       z     vdW  Elec       q    Type
REMARK                         _______ _______ _______ _____ _____    ______ ____
ROOT
ATOM      1  N   UNL     1      -1.587  12.568  19.492  0.00  0.00    +0.000 NA
ATOM      2  C   UNL     1      -1.171  12.504  20.916  0.00  0.00    +0.000 C 
ATOM      3  C   UNL     1      -0.429  11.254  21.305  0.00  0.00    +0.000 A 
ATOM      4  C   UNL     1      -0.660  10.595  22.525  0.00  0.00    +0.000 A 
ATOM      5  C   UNL     1      -0.171   9.305  22.755  0.00  0.00    +0.000 A 
ATOM      6  C   UNL     1       0.555   8.620  21.768  0.00  0.00    +0.000 A 
ATOM      7  C   UNL     1       0.871   9.292  20.579  0.00  0.00    +0.000 A 
ATOM      8  N   UNL     1       1.502   8.857  19.432  0.00  0.00    +0.000 NA
ATOM      9  C   UNL     1       1.489   9.895  18.635  0.00  0.00    +0.000 A 
ATOM     10  N   UNL     1       0.942  10.995  19.210  0.00  0.00    +0.000 N 
ATOM     11  C   UNL     1       0.441  10.604  20.425  0.00  0.00    +0.000 A 
ATOM     12  C   UNL     1       0.913  12.355  18.729  0.00  0.00    +0.000 C 
ATOM     13  C   UNL     1      -0.498  12.985  18.573  0.00  0.00    +0.000 C 
ATOM     14  C   UNL     1      -0.368  14.521  18.628  0.00  0.00    +0.000 C 
ENDROOT
BRANCH   9  15
ATOM     15  O   UNL     1       1.926   9.842  17.393  0.00  0.00    +0.000 OA
ATOM     16  H   UNL     1       2.886   9.758  17.533  0.00  0.00    +0.000 HD
ENDBRANCH   9  15
BRANCH   1  17
ATOM     17  C   UNL     1      -2.288  11.362  18.975  0.00  0.00    +0.000 C 
BRANCH  17  21
ATOM     18  C   UNL     1      -5.129  12.295  19.697  0.00  0.00    +0.000 C 
ATOM     19  C   UNL     1      -4.663  12.029  18.280  0.00  0.00    +0.000 C 
ATOM     20  C   UNL     1      -5.766  12.213  17.270  0.00  0.00    +0.000 C 
ATOM     21  C   UNL     1      -3.406  11.594  17.964  0.00  0.00    +0.000 C 
ATOM     22  C   UNL     1      -3.029  11.102  16.586  0.00  0.00    +0.000 C 
ENDBRANCH  17  21
ENDBRANCH   1  17
TORSDOF 3
ENDMDL
MODEL 4
REMARK VINA RESULT:      -6.8      0.599      1.313
REMARK  Name = 
REMARK  7 active torsions:
REMARK  status: ('A' for Active; 'I' for Inactive)
REMARK    1  A    between atoms: C_1  and  C_2
REMARK    2  A    between atoms: C_2  and  C_3
REMARK    3  A    between atoms: C_4  and  C_5
REMARK    4  A    between atoms: C_4  and  C_6
REMARK    5  A    between atoms: C_6  and  N_7
REMARK    6  A    between atoms: C_15  and  O_16
REMARK    7  A    between atoms: C_20  and  C_21
REMARK                            x       y       z     vdW  Elec       q    Type
REMARK                         _______ _______ _______ _____ _____    ______ ____
ROOT
ATOM      1  N   UNL     1       2.933   5.462  18.682  0.00  0.00    +0.000 NA
ATOM      2  C   UNL     1       3.084   4.601  17.482  0.00  0.00    +0.000 C 
ATOM      3  C   UNL     1       4.448   4.630  16.846  0.00  0.00    +0.000 A 
ATOM      4  C   UNL     1       4.625   4.650  15.453  0.00  0.00    +0.000 A 
ATOM      5  C   UNL     1       5.869   4.947  14.885  0.00  0.00    +0.000 A 
ATOM      6  C   UNL     1       6.977   5.249  15.690  0.00  0.00    +0.000 A 
ATOM      7  C   UNL     1       6.844   5.148  17.082  0.00  0.00    +0.000 A 
ATOM      8  N   UNL     1       7.727   5.441  18.100  0.00  0.00    +0.000 NA
ATOM      9  C   UNL     1       7.057   5.196  19.198  0.00  0.00    +0.000 A 
ATOM     10  N   UNL     1       5.815   4.706  18.959  0.00  0.00    +0.000 N 
ATOM     11  C   UNL     1       5.615   4.765  17.603  0.00  0.00    +0.000 A 
ATOM     12  C   UNL     1       4.860   4.153  19.888  0.00  0.00    +0.000 C 
ATOM     13  C   UNL     1       3.472   4.849  19.923  0.00  0.00    +0.000 C 
ATOM     14  C   UNL     1       2.428   3.856  20.476  0.00  0.00    +0.000 C 
ENDROOT
BRANCH   9  15
ATOM     15  O   UNL     1       7.542   5.448  20.397  0.00  0.00    +0.000 OA
ATOM     16  H   UNL     1       7.268   4.649  20.883  0.00  0.00    +0.000 HD
ENDBRANCH   9  15
BRANCH   1  17
ATOM     17  C   UNL     1       3.409   6.862  18.529  0.00  0.00    +0.000 C 
BRANCH  17  21
ATOM     18  C   UNL     1       1.815   7.479  21.086  0.00  0.00    +0.000 C 
ATOM     19  C   UNL     1       1.666   8.253  19.793  0.00  0.00    +0.000 C 
ATOM     20  C   UNL     1       0.605   9.319  19.881  0.00  0.00    +0.000 C 
ATOM     21  C   UNL     1       2.361   7.964  18.651  0.00  0.00    +0.000 C 
ATOM     22  C   UNL     1       2.031   8.578  17.311  0.00  0.00    +0.000 C 
ENDBRANCH  17  21
ENDBRANCH   1  17
TORSDOF 3
ENDMDL
MODEL 5
REMARK VINA RESULT:      -6.8      6.351      9.468
REMARK  Name = 
REMARK  7 active torsions:
REMARK  status: ('A' for Active; 'I' for Inactive)
REMARK    1  A    between atoms: C_1  and  C_2
REMARK    2  A    between atoms: C_2  and  C_3
REMARK    3  A    between atoms: C_4  and  C_5
REMARK    4  A    between atoms: C_4  and  C_6
REMARK    5  A    between atoms: C_6  and  N_7
REMARK    6  A    between atoms: C_15  and  O_16
REMARK    7  A    between atoms: C_20  and  C_21
REMARK                            x       y       z     vdW  Elec       q    Type
REMARK                         _______ _______ _______ _____ _____    ______ ____
ROOT
ATOM      1  N   UNL     1      -0.456  10.714  18.522  0.00  0.00    +0.000 NA
ATOM      2  C   UNL     1      -0.124  12.148  18.707  0.00  0.00    +0.000 C 
ATOM      3  C   UNL     1      -0.565  12.738  20.019  0.00  0.00    +0.000 A 
ATOM      4  C   UNL     1      -1.118  14.026  20.114  0.00  0.00    +0.000 A 
ATOM      5  C   UNL     1      -1.765  14.453  21.279  0.00  0.00    +0.000 A 
ATOM      6  C   UNL     1      -1.894  13.602  22.387  0.00  0.00    +0.000 A 
ATOM      7  C   UNL     1      -1.273  12.345  22.345  0.00  0.00    +0.000 A 
ATOM      8  N   UNL     1      -1.286  11.298  23.243  0.00  0.00    +0.000 NA
ATOM      9  C   UNL     1      -0.568  10.365  22.671  0.00  0.00    +0.000 A 
ATOM     10  N   UNL     1      -0.041  10.759  21.485  0.00  0.00    +0.000 N 
ATOM     11  C   UNL     1      -0.566  11.994  21.203  0.00  0.00    +0.000 A 
ATOM     12  C   UNL     1       0.936  10.094  20.657  0.00  0.00    +0.000 C 
ATOM     13  C   UNL     1       0.492   9.792  19.200  0.00  0.00    +0.000 C 
ATOM     14  C   UNL     1       1.748   9.640  18.316  0.00  0.00    +0.000 C 
ENDROOT
BRANCH   9  15
ATOM     15  O   UNL     1      -0.425   9.162  23.188  0.00  0.00    +0.000 OA
ATOM     16  H   UNL     1      -0.616   8.600  22.416  0.00  0.00    +0.000 HD
ENDBRANCH   9  15
BRANCH   1  17
ATOM     17  C   UNL     1      -1.865  10.339  18.816  0.00  0.00    +0.000 C 
BRANCH  17  21
ATOM     18  C   UNL     1      -4.283  12.164  19.345  0.00  0.00    +0.000 C 
ATOM     19  C   UNL     1      -3.975  11.541  17.999  0.00  0.00    +0.000 C 
ATOM     20  C   UNL     1      -5.022  11.866  16.965  0.00  0.00    +0.000 C 
ATOM     21  C   UNL     1      -2.911  10.713  17.772  0.00  0.00    +0.000 C 
ATOM     22  C   UNL     1      -2.752   9.911  16.502  0.00  0.00    +0.000 C 
ENDBRANCH  17  21
ENDBRANCH   1  17
TORSDOF 3
ENDMDL
MODEL 6
REMARK VINA RESULT:      -6.7      2.353      5.414
REMARK  Name = 
REMARK  7 active torsions:
REMARK  status: ('A' for Active; 'I' for Inactive)
REMARK    1  A    between atoms: C_1  and  C_2
REMARK    2  A    between atoms: C_2  and  C_3
REMARK    3  A    between atoms: C_4  and  C_5
REMARK    4  A    between atoms: C_4  and  C_6
REMARK    5  A    between atoms: C_6  and  N_7
REMARK    6  A    between atoms: C_15  and  O_16
REMARK    7  A    between atoms: C_20  and  C_21
REMARK                            x       y       z     vdW  Elec       q    Type
REMARK                         _______ _______ _______ _____ _____    ______ ____
ROOT
ATOM      1  N   UNL     1       4.907   5.700  18.439  0.00  0.00    +0.000 NA
ATOM      2  C   UNL     1       4.086   6.050  19.625  0.00  0.00    +0.000 C 
ATOM      3  C   UNL     1       2.961   5.096  19.923  0.00  0.00    +0.000 A 
ATOM      4  C   UNL     1       1.692   5.539  20.331  0.00  0.00    +0.000 A 
ATOM      5  C   UNL     1       0.591   4.675  20.342  0.00  0.00    +0.000 A 
ATOM      6  C   UNL     1       0.717   3.340  19.930  0.00  0.00    +0.000 A 
ATOM      7  C   UNL     1       1.992   2.855  19.603  0.00  0.00    +0.000 A 
ATOM      8  N   UNL     1       2.396   1.630  19.114  0.00  0.00    +0.000 NA
ATOM      9  C   UNL     1       3.691   1.750  18.956  0.00  0.00    +0.000 A 
ATOM     10  N   UNL     1       4.162   2.955  19.366  0.00  0.00    +0.000 N 
ATOM     11  C   UNL     1       3.072   3.722  19.689  0.00  0.00    +0.000 A 
ATOM     12  C   UNL     1       5.528   3.393  19.522  0.00  0.00    +0.000 C 
ATOM     13  C   UNL     1       5.928   4.655  18.710  0.00  0.00    +0.000 C 
ATOM     14  C   UNL     1       7.145   5.319  19.386  0.00  0.00    +0.000 C 
ENDROOT
BRANCH   9  15
ATOM     15  O   UNL     1       4.431   0.806  18.413  0.00  0.00    +0.000 OA
ATOM     16  H   UNL     1       4.898   1.306  17.720  0.00  0.00    +0.000 HD
ENDBRANCH   9  15
BRANCH   1  17
ATOM     17  C   UNL     1       4.144   5.390  17.201  0.00  0.00    +0.000 C 
BRANCH  17  21
ATOM     18  C   UNL     1       5.456   2.998  15.781  0.00  0.00    +0.000 C 
ATOM     19  C   UNL     1       5.471   4.412  15.238  0.00  0.00    +0.000 C 
ATOM     20  C   UNL     1       6.254   4.526  13.956  0.00  0.00    +0.000 C 
ATOM     21  C   UNL     1       4.904   5.478  15.882  0.00  0.00    +0.000 C 
ATOM     22  C   UNL     1       5.133   6.910  15.457  0.00  0.00    +0.000 C 
ENDBRANCH  17  21
ENDBRANCH   1  17
TORSDOF 3
ENDMDL
MODEL 7
REMARK VINA RESULT:      -6.6      7.634      9.871
REMARK  Name = 
REMARK  7 active torsions:
REMARK  status: ('A' for Active; 'I' for Inactive)
REMARK    1  A    between atoms: C_1  and  C_2
REMARK    2  A    between atoms: C_2  and  C_3
REMARK    3  A    between atoms: C_4  and  C_5
REMARK    4  A    between atoms: C_4  and  C_6
REMARK    5  A    between atoms: C_6  and  N_7
REMARK    6  A    between atoms: C_15  and  O_16
REMARK    7  A    between atoms: C_20  and  C_21
REMARK                            x       y       z     vdW  Elec       q    Type
REMARK                         _______ _______ _______ _____ _____    ______ ____
ROOT
ATOM      1  N   UNL     1      -0.554  11.989  18.848  0.00  0.00    +0.000 NA
ATOM      2  C   UNL     1      -0.900  13.233  19.580  0.00  0.00    +0.000 C 
ATOM      3  C   UNL     1      -1.399  13.024  20.985  0.00  0.00    +0.000 A 
ATOM      4  C   UNL     1      -2.467  13.764  21.519  0.00  0.00    +0.000 A 
ATOM      5  C   UNL     1      -3.089  13.381  22.712  0.00  0.00    +0.000 A 
ATOM      6  C   UNL     1      -2.674  12.235  23.407  0.00  0.00    +0.000 A 
ATOM      7  C   UNL     1      -1.554  11.533  22.939  0.00  0.00    +0.000 A 
ATOM      8  N   UNL     1      -0.973  10.360  23.375  0.00  0.00    +0.000 NA
ATOM      9  C   UNL     1       0.017  10.156  22.543  0.00  0.00    +0.000 A 
ATOM     10  N   UNL     1       0.154  11.150  21.631  0.00  0.00    +0.000 N 
ATOM     11  C   UNL     1      -0.912  11.997  21.800  0.00  0.00    +0.000 A 
ATOM     12  C   UNL     1       1.218  11.376  20.683  0.00  0.00    +0.000 C 
ATOM     13  C   UNL     1       0.787  11.451  19.192  0.00  0.00    +0.000 C 
ATOM     14  C   UNL     1       1.853  12.240  18.404  0.00  0.00    +0.000 C 
ENDROOT
BRANCH   9  15
ATOM     15  O   UNL     1       0.762   9.070  22.580  0.00  0.00    +0.000 OA
ATOM     16  H   UNL     1       1.075   9.086  23.502  0.00  0.00    +0.000 HD
ENDBRANCH   9  15
BRANCH   1  17
ATOM     17  C   UNL     1      -1.583  10.916  18.883  0.00  0.00    +0.000 C 
BRANCH  17  21
ATOM     18  C   UNL     1      -4.427  12.069  19.099  0.00  0.00    +0.000 C 
ATOM     19  C   UNL     1      -3.866  11.437  17.842  0.00  0.00    +0.000 C 
ATOM     20  C   UNL     1      -4.879  11.380  16.728  0.00  0.00    +0.000 C 
ATOM     21  C   UNL     1      -2.609  10.906  17.755  0.00  0.00    +0.000 C 
ATOM     22  C   UNL     1      -2.150  10.068  16.584  0.00  0.00    +0.000 C 
ENDBRANCH  17  21
ENDBRANCH   1  17
TORSDOF 3
ENDMDL
MODEL 8
REMARK VINA RESULT:      -6.5      1.050      1.109
REMARK  Name = 
REMARK  7 active torsions:
REMARK  status: ('A' for Active; 'I' for Inactive)
REMARK    1  A    between atoms: C_1  and  C_2
REMARK    2  A    between atoms: C_2  and  C_3
REMARK    3  A    between atoms: C_4  and  C_5
REMARK    4  A    between atoms: C_4  and  C_6
REMARK    5  A    between atoms: C_6  and  N_7
REMARK    6  A    between atoms: C_15  and  O_16
REMARK    7  A    between atoms: C_20  and  C_21
REMARK                            x       y       z     vdW  Elec       q    Type
REMARK                         _______ _______ _______ _____ _____    ______ ____
ROOT
ATOM      1  N   UNL     1       3.654   4.110  18.247  0.00  0.00    +0.000 NA
ATOM      2  C   UNL     1       4.049   3.196  17.147  0.00  0.00    +0.000 C 
ATOM      3  C   UNL     1       5.102   3.739  16.217  0.00  0.00    +0.000 A 
ATOM      4  C   UNL     1       5.043   3.549  14.827  0.00  0.00    +0.000 A 
ATOM      5  C   UNL     1       5.867   4.277  13.961  0.00  0.00    +0.000 A 
ATOM      6  C   UNL     1       6.769   5.232  14.454  0.00  0.00    +0.000 A 
ATOM      7  C   UNL     1       6.905   5.374  15.843  0.00  0.00    +0.000 A 
ATOM      8  N   UNL     1       7.651   6.258  16.594  0.00  0.00    +0.000 NA
ATOM      9  C   UNL     1       7.364   5.958  17.836  0.00  0.00    +0.000 A 
ATOM     10  N   UNL     1       6.524   4.898  17.942  0.00  0.00    +0.000 N 
ATOM     11  C   UNL     1       6.132   4.569  16.669  0.00  0.00    +0.000 A 
ATOM     12  C   UNL     1       6.128   4.164  19.119  0.00  0.00    +0.000 C 
ATOM     13  C   UNL     1       4.600   4.104  19.393  0.00  0.00    +0.000 C 
ATOM     14  C   UNL     1       4.299   2.874  20.274  0.00  0.00    +0.000 C 
ENDROOT
BRANCH   9  15
ATOM     15  O   UNL     1       7.817   6.655  18.857  0.00  0.00    +0.000 OA
ATOM     16  H   UNL     1       8.738   6.814  18.584  0.00  0.00    +0.000 HD
ENDBRANCH   9  15
BRANCH   1  17
ATOM     17  C   UNL     1       3.323   5.501  17.838  0.00  0.00    +0.000 C 
BRANCH  17  21
ATOM     18  C   UNL     1       2.936   8.548  17.668  0.00  0.00    +0.000 C 
ATOM     19  C   UNL     1       2.282   7.672  18.717  0.00  0.00    +0.000 C 
ATOM     20  C   UNL     1       1.472   8.469  19.706  0.00  0.00    +0.000 C 
ATOM     21  C   UNL     1       2.473   6.320  18.803  0.00  0.00    +0.000 C 
ATOM     22  C   UNL     1       2.017   5.500  19.988  0.00  0.00    +0.000 C 
ENDBRANCH  17  21
ENDBRANCH   1  17
TORSDOF 3
ENDMDL
MODEL 9
REMARK VINA RESULT:      -6.4      7.655     10.788
REMARK  Name = 
REMARK  7 active torsions:
REMARK  status: ('A' for Active; 'I' for Inactive)
REMARK    1  A    between atoms: C_1  and  C_2
REMARK    2  A    between atoms: C_2  and  C_3
REMARK    3  A    between atoms: C_4  and  C_5
REMARK    4  A    between atoms: C_4  and  C_6
REMARK    5  A    between atoms: C_6  and  N_7
REMARK    6  A    between atoms: C_15  and  O_16
REMARK    7  A    between atoms: C_20  and  C_21
REMARK                            x       y       z     vdW  Elec       q    Type
REMARK                         _______ _______ _______ _____ _____    ______ ____
ROOT
ATOM      1  N   UNL     1      -2.457  13.531  22.367  0.00  0.00    +0.000 NA
ATOM      2  C   UNL     1      -1.360  12.811  23.060  0.00  0.00    +0.000 C 
ATOM      3  C   UNL     1      -0.806  11.627  22.313  0.00  0.00    +0.000 A 
ATOM      4  C   UNL     1      -0.470  10.425  22.956  0.00  0.00    +0.000 A 
ATOM      5  C   UNL     1      -0.217   9.258  22.227  0.00  0.00    +0.000 A 
ATOM      6  C   UNL     1      -0.305   9.249  20.826  0.00  0.00    +0.000 A 
ATOM      7  C   UNL     1      -0.552  10.458  20.160  0.00  0.00    +0.000 A 
ATOM      8  N   UNL     1      -0.750  10.731  18.823  0.00  0.00    +0.000 NA
ATOM      9  C   UNL     1      -0.977  12.020  18.780  0.00  0.00    +0.000 A 
ATOM     10  N   UNL     1      -0.881  12.612  19.996  0.00  0.00    +0.000 N 
ATOM     11  C   UNL     1      -0.711  11.610  20.918  0.00  0.00    +0.000 A 
ATOM     12  C   UNL     1      -0.880  14.016  20.328  0.00  0.00    +0.000 C 
ATOM     13  C   UNL     1      -1.982  14.474  21.323  0.00  0.00    +0.000 C 
ATOM     14  C   UNL     1      -1.525  15.779  22.008  0.00  0.00    +0.000 C 
ENDROOT
BRANCH   9  15
ATOM     15  O   UNL     1      -1.306  12.646  17.669  0.00  0.00    +0.000 OA
ATOM     16  H   UNL     1      -2.275  12.553  17.679  0.00  0.00    +0.000 HD
ENDBRANCH   9  15
BRANCH   1  17
ATOM     17  C   UNL     1      -3.560  12.677  21.851  0.00  0.00    +0.000 C 
BRANCH  17  21
ATOM     18  C   UNL     1      -4.639  12.341  24.712  0.00  0.00    +0.000 C 
ATOM     19  C   UNL     1      -5.451  12.908  23.566  0.00  0.00    +0.000 C 
ATOM     20  C   UNL     1      -6.866  13.231  23.970  0.00  0.00    +0.000 C 
ATOM     21  C   UNL     1      -4.975  13.037  22.290  0.00  0.00    +0.000 C 
ATOM     22  C   UNL     1      -5.861  13.372  21.113  0.00  0.00    +0.000 C 
ENDBRANCH  17  21
ENDBRANCH   1  17
TORSDOF 3
ENDMDL
