MODEL 1
REMARK VINA RESULT:      -8.0      0.000      0.000
REMARK  Name = 
REMARK  6 active torsions:
REMARK  status: ('A' for Active; 'I' for Inactive)
REMARK    1  A    between atoms: N_2  and  C_4
REMARK    2  A    between atoms: C_11  and  O_12
REMARK    3  A    between atoms: O_12  and  C_13
REMARK    4  A    between atoms: C_13  and  C_14
REMARK    5  A    between atoms: C_17  and  O_18
REMARK    6  A    between atoms: O_18  and  C_19
REMARK                            x       y       z     vdW  Elec       q    Type
REMARK                         _______ _______ _______ _____ _____    ______ ____
ROOT
ATOM      1  O   UNL     1       3.195   4.895  18.509  0.00  0.00    +0.000 OA
ENDROOT
BRANCH   1   9
ATOM      2  C   UNL     1       6.889   4.916  14.400  0.00  0.00    +0.000 A 
ATOM      3  C   UNL     1       5.621   4.390  14.552  0.00  0.00    +0.000 A 
ATOM      4  N   UNL     1       5.409   4.401  15.902  0.00  0.00    +0.000 N 
ATOM      5  C   UNL     1       6.544   4.864  16.497  0.00  0.00    +0.000 A 
ATOM      6  N   UNL     1       7.448   5.224  15.625  0.00  0.00    +0.000 NA
ATOM      7  O   UNL     1       6.772   4.807  17.798  0.00  0.00    +0.000 OA
ATOM      8  C   UNL     1       5.638   4.780  18.641  0.00  0.00    +0.000 C 
ATOM      9  C   UNL     1       4.346   4.104  18.135  0.00  0.00    +0.000 C 
ATOM     10  C   UNL     1       4.299   3.834  16.623  0.00  0.00    +0.000 C 
BRANCH   2  12
ATOM     11  O   UNL     1       8.602   5.887  13.233  0.00  0.00    +0.000 OA
ATOM     12  N   UNL     1       7.646   5.090  13.181  0.00  0.00    +0.000 N 
ATOM     13  O   UNL     1       7.303   4.458  12.179  0.00  0.00    +0.000 OA
ENDBRANCH   2  12
ENDBRANCH   1   9
BRANCH   1  14
ATOM     14  C   UNL     1       3.499   5.887  19.495  0.00  0.00    +0.000 C 
BRANCH  14  15
ATOM     15  C   UNL     1       2.655   7.104  19.260  0.00  0.00    +0.000 A 
ATOM     16  C   UNL     1       2.671   7.768  18.029  0.00  0.00    +0.000 A 
ATOM     17  C   UNL     1       1.952   8.944  17.851  0.00  0.00    +0.000 A 
ATOM     18  C   UNL     1       1.173   9.454  18.889  0.00  0.00    +0.000 A 
ATOM     19  C   UNL     1       1.122   8.773  20.107  0.00  0.00    +0.000 A 
ATOM     20  C   UNL     1       1.832   7.592  20.283  0.00  0.00    +0.000 A 
BRANCH  18  21
ATOM     21  O   UNL     1       0.564  10.647  18.631  0.00  0.00    +0.000 OA
BRANCH  21  22
ATOM     22  C   UNL     1      -0.827  10.658  18.354  0.00  0.00    +0.000 C 
ATOM     23  F   UNL     1      -1.279   9.601  17.639  0.00  0.00    +0.000 F 
ATOM     24  F   UNL     1      -1.510  10.705  19.523  0.00  0.00    +0.000 F 
ATOM     25  F   UNL     1      -1.113  11.772  17.654  0.00  0.00    +0.000 F 
ENDBRANCH  21  22
ENDBRANCH  18  21
ENDBRANCH  14  15
ENDBRANCH   1  14
TORSDOF 6
ENDMDL
MODEL 2
REMARK VINA RESULT:      -8.0      0.718      1.598
REMARK  Name = 
REMARK  6 active torsions:
REMARK  status: ('A' for Active; 'I' for Inactive)
REMARK    1  A    between atoms: N_2  and  C_4
REMARK    2  A    between atoms: C_11  and  O_12
REMARK    3  A    between atoms: O_12  and  C_13
REMARK    4  A    between atoms: C_13  and  C_14
REMARK    5  A    between atoms: C_17  and  O_18
REMARK    6  A    between atoms: O_18  and  C_19
REMARK                            x       y       z     vdW  Elec       q    Type
REMARK                         _______ _______ _______ _____ _____    ______ ____
ROOT
ATOM      1  O   UNL     1       4.219   5.499  19.677  0.00  0.00    +0.000 OA
ENDROOT
BRANCH   1   9
ATOM      2  C   UNL     1       6.743   4.827  14.808  0.00  0.00    +0.000 A 
ATOM      3  C   UNL     1       5.611   4.288  15.389  0.00  0.00    +0.000 A 
ATOM      4  N   UNL     1       5.745   4.571  16.719  0.00  0.00    +0.000 N 
ATOM      5  C   UNL     1       6.942   5.198  16.892  0.00  0.00    +0.000 A 
ATOM      6  N   UNL     1       7.558   5.408  15.759  0.00  0.00    +0.000 NA
ATOM      7  O   UNL     1       7.493   5.424  18.072  0.00  0.00    +0.000 OA
ATOM      8  C   UNL     1       6.615   5.523  19.175  0.00  0.00    +0.000 C 
ATOM      9  C   UNL     1       5.311   4.699  19.168  0.00  0.00    +0.000 C 
ATOM     10  C   UNL     1       4.912   4.118  17.803  0.00  0.00    +0.000 C 
BRANCH   2  12
ATOM     11  O   UNL     1       6.613   3.898  12.720  0.00  0.00    +0.000 OA
ATOM     12  N   UNL     1       7.149   4.776  13.422  0.00  0.00    +0.000 N 
ATOM     13  O   UNL     1       7.992   5.585  13.025  0.00  0.00    +0.000 OA
ENDBRANCH   2  12
ENDBRANCH   1   9
BRANCH   1  14
ATOM     14  C   UNL     1       3.147   5.638  18.738  0.00  0.00    +0.000 C 
BRANCH  14  15
ATOM     15  C   UNL     1       2.587   7.027  18.819  0.00  0.00    +0.000 A 
ATOM     16  C   UNL     1       1.930   7.476  19.970  0.00  0.00    +0.000 A 
ATOM     17  C   UNL     1       1.340   8.735  20.001  0.00  0.00    +0.000 A 
ATOM     18  C   UNL     1       1.431   9.580  18.896  0.00  0.00    +0.000 A 
ATOM     19  C   UNL     1       2.120   9.151  17.759  0.00  0.00    +0.000 A 
ATOM     20  C   UNL     1       2.719   7.898  17.731  0.00  0.00    +0.000 A 
BRANCH  18  21
ATOM     21  O   UNL     1       0.759  10.761  19.007  0.00  0.00    +0.000 OA
BRANCH  21  22
ATOM     22  C   UNL     1      -0.601  10.814  18.606  0.00  0.00    +0.000 C 
ATOM     23  F   UNL     1      -0.992  11.985  18.050  0.00  0.00    +0.000 F 
ATOM     24  F   UNL     1      -0.839   9.820  17.717  0.00  0.00    +0.000 F 
ATOM     25  F   UNL     1      -1.373  10.603  19.689  0.00  0.00    +0.000 F 
ENDBRANCH  21  22
ENDBRANCH  18  21
ENDBRANCH  14  15
ENDBRANCH   1  14
TORSDOF 6
ENDMDL
MODEL 3
REMARK VINA RESULT:      -8.0      0.369      1.022
REMARK  Name = 
REMARK  6 active torsions:
REMARK  status: ('A' for Active; 'I' for Inactive)
REMARK    1  A    between atoms: N_2  and  C_4
REMARK    2  A    between atoms: C_11  and  O_12
REMARK    3  A    between atoms: O_12  and  C_13
REMARK    4  A    between atoms: C_13  and  C_14
REMARK    5  A    between atoms: C_17  and  O_18
REMARK    6  A    between atoms: O_18  and  C_19
REMARK                            x       y       z     vdW  Elec       q    Type
REMARK                         _______ _______ _______ _____ _____    ______ ____
ROOT
ATOM      1  O   UNL     1       3.198   5.147  18.389  0.00  0.00    +0.000 OA
ENDROOT
BRANCH   1   9
ATOM      2  C   UNL     1       6.995   5.049  14.377  0.00  0.00    +0.000 A 
ATOM      3  C   UNL     1       5.829   4.348  14.616  0.00  0.00    +0.000 A 
ATOM      4  N   UNL     1       5.565   4.572  15.938  0.00  0.00    +0.000 N 
ATOM      5  C   UNL     1       6.581   5.325  16.444  0.00  0.00    +0.000 A 
ATOM      6  N   UNL     1       7.445   5.669  15.526  0.00  0.00    +0.000 NA
ATOM      7  O   UNL     1       6.764   5.549  17.734  0.00  0.00    +0.000 OA
ATOM      8  C   UNL     1       5.618   5.482  18.558  0.00  0.00    +0.000 C 
ATOM      9  C   UNL     1       4.480   4.511  18.179  0.00  0.00    +0.000 C 
ATOM     10  C   UNL     1       4.538   3.964  16.745  0.00  0.00    +0.000 C 
BRANCH   2  12
ATOM     11  O   UNL     1       7.345   4.439  12.199  0.00  0.00    +0.000 OA
ATOM     12  N   UNL     1       7.760   5.124  13.152  0.00  0.00    +0.000 N 
ATOM     13  O   UNL     1       8.764   5.841  13.127  0.00  0.00    +0.000 OA
ENDBRANCH   2  12
ENDBRANCH   1   9
BRANCH   1  14
ATOM     14  C   UNL     1       3.151   5.918  19.594  0.00  0.00    +0.000 C 
BRANCH  14  15
ATOM     15  C   UNL     1       2.393   7.189  19.346  0.00  0.00    +0.000 A 
ATOM     16  C   UNL     1       2.371   7.782  18.079  0.00  0.00    +0.000 A 
ATOM     17  C   UNL     1       1.739   9.005  17.883  0.00  0.00    +0.000 A 
ATOM     18  C   UNL     1       1.084   9.635  18.941  0.00  0.00    +0.000 A 
ATOM     19  C   UNL     1       1.070   9.026  20.198  0.00  0.00    +0.000 A 
ATOM     20  C   UNL     1       1.692   7.800  20.393  0.00  0.00    +0.000 A 
BRANCH  18  21
ATOM     21  O   UNL     1       0.557  10.860  18.655  0.00  0.00    +0.000 OA
BRANCH  21  22
ATOM     22  C   UNL     1      -0.851  10.989  18.547  0.00  0.00    +0.000 C 
ATOM     23  F   UNL     1      -1.277  12.012  17.767  0.00  0.00    +0.000 F 
ATOM     24  F   UNL     1      -1.365   9.836  18.053  0.00  0.00    +0.000 F 
ATOM     25  F   UNL     1      -1.358  11.182  19.779  0.00  0.00    +0.000 F 
ENDBRANCH  21  22
ENDBRANCH  18  21
ENDBRANCH  14  15
ENDBRANCH   1  14
TORSDOF 6
ENDMDL
MODEL 4
REMARK VINA RESULT:      -7.9      0.944      1.314
REMARK  Name = 
REMARK  6 active torsions:
REMARK  status: ('A' for Active; 'I' for Inactive)
REMARK    1  A    between atoms: N_2  and  C_4
REMARK    2  A    between atoms: C_11  and  O_12
REMARK    3  A    between atoms: O_12  and  C_13
REMARK    4  A    between atoms: C_13  and  C_14
REMARK    5  A    between atoms: C_17  and  O_18
REMARK    6  A    between atoms: O_18  and  C_19
REMARK                            x       y       z     vdW  Elec       q    Type
REMARK                         _______ _______ _______ _____ _____    ______ ____
ROOT
ATOM      1  O   UNL     1       4.417   5.586  19.499  0.00  0.00    +0.000 OA
ENDROOT
BRANCH   1   9
ATOM      2  C   UNL     1       6.746   4.758  14.558  0.00  0.00    +0.000 A 
ATOM      3  C   UNL     1       5.615   4.270  15.183  0.00  0.00    +0.000 A 
ATOM      4  N   UNL     1       5.805   4.564  16.504  0.00  0.00    +0.000 N 
ATOM      5  C   UNL     1       7.030   5.148  16.628  0.00  0.00    +0.000 A 
ATOM      6  N   UNL     1       7.615   5.319  15.473  0.00  0.00    +0.000 NA
ATOM      7  O   UNL     1       7.630   5.367  17.786  0.00  0.00    +0.000 OA
ATOM      8  C   UNL     1       6.795   5.513  18.916  0.00  0.00    +0.000 C 
ATOM      9  C   UNL     1       5.460   4.739  18.964  0.00  0.00    +0.000 C 
ATOM     10  C   UNL     1       4.993   4.157  17.622  0.00  0.00    +0.000 C 
BRANCH   2  12
ATOM     11  O   UNL     1       7.898   5.535  12.739  0.00  0.00    +0.000 OA
ATOM     12  N   UNL     1       7.102   4.675  13.159  0.00  0.00    +0.000 N 
ATOM     13  O   UNL     1       6.600   3.779  12.475  0.00  0.00    +0.000 OA
ENDBRANCH   2  12
ENDBRANCH   1   9
BRANCH   1  14
ATOM     14  C   UNL     1       3.260   5.642  18.658  0.00  0.00    +0.000 C 
BRANCH  14  15
ATOM     15  C   UNL     1       2.526   6.927  18.899  0.00  0.00    +0.000 A 
ATOM     16  C   UNL     1       2.364   7.870  17.879  0.00  0.00    +0.000 A 
ATOM     17  C   UNL     1       1.758   9.094  18.138  0.00  0.00    +0.000 A 
ATOM     18  C   UNL     1       1.268   9.379  19.412  0.00  0.00    +0.000 A 
ATOM     19  C   UNL     1       1.392   8.424  20.423  0.00  0.00    +0.000 A 
ATOM     20  C   UNL     1       1.987   7.197  20.164  0.00  0.00    +0.000 A 
BRANCH  18  21
ATOM     21  O   UNL     1       0.756  10.633  19.573  0.00  0.00    +0.000 OA
BRANCH  21  22
ATOM     22  C   UNL     1      -0.631  10.775  19.834  0.00  0.00    +0.000 C 
ATOM     23  F   UNL     1      -1.140  12.006  19.586  0.00  0.00    +0.000 F 
ATOM     24  F   UNL     1      -1.316   9.874  19.089  0.00  0.00    +0.000 F 
ATOM     25  F   UNL     1      -0.851  10.501  21.134  0.00  0.00    +0.000 F 
ENDBRANCH  21  22
ENDBRANCH  18  21
ENDBRANCH  14  15
ENDBRANCH   1  14
TORSDOF 6
ENDMDL
MODEL 5
REMARK VINA RESULT:      -7.8      0.800      1.496
REMARK  Name = 
REMARK  6 active torsions:
REMARK  status: ('A' for Active; 'I' for Inactive)
REMARK    1  A    between atoms: N_2  and  C_4
REMARK    2  A    between atoms: C_11  and  O_12
REMARK    3  A    between atoms: O_12  and  C_13
REMARK    4  A    between atoms: C_13  and  C_14
REMARK    5  A    between atoms: C_17  and  O_18
REMARK    6  A    between atoms: O_18  and  C_19
REMARK                            x       y       z     vdW  Elec       q    Type
REMARK                         _______ _______ _______ _____ _____    ______ ____
ROOT
ATOM      1  O   UNL     1       4.108   5.840  19.295  0.00  0.00    +0.000 OA
ENDROOT
BRANCH   1   9
ATOM      2  C   UNL     1       6.733   4.797  14.547  0.00  0.00    +0.000 A 
ATOM      3  C   UNL     1       5.447   4.584  15.003  0.00  0.00    +0.000 A 
ATOM      4  N   UNL     1       5.542   4.715  16.360  0.00  0.00    +0.000 N 
ATOM      5  C   UNL     1       6.851   4.936  16.666  0.00  0.00    +0.000 A 
ATOM      6  N   UNL     1       7.599   5.032  15.598  0.00  0.00    +0.000 NA
ATOM      7  O   UNL     1       7.340   4.896  17.893  0.00  0.00    +0.000 OA
ATOM      8  C   UNL     1       6.438   5.175  18.945  0.00  0.00    +0.000 C 
ATOM      9  C   UNL     1       4.954   4.787  18.779  0.00  0.00    +0.000 C 
ATOM     10  C   UNL     1       4.521   4.456  17.343  0.00  0.00    +0.000 C 
BRANCH   2  12
ATOM     11  O   UNL     1       8.074   5.580  12.865  0.00  0.00    +0.000 OA
ATOM     12  N   UNL     1       7.225   4.728  13.190  0.00  0.00    +0.000 N 
ATOM     13  O   UNL     1       6.778   3.852  12.444  0.00  0.00    +0.000 OA
ENDBRANCH   2  12
ENDBRANCH   1   9
BRANCH   1  14
ATOM     14  C   UNL     1       2.910   6.016  18.532  0.00  0.00    +0.000 C 
BRANCH  14  15
ATOM     15  C   UNL     1       2.302   7.348  18.852  0.00  0.00    +0.000 A 
ATOM     16  C   UNL     1       1.863   7.651  20.146  0.00  0.00    +0.000 A 
ATOM     17  C   UNL     1       1.222   8.856  20.411  0.00  0.00    +0.000 A 
ATOM     18  C   UNL     1       1.045   9.795  19.396  0.00  0.00    +0.000 A 
ATOM     19  C   UNL     1       1.516   9.513  18.112  0.00  0.00    +0.000 A 
ATOM     20  C   UNL     1       2.166   8.314  17.848  0.00  0.00    +0.000 A 
BRANCH  18  21
ATOM     21  O   UNL     1       0.344  10.910  19.748  0.00  0.00    +0.000 OA
BRANCH  21  22
ATOM     22  C   UNL     1      -0.972  11.077  19.246  0.00  0.00    +0.000 C 
ATOM     23  F   UNL     1      -1.824  11.733  20.070  0.00  0.00    +0.000 F 
ATOM     24  F   UNL     1      -0.915  11.749  18.071  0.00  0.00    +0.000 F 
ATOM     25  F   UNL     1      -1.496   9.859  19.009  0.00  0.00    +0.000 F 
ENDBRANCH  21  22
ENDBRANCH  18  21
ENDBRANCH  14  15
ENDBRANCH   1  14
TORSDOF 6
ENDMDL
MODEL 6
REMARK VINA RESULT:      -7.8      1.722      2.037
REMARK  Name = 
REMARK  6 active torsions:
REMARK  status: ('A' for Active; 'I' for Inactive)
REMARK    1  A    between atoms: N_2  and  C_4
REMARK    2  A    between atoms: C_11  and  O_12
REMARK    3  A    between atoms: O_12  and  C_13
REMARK    4  A    between atoms: C_13  and  C_14
REMARK    5  A    between atoms: C_17  and  O_18
REMARK    6  A    between atoms: O_18  and  C_19
REMARK                            x       y       z     vdW  Elec       q    Type
REMARK                         _______ _______ _______ _____ _____    ______ ____
ROOT
ATOM      1  O   UNL     1       3.563   4.257  18.538  0.00  0.00    +0.000 OA
ENDROOT
BRANCH   1   9
ATOM      2  C   UNL     1       7.108   4.923  14.354  0.00  0.00    +0.000 A 
ATOM      3  C   UNL     1       6.114   4.007  14.637  0.00  0.00    +0.000 A 
ATOM      4  N   UNL     1       5.876   4.168  15.973  0.00  0.00    +0.000 N 
ATOM      5  C   UNL     1       6.748   5.104  16.442  0.00  0.00    +0.000 A 
ATOM      6  N   UNL     1       7.483   5.614  15.490  0.00  0.00    +0.000 NA
ATOM      7  O   UNL     1       6.945   5.353  17.725  0.00  0.00    +0.000 OA
ATOM      8  C   UNL     1       5.875   5.059  18.600  0.00  0.00    +0.000 C 
ATOM      9  C   UNL     1       4.933   3.885  18.260  0.00  0.00    +0.000 C 
ATOM     10  C   UNL     1       5.028   3.367  16.818  0.00  0.00    +0.000 C 
BRANCH   2  12
ATOM     11  O   UNL     1       8.747   5.941  13.122  0.00  0.00    +0.000 OA
ATOM     12  N   UNL     1       7.784   5.152  13.097  0.00  0.00    +0.000 N 
ATOM     13  O   UNL     1       7.369   4.571  12.090  0.00  0.00    +0.000 OA
ENDBRANCH   2  12
ENDBRANCH   1   9
BRANCH   1  14
ATOM     14  C   UNL     1       3.136   5.404  17.796  0.00  0.00    +0.000 C 
BRANCH  14  15
ATOM     15  C   UNL     1       2.521   6.404  18.729  0.00  0.00    +0.000 A 
ATOM     16  C   UNL     1       2.313   7.729  18.333  0.00  0.00    +0.000 A 
ATOM     17  C   UNL     1       1.823   8.667  19.234  0.00  0.00    +0.000 A 
ATOM     18  C   UNL     1       1.495   8.287  20.535  0.00  0.00    +0.000 A 
ATOM     19  C   UNL     1       1.664   6.956  20.923  0.00  0.00    +0.000 A 
ATOM     20  C   UNL     1       2.143   6.015  20.020  0.00  0.00    +0.000 A 
BRANCH  18  21
ATOM     21  O   UNL     1       1.089   9.298  21.355  0.00  0.00    +0.000 OA
BRANCH  21  22
ATOM     22  C   UNL     1      -0.156   9.177  22.023  0.00  0.00    +0.000 C 
ATOM     23  F   UNL     1      -0.901   8.104  21.662  0.00  0.00    +0.000 F 
ATOM     24  F   UNL     1       0.062   9.113  23.358  0.00  0.00    +0.000 F 
ATOM     25  F   UNL     1      -0.886  10.280  21.767  0.00  0.00    +0.000 F 
ENDBRANCH  21  22
ENDBRANCH  18  21
ENDBRANCH  14  15
ENDBRANCH   1  14
TORSDOF 6
ENDMDL
MODEL 7
REMARK VINA RESULT:      -7.8      0.966      1.220
REMARK  Name = 
REMARK  6 active torsions:
REMARK  status: ('A' for Active; 'I' for Inactive)
REMARK    1  A    between atoms: N_2  and  C_4
REMARK    2  A    between atoms: C_11  and  O_12
REMARK    3  A    between atoms: O_12  and  C_13
REMARK    4  A    between atoms: C_13  and  C_14
REMARK    5  A    between atoms: C_17  and  O_18
REMARK    6  A    between atoms: O_18  and  C_19
REMARK                            x       y       z     vdW  Elec       q    Type
REMARK                         _______ _______ _______ _____ _____    ______ ____
ROOT
ATOM      1  O   UNL     1       4.604   5.576  19.245  0.00  0.00    +0.000 OA
ENDROOT
BRANCH   1   9
ATOM      2  C   UNL     1       6.726   4.576  14.243  0.00  0.00    +0.000 A 
ATOM      3  C   UNL     1       5.550   4.228  14.877  0.00  0.00    +0.000 A 
ATOM      4  N   UNL     1       5.797   4.458  16.201  0.00  0.00    +0.000 N 
ATOM      5  C   UNL     1       7.091   4.868  16.317  0.00  0.00    +0.000 A 
ATOM      6  N   UNL     1       7.677   4.991  15.156  0.00  0.00    +0.000 NA
ATOM      7  O   UNL     1       7.732   4.973  17.469  0.00  0.00    +0.000 OA
ATOM      8  C   UNL     1       6.941   5.200  18.617  0.00  0.00    +0.000 C 
ATOM      9  C   UNL     1       5.515   4.611  18.671  0.00  0.00    +0.000 C 
ATOM     10  C   UNL     1       4.954   4.133  17.323  0.00  0.00    +0.000 C 
BRANCH   2  12
ATOM     11  O   UNL     1       6.499   3.562  12.204  0.00  0.00    +0.000 OA
ATOM     12  N   UNL     1       7.047   4.484  12.837  0.00  0.00    +0.000 N 
ATOM     13  O   UNL     1       7.837   5.302  12.357  0.00  0.00    +0.000 OA
ENDBRANCH   2  12
ENDBRANCH   1   9
BRANCH   1  14
ATOM     14  C   UNL     1       3.294   5.514  18.671  0.00  0.00    +0.000 C 
BRANCH  14  15
ATOM     15  C   UNL     1       2.570   6.801  18.934  0.00  0.00    +0.000 A 
ATOM     16  C   UNL     1       2.370   7.739  17.916  0.00  0.00    +0.000 A 
ATOM     17  C   UNL     1       1.775   8.965  18.193  0.00  0.00    +0.000 A 
ATOM     18  C   UNL     1       1.335   9.257  19.484  0.00  0.00    +0.000 A 
ATOM     19  C   UNL     1       1.497   8.307  20.494  0.00  0.00    +0.000 A 
ATOM     20  C   UNL     1       2.082   7.077  20.217  0.00  0.00    +0.000 A 
BRANCH  18  21
ATOM     21  O   UNL     1       0.829  10.511  19.659  0.00  0.00    +0.000 OA
BRANCH  21  22
ATOM     22  C   UNL     1      -0.571  10.666  19.821  0.00  0.00    +0.000 C 
ATOM     23  F   UNL     1      -1.332   9.814  19.094  0.00  0.00    +0.000 F 
ATOM     24  F   UNL     1      -0.886  10.507  21.129  0.00  0.00    +0.000 F 
ATOM     25  F   UNL     1      -0.907  11.919  19.456  0.00  0.00    +0.000 F 
ENDBRANCH  21  22
ENDBRANCH  18  21
ENDBRANCH  14  15
ENDBRANCH   1  14
TORSDOF 6
ENDMDL
MODEL 8
REMARK VINA RESULT:      -7.8      1.130      1.665
REMARK  Name = 
REMARK  6 active torsions:
REMARK  status: ('A' for Active; 'I' for Inactive)
REMARK    1  A    between atoms: N_2  and  C_4
REMARK    2  A    between atoms: C_11  and  O_12
REMARK    3  A    between atoms: O_12  and  C_13
REMARK    4  A    between atoms: C_13  and  C_14
REMARK    5  A    between atoms: C_17  and  O_18
REMARK    6  A    between atoms: O_18  and  C_19
REMARK                            x       y       z     vdW  Elec       q    Type
REMARK                         _______ _______ _______ _____ _____    ______ ____
ROOT
ATOM      1  O   UNL     1       3.233   4.759  18.366  0.00  0.00    +0.000 OA
ENDROOT
BRANCH   1   9
ATOM      2  C   UNL     1       6.996   4.946  14.324  0.00  0.00    +0.000 A 
ATOM      3  C   UNL     1       5.763   4.337  14.466  0.00  0.00    +0.000 A 
ATOM      4  N   UNL     1       5.525   4.363  15.811  0.00  0.00    +0.000 N 
ATOM      5  C   UNL     1       6.614   4.915  16.416  0.00  0.00    +0.000 A 
ATOM      6  N   UNL     1       7.509   5.317  15.552  0.00  0.00    +0.000 NA
ATOM      7  O   UNL     1       6.821   4.900  17.722  0.00  0.00    +0.000 OA
ATOM      8  C   UNL     1       5.675   4.814  18.544  0.00  0.00    +0.000 C 
ATOM      9  C   UNL     1       4.442   4.040  18.030  0.00  0.00    +0.000 C 
ATOM     10  C   UNL     1       4.442   3.736  16.525  0.00  0.00    +0.000 C 
BRANCH   2  12
ATOM     11  O   UNL     1       8.731   5.923  13.197  0.00  0.00    +0.000 OA
ATOM     12  N   UNL     1       7.762   5.145  13.116  0.00  0.00    +0.000 N 
ATOM     13  O   UNL     1       7.414   4.551  12.092  0.00  0.00    +0.000 OA
ENDBRANCH   2  12
ENDBRANCH   1   9
BRANCH   1  14
ATOM     14  C   UNL     1       3.383   5.590  19.522  0.00  0.00    +0.000 C 
BRANCH  14  15
ATOM     15  C   UNL     1       2.715   6.911  19.280  0.00  0.00    +0.000 A 
ATOM     16  C   UNL     1       1.966   7.537  20.282  0.00  0.00    +0.000 A 
ATOM     17  C   UNL     1       1.281   8.718  20.018  0.00  0.00    +0.000 A 
ATOM     18  C   UNL     1       1.366   9.313  18.760  0.00  0.00    +0.000 A 
ATOM     19  C   UNL     1       2.144   8.711  17.769  0.00  0.00    +0.000 A 
ATOM     20  C   UNL     1       2.838   7.538  18.034  0.00  0.00    +0.000 A 
BRANCH  18  21
ATOM     21  O   UNL     1       0.601  10.428  18.589  0.00  0.00    +0.000 OA
BRANCH  21  22
ATOM     22  C   UNL     1       1.194  11.701  18.795  0.00  0.00    +0.000 C 
ATOM     23  F   UNL     1       2.408  11.869  18.218  0.00  0.00    +0.000 F 
ATOM     24  F   UNL     1       0.361  12.659  18.321  0.00  0.00    +0.000 F 
ATOM     25  F   UNL     1       1.345  11.891  20.119  0.00  0.00    +0.000 F 
ENDBRANCH  21  22
ENDBRANCH  18  21
ENDBRANCH  14  15
ENDBRANCH   1  14
TORSDOF 6
ENDMDL
MODEL 9
REMARK VINA RESULT:      -7.8      1.049      1.703
REMARK  Name = 
REMARK  6 active torsions:
REMARK  status: ('A' for Active; 'I' for Inactive)
REMARK    1  A    between atoms: N_2  and  C_4
REMARK    2  A    between atoms: C_11  and  O_12
REMARK    3  A    between atoms: O_12  and  C_13
REMARK    4  A    between atoms: C_13  and  C_14
REMARK    5  A    between atoms: C_17  and  O_18
REMARK    6  A    between atoms: O_18  and  C_19
REMARK                            x       y       z     vdW  Elec       q    Type
REMARK                         _______ _______ _______ _____ _____    ______ ____
ROOT
ATOM      1  O   UNL     1       3.477   4.744  18.843  0.00  0.00    +0.000 OA
ENDROOT
BRANCH   1   9
ATOM      2  C   UNL     1       6.972   4.939  14.568  0.00  0.00    +0.000 A 
ATOM      3  C   UNL     1       5.845   4.193  14.858  0.00  0.00    +0.000 A 
ATOM      4  N   UNL     1       5.673   4.350  16.204  0.00  0.00    +0.000 N 
ATOM      5  C   UNL     1       6.703   5.111  16.670  0.00  0.00    +0.000 A 
ATOM      6  N   UNL     1       7.488   5.521  15.709  0.00  0.00    +0.000 NA
ATOM      7  O   UNL     1       6.973   5.283  17.953  0.00  0.00    +0.000 OA
ATOM      8  C   UNL     1       5.893   5.145  18.853  0.00  0.00    +0.000 C 
ATOM      9  C   UNL     1       4.757   4.158  18.512  0.00  0.00    +0.000 C 
ATOM     10  C   UNL     1       4.725   3.676  17.054  0.00  0.00    +0.000 C 
BRANCH   2  12
ATOM     11  O   UNL     1       7.177   4.436  12.345  0.00  0.00    +0.000 OA
ATOM     12  N   UNL     1       7.642   5.090  13.297  0.00  0.00    +0.000 N 
ATOM     13  O   UNL     1       8.621   5.838  13.232  0.00  0.00    +0.000 OA
ENDBRANCH   2  12
ENDBRANCH   1   9
BRANCH   1  14
ATOM     14  C   UNL     1       2.986   5.620  17.823  0.00  0.00    +0.000 C 
BRANCH  14  15
ATOM     15  C   UNL     1       2.513   6.900  18.444  0.00  0.00    +0.000 A 
ATOM     16  C   UNL     1       2.262   6.987  19.818  0.00  0.00    +0.000 A 
ATOM     17  C   UNL     1       1.741   8.153  20.368  0.00  0.00    +0.000 A 
ATOM     18  C   UNL     1       1.499   9.263  19.560  0.00  0.00    +0.000 A 
ATOM     19  C   UNL     1       1.786   9.193  18.195  0.00  0.00    +0.000 A 
ATOM     20  C   UNL     1       2.316   8.033  17.646  0.00  0.00    +0.000 A 
BRANCH  18  21
ATOM     21  O   UNL     1       0.924  10.328  20.189  0.00  0.00    +0.000 OA
BRANCH  21  22
ATOM     22  C   UNL     1      -0.458  10.270  20.504  0.00  0.00    +0.000 C 
ATOM     23  F   UNL     1      -0.762   9.578  21.628  0.00  0.00    +0.000 F 
ATOM     24  F   UNL     1      -0.934  11.531  20.639  0.00  0.00    +0.000 F 
ATOM     25  F   UNL     1      -1.104   9.683  19.479  0.00  0.00    +0.000 F 
ENDBRANCH  21  22
ENDBRANCH  18  21
ENDBRANCH  14  15
ENDBRANCH   1  14
TORSDOF 6
ENDMDL
