MODEL 1
REMARK VINA RESULT:      -8.2      0.000      0.000
REMARK  Name = 
REMARK  9 active torsions:
REMARK  status: ('A' for Active; 'I' for Inactive)
REMARK    1  A    between atoms: C_2  and  C_8
REMARK    2  A    between atoms: N_3  and  C_4
REMARK    3  A    between atoms: C_4  and  C_5
REMARK    4  A    between atoms: C_10  and  C_11
REMARK    5  A    between atoms: C_11  and  N_12
REMARK    6  A    between atoms: C_11  and  C_27
REMARK    7  A    between atoms: N_12  and  P_13
REMARK    8  A    between atoms: P_13  and  C_15
REMARK    9  A    between atoms: P_13  and  C_21
REMARK                            x       y       z     vdW  Elec       q    Type
REMARK                         _______ _______ _______ _____ _____    ______ ____
ROOT
ATOM      1  C   UNL     1       2.836   6.593  18.715  0.00  0.00    +0.000 C 
ENDROOT
BRANCH   1   2
ATOM      2  C   UNL     1       2.090   5.448  19.366  0.00  0.00    +0.000 A 
ATOM      3  C   UNL     1       2.259   5.210  20.737  0.00  0.00    +0.000 A 
ATOM      4  C   UNL     1       1.729   4.063  21.324  0.00  0.00    +0.000 A 
ATOM      5  C   UNL     1       1.002   3.155  20.554  0.00  0.00    +0.000 A 
ATOM      6  C   UNL     1       0.764   3.417  19.209  0.00  0.00    +0.000 A 
ATOM      7  C   UNL     1       1.287   4.565  18.621  0.00  0.00    +0.000 A 
ENDBRANCH   1   2
BRANCH   1  10
ATOM      8  C   UNL     1       1.759   9.022  19.022  0.00  0.00    +0.000 C 
ATOM      9  C   UNL     1       2.354   8.943  17.635  0.00  0.00    +0.000 C 
ATOM     10  C   UNL     1       1.849   7.678  18.304  0.00  0.00    +0.000 C 
BRANCH   8  12
ATOM     11  O   UNL     1      -0.168   9.637  20.260  0.00  0.00    +0.000 OA
ATOM     12  C   UNL     1       0.429   9.685  19.191  0.00  0.00    +0.000 C 
ATOM     13  N   UNL     1      -0.059  10.320  18.073  0.00  0.00    +0.000 N 
ATOM     14  H   UNL     1       0.419  10.235  17.189  0.00  0.00    +0.000 HD
BRANCH  13  15
ATOM     15  C   UNL     1      -1.371  10.922  18.113  0.00  0.00    +0.000 C 
BRANCH  15  16
ATOM     16  C   UNL     1      -2.413   9.953  17.654  0.00  0.00    +0.000 C 
ATOM     17  C   UNL     1      -3.876  10.324  17.612  0.00  0.00    +0.000 C 
ATOM     18  C   UNL     1      -3.105  10.175  16.331  0.00  0.00    +0.000 C 
ENDBRANCH  15  16
ENDBRANCH  13  15
ENDBRANCH   8  12
ENDBRANCH   1  10
BRANCH   1  19
ATOM     19  N   UNL     1       3.525   6.186  17.525  0.00  0.00    +0.000 NA
ATOM     20  H   UNL     1       3.222   6.739  16.731  0.00  0.00    +0.000 HD
BRANCH  19  21
ATOM     21  P   UNL     1       4.953   5.469  17.221  0.00  0.00    +0.000 P 
ATOM     22  O   UNL     1       6.031   6.235  17.963  0.00  0.00    +0.000 OA
BRANCH  21  23
ATOM     23  C   UNL     1       4.656   3.850  17.982  0.00  0.00    +0.000 A 
ATOM     24  C   UNL     1       5.044   3.591  19.305  0.00  0.00    +0.000 A 
ATOM     25  C   UNL     1       4.685   2.389  19.913  0.00  0.00    +0.000 A 
ATOM     26  C   UNL     1       3.941   1.447  19.202  0.00  0.00    +0.000 A 
ATOM     27  C   UNL     1       3.572   1.690  17.880  0.00  0.00    +0.000 A 
ATOM     28  C   UNL     1       3.931   2.886  17.268  0.00  0.00    +0.000 A 
ENDBRANCH  21  23
BRANCH  21  29
ATOM     29  C   UNL     1       5.543   4.982  15.595  0.00  0.00    +0.000 A 
ATOM     30  C   UNL     1       4.911   4.315  14.555  0.00  0.00    +0.000 A 
ATOM     31  C   UNL     1       5.620   3.969  13.386  0.00  0.00    +0.000 A 
ATOM     32  C   UNL     1       6.978   4.266  13.252  0.00  0.00    +0.000 A 
ATOM     33  C   UNL     1       7.625   4.954  14.264  0.00  0.00    +0.000 A 
ATOM     34  C   UNL     1       6.912   5.318  15.397  0.00  0.00    +0.000 A 
ENDBRANCH  21  29
ENDBRANCH  19  21
ENDBRANCH   1  19
TORSDOF 9
ENDMDL
MODEL 2
REMARK VINA RESULT:      -7.8      0.591      1.336
REMARK  Name = 
REMARK  9 active torsions:
REMARK  status: ('A' for Active; 'I' for Inactive)
REMARK    1  A    between atoms: C_2  and  C_8
REMARK    2  A    between atoms: N_3  and  C_4
REMARK    3  A    between atoms: C_4  and  C_5
REMARK    4  A    between atoms: C_10  and  C_11
REMARK    5  A    between atoms: C_11  and  N_12
REMARK    6  A    between atoms: C_11  and  C_27
REMARK    7  A    between atoms: N_12  and  P_13
REMARK    8  A    between atoms: P_13  and  C_15
REMARK    9  A    between atoms: P_13  and  C_21
REMARK                            x       y       z     vdW  Elec       q    Type
REMARK                         _______ _______ _______ _____ _____    ______ ____
ROOT
ATOM      1  C   UNL     1       2.844   6.613  19.192  0.00  0.00    +0.000 C 
ENDROOT
BRANCH   1   2
ATOM      2  C   UNL     1       2.145   5.423  19.815  0.00  0.00    +0.000 A 
ATOM      3  C   UNL     1       2.494   5.025  21.113  0.00  0.00    +0.000 A 
ATOM      4  C   UNL     1       1.999   3.834  21.641  0.00  0.00    +0.000 A 
ATOM      5  C   UNL     1       1.131   3.043  20.890  0.00  0.00    +0.000 A 
ATOM      6  C   UNL     1       0.718   3.464  19.630  0.00  0.00    +0.000 A 
ATOM      7  C   UNL     1       1.205   4.656  19.102  0.00  0.00    +0.000 A 
ENDBRANCH   1   2
BRANCH   1  10
ATOM      8  C   UNL     1       1.782   9.064  19.062  0.00  0.00    +0.000 C 
ATOM      9  C   UNL     1       2.225   8.668  17.672  0.00  0.00    +0.000 C 
ATOM     10  C   UNL     1       1.808   7.592  18.657  0.00  0.00    +0.000 C 
BRANCH   8  12
ATOM     11  O   UNL     1      -0.211   9.610  20.225  0.00  0.00    +0.000 OA
ATOM     12  C   UNL     1       0.471   9.767  19.220  0.00  0.00    +0.000 C 
ATOM     13  N   UNL     1       0.102  10.567  18.165  0.00  0.00    +0.000 N 
ATOM     14  H   UNL     1       0.645  10.575  17.315  0.00  0.00    +0.000 HD
BRANCH  13  15
ATOM     15  C   UNL     1      -1.184  11.226  18.188  0.00  0.00    +0.000 C 
BRANCH  15  16
ATOM     16  C   UNL     1      -2.113  10.611  17.191  0.00  0.00    +0.000 C 
ATOM     17  C   UNL     1      -3.195   9.644  17.608  0.00  0.00    +0.000 C 
ATOM     18  C   UNL     1      -3.563  11.033  17.166  0.00  0.00    +0.000 C 
ENDBRANCH  15  16
ENDBRANCH  13  15
ENDBRANCH   8  12
ENDBRANCH   1  10
BRANCH   1  19
ATOM     19  N   UNL     1       3.672   6.237  18.083  0.00  0.00    +0.000 NA
ATOM     20  H   UNL     1       3.563   6.894  17.319  0.00  0.00    +0.000 HD
BRANCH  19  21
ATOM     21  P   UNL     1       5.048   5.384  17.922  0.00  0.00    +0.000 P 
ATOM     22  O   UNL     1       6.027   5.870  18.973  0.00  0.00    +0.000 OA
BRANCH  21  23
ATOM     23  C   UNL     1       4.432   3.725  18.315  0.00  0.00    +0.000 A 
ATOM     24  C   UNL     1       3.606   3.029  17.421  0.00  0.00    +0.000 A 
ATOM     25  C   UNL     1       3.256   1.704  17.681  0.00  0.00    +0.000 A 
ATOM     26  C   UNL     1       3.729   1.077  18.834  0.00  0.00    +0.000 A 
ATOM     27  C   UNL     1       4.531   1.772  19.738  0.00  0.00    +0.000 A 
ATOM     28  C   UNL     1       4.880   3.093  19.484  0.00  0.00    +0.000 A 
ENDBRANCH  21  23
BRANCH  21  29
ATOM     29  C   UNL     1       5.902   5.077  16.371  0.00  0.00    +0.000 A 
ATOM     30  C   UNL     1       7.191   5.387  15.960  0.00  0.00    +0.000 A 
ATOM     31  C   UNL     1       7.612   5.110  14.644  0.00  0.00    +0.000 A 
ATOM     32  C   UNL     1       6.741   4.540  13.712  0.00  0.00    +0.000 A 
ATOM     33  C   UNL     1       5.458   4.198  14.104  0.00  0.00    +0.000 A 
ATOM     34  C   UNL     1       5.062   4.445  15.411  0.00  0.00    +0.000 A 
ENDBRANCH  21  29
ENDBRANCH  19  21
ENDBRANCH   1  19
TORSDOF 9
ENDMDL
MODEL 3
REMARK VINA RESULT:      -7.6      1.973      3.494
REMARK  Name = 
REMARK  9 active torsions:
REMARK  status: ('A' for Active; 'I' for Inactive)
REMARK    1  A    between atoms: C_2  and  C_8
REMARK    2  A    between atoms: N_3  and  C_4
REMARK    3  A    between atoms: C_4  and  C_5
REMARK    4  A    between atoms: C_10  and  C_11
REMARK    5  A    between atoms: C_11  and  N_12
REMARK    6  A    between atoms: C_11  and  C_27
REMARK    7  A    between atoms: N_12  and  P_13
REMARK    8  A    between atoms: P_13  and  C_15
REMARK    9  A    between atoms: P_13  and  C_21
REMARK                            x       y       z     vdW  Elec       q    Type
REMARK                         _______ _______ _______ _____ _____    ______ ____
ROOT
ATOM      1  C   UNL     1       3.127   5.853  19.014  0.00  0.00    +0.000 C 
ENDROOT
BRANCH   1   2
ATOM      2  C   UNL     1       2.335   4.598  19.311  0.00  0.00    +0.000 A 
ATOM      3  C   UNL     1       1.945   3.765  18.252  0.00  0.00    +0.000 A 
ATOM      4  C   UNL     1       1.069   2.705  18.475  0.00  0.00    +0.000 A 
ATOM      5  C   UNL     1       0.594   2.449  19.761  0.00  0.00    +0.000 A 
ATOM      6  C   UNL     1       1.031   3.221  20.832  0.00  0.00    +0.000 A 
ATOM      7  C   UNL     1       1.912   4.277  20.614  0.00  0.00    +0.000 A 
ENDBRANCH   1   2
BRANCH   1  10
ATOM      8  C   UNL     1       2.267   8.384  18.955  0.00  0.00    +0.000 C 
ATOM      9  C   UNL     1       2.736   8.014  17.566  0.00  0.00    +0.000 C 
ATOM     10  C   UNL     1       2.195   6.934  18.484  0.00  0.00    +0.000 C 
BRANCH   8  12
ATOM     11  O   UNL     1       0.423   9.252  20.167  0.00  0.00    +0.000 OA
ATOM     12  C   UNL     1       1.010   9.183  19.094  0.00  0.00    +0.000 C 
ATOM     13  N   UNL     1       0.574   9.799  17.945  0.00  0.00    +0.000 N 
ATOM     14  H   UNL     1       1.031   9.619  17.064  0.00  0.00    +0.000 HD
BRANCH  13  15
ATOM     15  C   UNL     1      -0.673  10.528  17.958  0.00  0.00    +0.000 C 
BRANCH  15  16
ATOM     16  C   UNL     1      -1.706   9.827  17.134  0.00  0.00    +0.000 C 
ATOM     17  C   UNL     1      -3.156   9.783  17.552  0.00  0.00    +0.000 C 
ATOM     18  C   UNL     1      -2.739  10.638  16.388  0.00  0.00    +0.000 C 
ENDBRANCH  15  16
ENDBRANCH  13  15
ENDBRANCH   8  12
ENDBRANCH   1  10
BRANCH   1  19
ATOM     19  N   UNL     1       4.128   5.638  18.009  0.00  0.00    +0.000 NA
ATOM     20  H   UNL     1       3.821   6.008  17.116  0.00  0.00    +0.000 HD
BRANCH  19  21
ATOM     21  P   UNL     1       5.742   5.436  18.029  0.00  0.00    +0.000 P 
ATOM     22  O   UNL     1       6.065   4.338  19.023  0.00  0.00    +0.000 OA
BRANCH  21  23
ATOM     23  C   UNL     1       6.005   4.877  16.324  0.00  0.00    +0.000 A 
ATOM     24  C   UNL     1       4.951   4.346  15.566  0.00  0.00    +0.000 A 
ATOM     25  C   UNL     1       5.144   4.049  14.217  0.00  0.00    +0.000 A 
ATOM     26  C   UNL     1       6.387   4.281  13.627  0.00  0.00    +0.000 A 
ATOM     27  C   UNL     1       7.443   4.787  14.382  0.00  0.00    +0.000 A 
ATOM     28  C   UNL     1       7.258   5.081  15.728  0.00  0.00    +0.000 A 
ENDBRANCH  21  23
BRANCH  21  29
ATOM     29  C   UNL     1       6.951   6.759  18.149  0.00  0.00    +0.000 A 
ATOM     30  C   UNL     1       8.122   6.864  18.888  0.00  0.00    +0.000 A 
ATOM     31  C   UNL     1       8.875   8.056  18.878  0.00  0.00    +0.000 A 
ATOM     32  C   UNL     1       8.454   9.169  18.146  0.00  0.00    +0.000 A 
ATOM     33  C   UNL     1       7.304   9.082  17.380  0.00  0.00    +0.000 A 
ATOM     34  C   UNL     1       6.586   7.894  17.371  0.00  0.00    +0.000 A 
ENDBRANCH  21  29
ENDBRANCH  19  21
ENDBRANCH   1  19
TORSDOF 9
ENDMDL
MODEL 4
REMARK VINA RESULT:      -7.5      1.648      2.275
REMARK  Name = 
REMARK  9 active torsions:
REMARK  status: ('A' for Active; 'I' for Inactive)
REMARK    1  A    between atoms: C_2  and  C_8
REMARK    2  A    between atoms: N_3  and  C_4
REMARK    3  A    between atoms: C_4  and  C_5
REMARK    4  A    between atoms: C_10  and  C_11
REMARK    5  A    between atoms: C_11  and  N_12
REMARK    6  A    between atoms: C_11  and  C_27
REMARK    7  A    between atoms: N_12  and  P_13
REMARK    8  A    between atoms: P_13  and  C_15
REMARK    9  A    between atoms: P_13  and  C_21
REMARK                            x       y       z     vdW  Elec       q    Type
REMARK                         _______ _______ _______ _____ _____    ______ ____
ROOT
ATOM      1  C   UNL     1       2.815   6.619  19.048  0.00  0.00    +0.000 C 
ENDROOT
BRANCH   1   2
ATOM      2  C   UNL     1       2.139   5.443  19.722  0.00  0.00    +0.000 A 
ATOM      3  C   UNL     1       2.499   5.105  21.034  0.00  0.00    +0.000 A 
ATOM      4  C   UNL     1       2.028   3.929  21.613  0.00  0.00    +0.000 A 
ATOM      5  C   UNL     1       1.172   3.092  20.898  0.00  0.00    +0.000 A 
ATOM      6  C   UNL     1       0.748   3.453  19.624  0.00  0.00    +0.000 A 
ATOM      7  C   UNL     1       1.212   4.631  19.045  0.00  0.00    +0.000 A 
ENDBRANCH   1   2
BRANCH   1  10
ATOM      8  C   UNL     1       1.805   9.095  19.072  0.00  0.00    +0.000 C 
ATOM      9  C   UNL     1       2.132   8.734  17.641  0.00  0.00    +0.000 C 
ATOM     10  C   UNL     1       1.765   7.637  18.622  0.00  0.00    +0.000 C 
BRANCH   8  12
ATOM     11  O   UNL     1      -0.254  10.092  18.446  0.00  0.00    +0.000 OA
ATOM     12  C   UNL     1       0.527   9.821  19.351  0.00  0.00    +0.000 C 
ATOM     13  N   UNL     1       0.319  10.164  20.666  0.00  0.00    +0.000 N 
ATOM     14  H   UNL     1       1.044  10.017  21.353  0.00  0.00    +0.000 HD
BRANCH  13  15
ATOM     15  C   UNL     1      -0.847  10.937  21.024  0.00  0.00    +0.000 C 
BRANCH  15  16
ATOM     16  C   UNL     1      -0.793  11.345  22.461  0.00  0.00    +0.000 C 
ATOM     17  C   UNL     1      -1.039  12.772  22.890  0.00  0.00    +0.000 C 
ATOM     18  C   UNL     1      -2.068  11.715  23.178  0.00  0.00    +0.000 C 
ENDBRANCH  15  16
ENDBRANCH  13  15
ENDBRANCH   8  12
ENDBRANCH   1  10
BRANCH   1  19
ATOM     19  N   UNL     1       3.522   6.232  17.862  0.00  0.00    +0.000 NA
ATOM     20  H   UNL     1       3.320   6.872  17.102  0.00  0.00    +0.000 HD
BRANCH  19  21
ATOM     21  P   UNL     1       4.885   5.393  17.567  0.00  0.00    +0.000 P 
ATOM     22  O   UNL     1       5.990   5.978  18.424  0.00  0.00    +0.000 OA
BRANCH  21  23
ATOM     23  C   UNL     1       4.380   3.759  18.170  0.00  0.00    +0.000 A 
ATOM     24  C   UNL     1       3.585   2.912  17.384  0.00  0.00    +0.000 A 
ATOM     25  C   UNL     1       3.323   1.610  17.809  0.00  0.00    +0.000 A 
ATOM     26  C   UNL     1       3.853   1.156  19.017  0.00  0.00    +0.000 A 
ATOM     27  C   UNL     1       4.625   2.001  19.812  0.00  0.00    +0.000 A 
ATOM     28  C   UNL     1       4.886   3.301  19.395  0.00  0.00    +0.000 A 
ENDBRANCH  21  23
BRANCH  21  29
ATOM     29  C   UNL     1       5.515   4.980  15.936  0.00  0.00    +0.000 A 
ATOM     30  C   UNL     1       4.929   4.309  14.872  0.00  0.00    +0.000 A 
ATOM     31  C   UNL     1       5.665   4.030  13.703  0.00  0.00    +0.000 A 
ATOM     32  C   UNL     1       7.008   4.400  13.591  0.00  0.00    +0.000 A 
ATOM     33  C   UNL     1       7.609   5.093  14.628  0.00  0.00    +0.000 A 
ATOM     34  C   UNL     1       6.866   5.391  15.762  0.00  0.00    +0.000 A 
ENDBRANCH  21  29
ENDBRANCH  19  21
ENDBRANCH   1  19
TORSDOF 9
ENDMDL
MODEL 5
REMARK VINA RESULT:      -7.4      2.355      3.907
REMARK  Name = 
REMARK  9 active torsions:
REMARK  status: ('A' for Active; 'I' for Inactive)
REMARK    1  A    between atoms: C_2  and  C_8
REMARK    2  A    between atoms: N_3  and  C_4
REMARK    3  A    between atoms: C_4  and  C_5
REMARK    4  A    between atoms: C_10  and  C_11
REMARK    5  A    between atoms: C_11  and  N_12
REMARK    6  A    between atoms: C_11  and  C_27
REMARK    7  A    between atoms: N_12  and  P_13
REMARK    8  A    between atoms: P_13  and  C_15
REMARK    9  A    between atoms: P_13  and  C_21
REMARK                            x       y       z     vdW  Elec       q    Type
REMARK                         _______ _______ _______ _____ _____    ______ ____
ROOT
ATOM      1  C   UNL     1       3.017   5.800  18.827  0.00  0.00    +0.000 C 
ENDROOT
BRANCH   1   2
ATOM      2  C   UNL     1       2.144   4.586  19.063  0.00  0.00    +0.000 A 
ATOM      3  C   UNL     1       1.552   4.400  20.320  0.00  0.00    +0.000 A 
ATOM      4  C   UNL     1       0.893   3.209  20.620  0.00  0.00    +0.000 A 
ATOM      5  C   UNL     1       0.796   2.203  19.659  0.00  0.00    +0.000 A 
ATOM      6  C   UNL     1       1.314   2.405  18.384  0.00  0.00    +0.000 A 
ATOM      7  C   UNL     1       1.967   3.596  18.079  0.00  0.00    +0.000 A 
ENDBRANCH   1   2
BRANCH   1  10
ATOM      8  C   UNL     1       2.400   8.402  18.807  0.00  0.00    +0.000 C 
ATOM      9  C   UNL     1       2.733   7.987  17.393  0.00  0.00    +0.000 C 
ATOM     10  C   UNL     1       2.157   6.965  18.355  0.00  0.00    +0.000 C 
BRANCH   8  12
ATOM     11  O   UNL     1       0.758   9.961  18.101  0.00  0.00    +0.000 OA
ATOM     12  C   UNL     1       1.238   9.318  19.027  0.00  0.00    +0.000 C 
ATOM     13  N   UNL     1       0.779   9.387  20.321  0.00  0.00    +0.000 N 
ATOM     14  H   UNL     1       1.279   8.924  21.066  0.00  0.00    +0.000 HD
BRANCH  13  15
ATOM     15  C   UNL     1      -0.288  10.303  20.650  0.00  0.00    +0.000 C 
BRANCH  15  16
ATOM     16  C   UNL     1      -0.151  10.796  22.055  0.00  0.00    +0.000 C 
ATOM     17  C   UNL     1      -1.331  10.853  22.994  0.00  0.00    +0.000 C 
ATOM     18  C   UNL     1      -0.261   9.819  23.201  0.00  0.00    +0.000 C 
ENDBRANCH  15  16
ENDBRANCH  13  15
ENDBRANCH   8  12
ENDBRANCH   1  10
BRANCH   1  19
ATOM     19  N   UNL     1       4.002   5.572  17.811  0.00  0.00    +0.000 NA
ATOM     20  H   UNL     1       3.691   5.950  16.922  0.00  0.00    +0.000 HD
BRANCH  19  21
ATOM     21  P   UNL     1       5.612   5.341  17.811  0.00  0.00    +0.000 P 
ATOM     22  O   UNL     1       5.916   4.155  18.704  0.00  0.00    +0.000 OA
BRANCH  21  23
ATOM     23  C   UNL     1       5.867   4.930  16.063  0.00  0.00    +0.000 A 
ATOM     24  C   UNL     1       7.083   5.213  15.424  0.00  0.00    +0.000 A 
ATOM     25  C   UNL     1       7.306   4.767  14.122  0.00  0.00    +0.000 A 
ATOM     26  C   UNL     1       6.315   4.041  13.459  0.00  0.00    +0.000 A 
ATOM     27  C   UNL     1       5.097   3.777  14.082  0.00  0.00    +0.000 A 
ATOM     28  C   UNL     1       4.869   4.222  15.379  0.00  0.00    +0.000 A 
ENDBRANCH  21  23
BRANCH  21  29
ATOM     29  C   UNL     1       6.844   6.628  18.046  0.00  0.00    +0.000 A 
ATOM     30  C   UNL     1       7.996   6.661  18.820  0.00  0.00    +0.000 A 
ATOM     31  C   UNL     1       8.772   7.835  18.906  0.00  0.00    +0.000 A 
ATOM     32  C   UNL     1       8.393   9.001  18.237  0.00  0.00    +0.000 A 
ATOM     33  C   UNL     1       7.262   8.987  17.438  0.00  0.00    +0.000 A 
ATOM     34  C   UNL     1       6.522   7.818  17.334  0.00  0.00    +0.000 A 
ENDBRANCH  21  29
ENDBRANCH  19  21
ENDBRANCH   1  19
TORSDOF 9
ENDMDL
MODEL 6
REMARK VINA RESULT:      -7.4      1.601      2.112
REMARK  Name = 
REMARK  9 active torsions:
REMARK  status: ('A' for Active; 'I' for Inactive)
REMARK    1  A    between atoms: C_2  and  C_8
REMARK    2  A    between atoms: N_3  and  C_4
REMARK    3  A    between atoms: C_4  and  C_5
REMARK    4  A    between atoms: C_10  and  C_11
REMARK    5  A    between atoms: C_11  and  N_12
REMARK    6  A    between atoms: C_11  and  C_27
REMARK    7  A    between atoms: N_12  and  P_13
REMARK    8  A    between atoms: P_13  and  C_15
REMARK    9  A    between atoms: P_13  and  C_21
REMARK                            x       y       z     vdW  Elec       q    Type
REMARK                         _______ _______ _______ _____ _____    ______ ____
ROOT
ATOM      1  C   UNL     1       2.871   6.468  19.132  0.00  0.00    +0.000 C 
ENDROOT
BRANCH   1   2
ATOM      2  C   UNL     1       2.158   5.307  19.792  0.00  0.00    +0.000 A 
ATOM      3  C   UNL     1       2.487   4.960  21.110  0.00  0.00    +0.000 A 
ATOM      4  C   UNL     1       1.979   3.794  21.679  0.00  0.00    +0.000 A 
ATOM      5  C   UNL     1       1.117   2.977  20.948  0.00  0.00    +0.000 A 
ATOM      6  C   UNL     1       0.724   3.349  19.667  0.00  0.00    +0.000 A 
ATOM      7  C   UNL     1       1.225   4.516  19.098  0.00  0.00    +0.000 A 
ENDBRANCH   1   2
BRANCH   1  10
ATOM      8  C   UNL     1       2.232   9.033  18.729  0.00  0.00    +0.000 C 
ATOM      9  C   UNL     1       1.970   8.276  17.447  0.00  0.00    +0.000 C 
ATOM     10  C   UNL     1       1.863   7.553  18.777  0.00  0.00    +0.000 C 
BRANCH   8  12
ATOM     11  O   UNL     1       1.250  11.191  18.697  0.00  0.00    +0.000 OA
ATOM     12  C   UNL     1       1.237  10.060  19.167  0.00  0.00    +0.000 C 
ATOM     13  N   UNL     1       0.344   9.643  20.126  0.00  0.00    +0.000 N 
ATOM     14  H   UNL     1       0.445   8.738  20.560  0.00  0.00    +0.000 HD
BRANCH  13  15
ATOM     15  C   UNL     1      -0.606  10.586  20.672  0.00  0.00    +0.000 C 
BRANCH  15  16
ATOM     16  C   UNL     1      -0.280  10.903  22.096  0.00  0.00    +0.000 C 
ATOM     17  C   UNL     1      -1.233  10.574  23.219  0.00  0.00    +0.000 C 
ATOM     18  C   UNL     1       0.033   9.781  23.056  0.00  0.00    +0.000 C 
ENDBRANCH  15  16
ENDBRANCH  13  15
ENDBRANCH   8  12
ENDBRANCH   1  10
BRANCH   1  19
ATOM     19  N   UNL     1       3.517   6.084  17.910  0.00  0.00    +0.000 NA
ATOM     20  H   UNL     1       3.179   6.647  17.137  0.00  0.00    +0.000 HD
BRANCH  19  21
ATOM     21  P   UNL     1       4.937   5.383  17.539  0.00  0.00    +0.000 P 
ATOM     22  O   UNL     1       6.031   6.111  18.296  0.00  0.00    +0.000 OA
BRANCH  21  23
ATOM     23  C   UNL     1       4.654   3.728  18.224  0.00  0.00    +0.000 A 
ATOM     24  C   UNL     1       5.140   3.377  19.491  0.00  0.00    +0.000 A 
ATOM     25  C   UNL     1       4.795   2.148  20.054  0.00  0.00    +0.000 A 
ATOM     26  C   UNL     1       3.968   1.272  19.350  0.00  0.00    +0.000 A 
ATOM     27  C   UNL     1       3.502   1.606  18.080  0.00  0.00    +0.000 A 
ATOM     28  C   UNL     1       3.845   2.828  17.514  0.00  0.00    +0.000 A 
ENDBRANCH  21  23
BRANCH  21  29
ATOM     29  C   UNL     1       5.492   4.980  15.878  0.00  0.00    +0.000 A 
ATOM     30  C   UNL     1       4.809   4.459  14.787  0.00  0.00    +0.000 A 
ATOM     31  C   UNL     1       5.491   4.148  13.594  0.00  0.00    +0.000 A 
ATOM     32  C   UNL     1       6.872   4.331  13.483  0.00  0.00    +0.000 A 
ATOM     33  C   UNL     1       7.572   4.873  14.547  0.00  0.00    +0.000 A 
ATOM     34  C   UNL     1       6.886   5.206  15.708  0.00  0.00    +0.000 A 
ENDBRANCH  21  29
ENDBRANCH  19  21
ENDBRANCH   1  19
TORSDOF 9
ENDMDL
MODEL 7
REMARK VINA RESULT:      -7.4      1.745      2.730
REMARK  Name = 
REMARK  9 active torsions:
REMARK  status: ('A' for Active; 'I' for Inactive)
REMARK    1  A    between atoms: C_2  and  C_8
REMARK    2  A    between atoms: N_3  and  C_4
REMARK    3  A    between atoms: C_4  and  C_5
REMARK    4  A    between atoms: C_10  and  C_11
REMARK    5  A    between atoms: C_11  and  N_12
REMARK    6  A    between atoms: C_11  and  C_27
REMARK    7  A    between atoms: N_12  and  P_13
REMARK    8  A    between atoms: P_13  and  C_15
REMARK    9  A    between atoms: P_13  and  C_21
REMARK                            x       y       z     vdW  Elec       q    Type
REMARK                         _______ _______ _______ _____ _____    ______ ____
ROOT
ATOM      1  C   UNL     1       3.514   5.652  18.032  0.00  0.00    +0.000 C 
ENDROOT
BRANCH   1   2
ATOM      2  C   UNL     1       2.770   4.469  18.615  0.00  0.00    +0.000 A 
ATOM      3  C   UNL     1       2.987   3.191  18.080  0.00  0.00    +0.000 A 
ATOM      4  C   UNL     1       2.190   2.118  18.475  0.00  0.00    +0.000 A 
ATOM      5  C   UNL     1       1.187   2.304  19.426  0.00  0.00    +0.000 A 
ATOM      6  C   UNL     1       1.012   3.550  20.019  0.00  0.00    +0.000 A 
ATOM      7  C   UNL     1       1.811   4.622  19.632  0.00  0.00    +0.000 A 
ENDBRANCH   1   2
BRANCH   1  10
ATOM      8  C   UNL     1       2.646   8.000  18.972  0.00  0.00    +0.000 C 
ATOM      9  C   UNL     1       3.135   8.211  17.557  0.00  0.00    +0.000 C 
ATOM     10  C   UNL     1       2.585   6.857  17.963  0.00  0.00    +0.000 C 
BRANCH   8  12
ATOM     11  O   UNL     1       0.899   8.469  20.504  0.00  0.00    +0.000 OA
ATOM     12  C   UNL     1       1.385   8.681  19.400  0.00  0.00    +0.000 C 
ATOM     13  N   UNL     1       0.827   9.525  18.469  0.00  0.00    +0.000 N 
ATOM     14  H   UNL     1       1.206   9.578  17.536  0.00  0.00    +0.000 HD
BRANCH  13  15
ATOM     15  C   UNL     1      -0.434  10.168  18.758  0.00  0.00    +0.000 C 
BRANCH  15  16
ATOM     16  C   UNL     1      -1.358  10.074  17.586  0.00  0.00    +0.000 C 
ATOM     17  C   UNL     1      -2.850   9.928  17.764  0.00  0.00    +0.000 C 
ATOM     18  C   UNL     1      -2.279  11.228  17.270  0.00  0.00    +0.000 C 
ENDBRANCH  15  16
ENDBRANCH  13  15
ENDBRANCH   8  12
ENDBRANCH   1  10
BRANCH   1  19
ATOM     19  N   UNL     1       3.970   5.401  16.696  0.00  0.00    +0.000 NA
ATOM     20  H   UNL     1       3.203   5.088  16.110  0.00  0.00    +0.000 HD
BRANCH  19  21
ATOM     21  P   UNL     1       5.206   5.946  15.789  0.00  0.00    +0.000 P 
ATOM     22  O   UNL     1       4.869   7.352  15.333  0.00  0.00    +0.000 OA
BRANCH  21  23
ATOM     23  C   UNL     1       6.523   5.956  17.034  0.00  0.00    +0.000 A 
ATOM     24  C   UNL     1       7.109   7.158  17.458  0.00  0.00    +0.000 A 
ATOM     25  C   UNL     1       8.022   7.155  18.512  0.00  0.00    +0.000 A 
ATOM     26  C   UNL     1       8.351   5.953  19.140  0.00  0.00    +0.000 A 
ATOM     27  C   UNL     1       7.790   4.753  18.707  0.00  0.00    +0.000 A 
ATOM     28  C   UNL     1       6.881   4.751  17.655  0.00  0.00    +0.000 A 
ENDBRANCH  21  23
BRANCH  21  29
ATOM     29  C   UNL     1       5.996   5.034  14.457  0.00  0.00    +0.000 A 
ATOM     30  C   UNL     1       7.273   5.122  13.921  0.00  0.00    +0.000 A 
ATOM     31  C   UNL     1       7.640   4.342  12.806  0.00  0.00    +0.000 A 
ATOM     32  C   UNL     1       6.726   3.478  12.197  0.00  0.00    +0.000 A 
ATOM     33  C   UNL     1       5.454   3.353  12.728  0.00  0.00    +0.000 A 
ATOM     34  C   UNL     1       5.111   4.102  13.846  0.00  0.00    +0.000 A 
ENDBRANCH  21  29
ENDBRANCH  19  21
ENDBRANCH   1  19
TORSDOF 9
ENDMDL
MODEL 8
REMARK VINA RESULT:      -7.3      1.462      1.853
REMARK  Name = 
REMARK  9 active torsions:
REMARK  status: ('A' for Active; 'I' for Inactive)
REMARK    1  A    between atoms: C_2  and  C_8
REMARK    2  A    between atoms: N_3  and  C_4
REMARK    3  A    between atoms: C_4  and  C_5
REMARK    4  A    between atoms: C_10  and  C_11
REMARK    5  A    between atoms: C_11  and  N_12
REMARK    6  A    between atoms: C_11  and  C_27
REMARK    7  A    between atoms: N_12  and  P_13
REMARK    8  A    between atoms: P_13  and  C_15
REMARK    9  A    between atoms: P_13  and  C_21
REMARK                            x       y       z     vdW  Elec       q    Type
REMARK                         _______ _______ _______ _____ _____    ______ ____
ROOT
ATOM      1  C   UNL     1       2.869   6.509  18.665  0.00  0.00    +0.000 C 
ENDROOT
BRANCH   1   2
ATOM      2  C   UNL     1       2.023   5.346  19.139  0.00  0.00    +0.000 A 
ATOM      3  C   UNL     1       1.970   5.049  20.508  0.00  0.00    +0.000 A 
ATOM      4  C   UNL     1       1.347   3.885  20.953  0.00  0.00    +0.000 A 
ATOM      5  C   UNL     1       0.747   3.019  20.038  0.00  0.00    +0.000 A 
ATOM      6  C   UNL     1       0.728   3.341  18.685  0.00  0.00    +0.000 A 
ATOM      7  C   UNL     1       1.344   4.506  18.238  0.00  0.00    +0.000 A 
ENDBRANCH   1   2
BRANCH   1  10
ATOM      8  C   UNL     1       1.929   9.003  18.883  0.00  0.00    +0.000 C 
ATOM      9  C   UNL     1       2.570   8.859  17.522  0.00  0.00    +0.000 C 
ATOM     10  C   UNL     1       1.966   7.642  18.195  0.00  0.00    +0.000 C 
BRANCH   8  12
ATOM     11  O   UNL     1      -0.075   9.916  18.005  0.00  0.00    +0.000 OA
ATOM     12  C   UNL     1       0.637   9.748  18.988  0.00  0.00    +0.000 C 
ATOM     13  N   UNL     1       0.334  10.229  20.240  0.00  0.00    +0.000 N 
ATOM     14  H   UNL     1       1.006  10.160  20.990  0.00  0.00    +0.000 HD
BRANCH  13  15
ATOM     15  C   UNL     1      -0.853  11.030  20.427  0.00  0.00    +0.000 C 
BRANCH  15  16
ATOM     16  C   UNL     1      -0.519  12.487  20.412  0.00  0.00    +0.000 C 
ATOM     17  C   UNL     1      -0.811  13.354  19.211  0.00  0.00    +0.000 C 
ATOM     18  C   UNL     1      -1.631  13.506  20.461  0.00  0.00    +0.000 C 
ENDBRANCH  15  16
ENDBRANCH  13  15
ENDBRANCH   8  12
ENDBRANCH   1  10
BRANCH   1  19
ATOM     19  N   UNL     1       3.705   6.156  17.555  0.00  0.00    +0.000 NA
ATOM     20  H   UNL     1       3.515   6.758  16.761  0.00  0.00    +0.000 HD
BRANCH  19  21
ATOM     21  P   UNL     1       5.152   5.430  17.399  0.00  0.00    +0.000 P 
ATOM     22  O   UNL     1       6.148   6.180  18.263  0.00  0.00    +0.000 OA
BRANCH  21  23
ATOM     23  C   UNL     1       4.763   3.806  18.105  0.00  0.00    +0.000 A 
ATOM     24  C   UNL     1       5.003   3.529  19.459  0.00  0.00    +0.000 A 
ATOM     25  C   UNL     1       4.572   2.324  20.011  0.00  0.00    +0.000 A 
ATOM     26  C   UNL     1       3.902   1.396  19.212  0.00  0.00    +0.000 A 
ATOM     27  C   UNL     1       3.681   1.657  17.861  0.00  0.00    +0.000 A 
ATOM     28  C   UNL     1       4.112   2.856  17.305  0.00  0.00    +0.000 A 
ENDBRANCH  21  23
BRANCH  21  29
ATOM     29  C   UNL     1       5.912   4.956  15.842  0.00  0.00    +0.000 A 
ATOM     30  C   UNL     1       7.214   5.094  15.381  0.00  0.00    +0.000 A 
ATOM     31  C   UNL     1       7.557   4.712  14.068  0.00  0.00    +0.000 A 
ATOM     32  C   UNL     1       6.595   4.207  13.189  0.00  0.00    +0.000 A 
ATOM     33  C   UNL     1       5.295   4.036  13.632  0.00  0.00    +0.000 A 
ATOM     34  C   UNL     1       4.974   4.386  14.937  0.00  0.00    +0.000 A 
ENDBRANCH  21  29
ENDBRANCH  19  21
ENDBRANCH   1  19
TORSDOF 9
ENDMDL
MODEL 9
REMARK VINA RESULT:      -7.2      2.824      7.499
REMARK  Name = 
REMARK  9 active torsions:
REMARK  status: ('A' for Active; 'I' for Inactive)
REMARK    1  A    between atoms: C_2  and  C_8
REMARK    2  A    between atoms: N_3  and  C_4
REMARK    3  A    between atoms: C_4  and  C_5
REMARK    4  A    between atoms: C_10  and  C_11
REMARK    5  A    between atoms: C_11  and  N_12
REMARK    6  A    between atoms: C_11  and  C_27
REMARK    7  A    between atoms: N_12  and  P_13
REMARK    8  A    between atoms: P_13  and  C_15
REMARK    9  A    between atoms: P_13  and  C_21
REMARK                            x       y       z     vdW  Elec       q    Type
REMARK                         _______ _______ _______ _____ _____    ______ ____
ROOT
ATOM      1  C   UNL     1       6.167   5.073  18.107  0.00  0.00    +0.000 C 
ENDROOT
BRANCH   1   2
ATOM      2  C   UNL     1       6.962   6.360  18.028  0.00  0.00    +0.000 A 
ATOM      3  C   UNL     1       8.047   6.550  18.895  0.00  0.00    +0.000 A 
ATOM      4  C   UNL     1       8.682   7.789  18.966  0.00  0.00    +0.000 A 
ATOM      5  C   UNL     1       8.257   8.841  18.155  0.00  0.00    +0.000 A 
ATOM      6  C   UNL     1       7.231   8.642  17.237  0.00  0.00    +0.000 A 
ATOM      7  C   UNL     1       6.599   7.404  17.158  0.00  0.00    +0.000 A 
ENDBRANCH   1   2
BRANCH   1  10
ATOM      8  C   UNL     1       6.750   3.986  15.734  0.00  0.00    +0.000 C 
ATOM      9  C   UNL     1       5.665   3.154  16.379  0.00  0.00    +0.000 C 
ATOM     10  C   UNL     1       5.766   4.632  16.705  0.00  0.00    +0.000 C 
BRANCH   8  12
ATOM     11  O   UNL     1       7.069   5.333  13.808  0.00  0.00    +0.000 OA
ATOM     12  C   UNL     1       6.649   4.278  14.270  0.00  0.00    +0.000 C 
ATOM     13  N   UNL     1       6.048   3.300  13.515  0.00  0.00    +0.000 N 
ATOM     14  H   UNL     1       5.620   2.502  13.959  0.00  0.00    +0.000 HD
BRANCH  13  15
ATOM     15  C   UNL     1       5.832   3.523  12.104  0.00  0.00    +0.000 C 
BRANCH  15  16
ATOM     16  C   UNL     1       4.372   3.633  11.801  0.00  0.00    +0.000 C 
ATOM     17  C   UNL     1       3.873   4.000  10.424  0.00  0.00    +0.000 C 
ATOM     18  C   UNL     1       3.712   2.593  10.927  0.00  0.00    +0.000 C 
ENDBRANCH  15  16
ENDBRANCH  13  15
ENDBRANCH   8  12
ENDBRANCH   1  10
BRANCH   1  19
ATOM     19  N   UNL     1       4.955   5.229  18.857  0.00  0.00    +0.000 NA
ATOM     20  H   UNL     1       5.157   5.555  19.795  0.00  0.00    +0.000 HD
BRANCH  19  21
ATOM     21  P   UNL     1       3.399   5.502  18.470  0.00  0.00    +0.000 P 
ATOM     22  O   UNL     1       3.206   5.133  17.012  0.00  0.00    +0.000 OA
BRANCH  21  23
ATOM     23  C   UNL     1       2.592   4.303  19.564  0.00  0.00    +0.000 A 
ATOM     24  C   UNL     1       3.229   3.838  20.723  0.00  0.00    +0.000 A 
ATOM     25  C   UNL     1       2.538   3.023  21.620  0.00  0.00    +0.000 A 
ATOM     26  C   UNL     1       1.213   2.672  21.357  0.00  0.00    +0.000 A 
ATOM     27  C   UNL     1       0.583   3.113  20.195  0.00  0.00    +0.000 A 
ATOM     28  C   UNL     1       1.268   3.923  19.297  0.00  0.00    +0.000 A 
ENDBRANCH  21  23
BRANCH  21  29
ATOM     29  C   UNL     1       2.481   6.997  18.859  0.00  0.00    +0.000 A 
ATOM     30  C   UNL     1       2.159   8.101  18.081  0.00  0.00    +0.000 A 
ATOM     31  C   UNL     1       1.489   9.206  18.643  0.00  0.00    +0.000 A 
ATOM     32  C   UNL     1       1.151   9.232  19.998  0.00  0.00    +0.000 A 
ATOM     33  C   UNL     1       1.438   8.134  20.790  0.00  0.00    +0.000 A 
ATOM     34  C   UNL     1       2.070   7.037  20.221  0.00  0.00    +0.000 A 
ENDBRANCH  21  29
ENDBRANCH  19  21
ENDBRANCH   1  19
TORSDOF 9
ENDMDL
