MODEL 1
REMARK VINA RESULT:      -8.2      0.000      0.000
REMARK  Name = 
REMARK  3 active torsions:
REMARK  status: ('A' for Active; 'I' for Inactive)
REMARK    1  A    between atoms: C_2  and  C_3
REMARK    2  A    between atoms: C_2  and  C_9
REMARK    3  A    between atoms: C_10  and  C_11
REMARK                            x       y       z     vdW  Elec       q    Type
REMARK                         _______ _______ _______ _____ _____    ______ ____
ROOT
ATOM      1  C   UNL     1       4.123   4.599  17.485  0.00  0.00    +0.000 A 
ATOM      2  C   UNL     1       4.004   5.870  16.930  0.00  0.00    +0.000 A 
ATOM      3  N   UNL     1       5.166   6.326  16.383  0.00  0.00    +0.000 N 
ATOM      4  O   UNL     1       5.121   6.943  15.270  0.00  0.00    +0.000 OA
ATOM      5  C   UNL     1       6.283   6.263  17.179  0.00  0.00    +0.000 A 
ATOM      6  C   UNL     1       7.315   7.211  17.044  0.00  0.00    +0.000 A 
ATOM      7  C   UNL     1       8.179   7.412  18.108  0.00  0.00    +0.000 A 
ATOM      8  C   UNL     1       8.075   6.613  19.251  0.00  0.00    +0.000 A 
ATOM      9  C   UNL     1       7.184   5.530  19.295  0.00  0.00    +0.000 A 
ATOM     10  C   UNL     1       6.261   5.347  18.250  0.00  0.00    +0.000 A 
ATOM     11  N   UNL     1       5.225   4.357  18.280  0.00  0.00    +0.000 N 
ATOM     12  O   UNL     1       5.299   3.357  19.048  0.00  0.00    +0.000 OA
ENDROOT
BRANCH   2  13
ATOM     13  C   UNL     1       3.464   6.900  17.923  0.00  0.00    +0.000 C 
ATOM     14  F   UNL     1       3.897   8.169  17.608  0.00  0.00    +0.000 F 
ATOM     15  F   UNL     1       2.102   7.027  17.889  0.00  0.00    +0.000 F 
ENDBRANCH   2  13
BRANCH   1  17
ATOM     16  O   UNL     1       2.451   3.210  16.761  0.00  0.00    +0.000 OA
ATOM     17  C   UNL     1       2.898   3.838  17.721  0.00  0.00    +0.000 C 
BRANCH  17  18
ATOM     18  C   UNL     1       2.342   3.621  19.086  0.00  0.00    +0.000 A 
ATOM     19  C   UNL     1       2.269   4.635  20.050  0.00  0.00    +0.000 A 
ATOM     20  C   UNL     1       1.886   4.325  21.363  0.00  0.00    +0.000 A 
ATOM     21  C   UNL     1       1.580   3.012  21.718  0.00  0.00    +0.000 A 
ATOM     22  C   UNL     1       1.627   2.001  20.760  0.00  0.00    +0.000 A 
ATOM     23  C   UNL     1       2.012   2.307  19.450  0.00  0.00    +0.000 A 
ENDBRANCH  17  18
ENDBRANCH   1  17
TORSDOF 3
ENDMDL
MODEL 2
REMARK VINA RESULT:      -8.1      2.994      6.076
REMARK  Name = 
REMARK  3 active torsions:
REMARK  status: ('A' for Active; 'I' for Inactive)
REMARK    1  A    between atoms: C_2  and  C_3
REMARK    2  A    between atoms: C_2  and  C_9
REMARK    3  A    between atoms: C_10  and  C_11
REMARK                            x       y       z     vdW  Elec       q    Type
REMARK                         _______ _______ _______ _____ _____    ______ ____
ROOT
ATOM      1  C   UNL     1       5.830   4.854  16.970  0.00  0.00    +0.000 A 
ATOM      2  C   UNL     1       5.985   4.528  18.314  0.00  0.00    +0.000 A 
ATOM      3  N   UNL     1       4.801   4.304  18.951  0.00  0.00    +0.000 N 
ATOM      4  O   UNL     1       4.718   3.335  19.773  0.00  0.00    +0.000 OA
ATOM      5  C   UNL     1       3.838   5.273  18.809  0.00  0.00    +0.000 A 
ATOM      6  C   UNL     1       2.905   5.513  19.836  0.00  0.00    +0.000 A 
ATOM      7  C   UNL     1       2.263   6.740  19.880  0.00  0.00    +0.000 A 
ATOM      8  C   UNL     1       2.478   7.676  18.864  0.00  0.00    +0.000 A 
ATOM      9  C   UNL     1       3.244   7.351  17.734  0.00  0.00    +0.000 A 
ATOM     10  C   UNL     1       3.948   6.135  17.699  0.00  0.00    +0.000 A 
ATOM     11  N   UNL     1       4.863   5.785  16.652  0.00  0.00    +0.000 N 
ATOM     12  O   UNL     1       4.817   6.357  15.527  0.00  0.00    +0.000 OA
ENDROOT
BRANCH   2  13
ATOM     13  C   UNL     1       6.794   5.572  19.085  0.00  0.00    +0.000 C 
ATOM     14  F   UNL     1       8.064   5.114  19.360  0.00  0.00    +0.000 F 
ATOM     15  F   UNL     1       7.033   6.713  18.369  0.00  0.00    +0.000 F 
ENDBRANCH   2  13
BRANCH   1  17
ATOM     16  O   UNL     1       8.070   4.495  16.645  0.00  0.00    +0.000 OA
ATOM     17  C   UNL     1       6.990   4.709  16.093  0.00  0.00    +0.000 C 
BRANCH  17  18
ATOM     18  C   UNL     1       6.863   4.578  14.614  0.00  0.00    +0.000 A 
ATOM     19  C   UNL     1       6.031   3.633  14.001  0.00  0.00    +0.000 A 
ATOM     20  C   UNL     1       6.082   3.455  12.611  0.00  0.00    +0.000 A 
ATOM     21  C   UNL     1       6.957   4.212  11.833  0.00  0.00    +0.000 A 
ATOM     22  C   UNL     1       7.771   5.172  12.432  0.00  0.00    +0.000 A 
ATOM     23  C   UNL     1       7.726   5.348  13.819  0.00  0.00    +0.000 A 
ENDBRANCH  17  18
ENDBRANCH   1  17
TORSDOF 3
ENDMDL
MODEL 3
REMARK VINA RESULT:      -8.1      2.815      5.975
REMARK  Name = 
REMARK  3 active torsions:
REMARK  status: ('A' for Active; 'I' for Inactive)
REMARK    1  A    between atoms: C_2  and  C_3
REMARK    2  A    between atoms: C_2  and  C_9
REMARK    3  A    between atoms: C_10  and  C_11
REMARK                            x       y       z     vdW  Elec       q    Type
REMARK                         _______ _______ _______ _____ _____    ______ ____
ROOT
ATOM      1  C   UNL     1       4.702   5.272  16.824  0.00  0.00    +0.000 A 
ATOM      2  C   UNL     1       4.971   4.100  17.524  0.00  0.00    +0.000 A 
ATOM      3  N   UNL     1       3.847   3.480  17.982  0.00  0.00    +0.000 N 
ATOM      4  O   UNL     1       3.766   2.212  17.900  0.00  0.00    +0.000 OA
ATOM      5  C   UNL     1       2.964   4.260  18.689  0.00  0.00    +0.000 A 
ATOM      6  C   UNL     1       2.171   3.700  19.710  0.00  0.00    +0.000 A 
ATOM      7  C   UNL     1       1.650   4.537  20.683  0.00  0.00    +0.000 A 
ATOM      8  C   UNL     1       1.838   5.919  20.587  0.00  0.00    +0.000 A 
ATOM      9  C   UNL     1       2.446   6.488  19.458  0.00  0.00    +0.000 A 
ATOM     10  C   UNL     1       3.031   5.653  18.490  0.00  0.00    +0.000 A 
ATOM     11  N   UNL     1       3.794   6.148  17.381  0.00  0.00    +0.000 N 
ATOM     12  O   UNL     1       3.678   7.344  16.991  0.00  0.00    +0.000 OA
ENDROOT
BRANCH   2  13
ATOM     13  C   UNL     1       5.948   4.314  18.681  0.00  0.00    +0.000 C 
ATOM     14  F   UNL     1       7.254   4.222  18.253  0.00  0.00    +0.000 F 
ATOM     15  F   UNL     1       5.892   5.573  19.215  0.00  0.00    +0.000 F 
ENDBRANCH   2  13
BRANCH   1  17
ATOM     16  O   UNL     1       6.381   6.763  16.365  0.00  0.00    +0.000 OA
ATOM     17  C   UNL     1       5.744   5.797  15.943  0.00  0.00    +0.000 C 
BRANCH  17  18
ATOM     18  C   UNL     1       6.193   5.078  14.718  0.00  0.00    +0.000 A 
ATOM     19  C   UNL     1       7.387   5.381  14.051  0.00  0.00    +0.000 A 
ATOM     20  C   UNL     1       7.669   4.778  12.816  0.00  0.00    +0.000 A 
ATOM     21  C   UNL     1       6.769   3.880  12.246  0.00  0.00    +0.000 A 
ATOM     22  C   UNL     1       5.590   3.555  12.915  0.00  0.00    +0.000 A 
ATOM     23  C   UNL     1       5.304   4.157  14.144  0.00  0.00    +0.000 A 
ENDBRANCH  17  18
ENDBRANCH   1  17
TORSDOF 3
ENDMDL
MODEL 4
REMARK VINA RESULT:      -8.1      0.810      1.101
REMARK  Name = 
REMARK  3 active torsions:
REMARK  status: ('A' for Active; 'I' for Inactive)
REMARK    1  A    between atoms: C_2  and  C_3
REMARK    2  A    between atoms: C_2  and  C_9
REMARK    3  A    between atoms: C_10  and  C_11
REMARK                            x       y       z     vdW  Elec       q    Type
REMARK                         _______ _______ _______ _____ _____    ______ ____
ROOT
ATOM      1  C   UNL     1       4.429   4.516  17.503  0.00  0.00    +0.000 A 
ATOM      2  C   UNL     1       4.130   5.776  16.993  0.00  0.00    +0.000 A 
ATOM      3  N   UNL     1       5.198   6.379  16.398  0.00  0.00    +0.000 N 
ATOM      4  O   UNL     1       5.018   7.012  15.307  0.00  0.00    +0.000 OA
ATOM      5  C   UNL     1       6.359   6.429  17.130  0.00  0.00    +0.000 A 
ATOM      6  C   UNL     1       7.264   7.496  16.968  0.00  0.00    +0.000 A 
ATOM      7  C   UNL     1       8.158   7.772  17.988  0.00  0.00    +0.000 A 
ATOM      8  C   UNL     1       8.213   6.940  19.111  0.00  0.00    +0.000 A 
ATOM      9  C   UNL     1       7.459   5.759  19.171  0.00  0.00    +0.000 A 
ATOM     10  C   UNL     1       6.505   5.493  18.173  0.00  0.00    +0.000 A 
ATOM     11  N   UNL     1       5.594   4.387  18.230  0.00  0.00    +0.000 N 
ATOM     12  O   UNL     1       5.829   3.385  18.962  0.00  0.00    +0.000 OA
ENDROOT
BRANCH   2  13
ATOM     13  C   UNL     1       3.532   6.712  18.044  0.00  0.00    +0.000 C 
ATOM     14  F   UNL     1       2.159   6.756  17.947  0.00  0.00    +0.000 F 
ATOM     15  F   UNL     1       3.731   6.286  19.329  0.00  0.00    +0.000 F 
ENDBRANCH   2  13
BRANCH   1  17
ATOM     16  O   UNL     1       3.033   2.802  16.897  0.00  0.00    +0.000 OA
ATOM     17  C   UNL     1       3.316   3.610  17.782  0.00  0.00    +0.000 C 
BRANCH  17  18
ATOM     18  C   UNL     1       2.706   3.486  19.135  0.00  0.00    +0.000 A 
ATOM     19  C   UNL     1       3.325   2.802  20.191  0.00  0.00    +0.000 A 
ATOM     20  C   UNL     1       2.626   2.585  21.386  0.00  0.00    +0.000 A 
ATOM     21  C   UNL     1       1.317   3.043  21.534  0.00  0.00    +0.000 A 
ATOM     22  C   UNL     1       0.703   3.745  20.498  0.00  0.00    +0.000 A 
ATOM     23  C   UNL     1       1.396   3.960  19.303  0.00  0.00    +0.000 A 
ENDBRANCH  17  18
ENDBRANCH   1  17
TORSDOF 3
ENDMDL
MODEL 5
REMARK VINA RESULT:      -8.1      3.031      6.062
REMARK  Name = 
REMARK  3 active torsions:
REMARK  status: ('A' for Active; 'I' for Inactive)
REMARK    1  A    between atoms: C_2  and  C_3
REMARK    2  A    between atoms: C_2  and  C_9
REMARK    3  A    between atoms: C_10  and  C_11
REMARK                            x       y       z     vdW  Elec       q    Type
REMARK                         _______ _______ _______ _____ _____    ______ ____
ROOT
ATOM      1  C   UNL     1       5.629   5.379  16.523  0.00  0.00    +0.000 A 
ATOM      2  C   UNL     1       5.879   4.707  17.716  0.00  0.00    +0.000 A 
ATOM      3  N   UNL     1       4.744   4.274  18.335  0.00  0.00    +0.000 N 
ATOM      4  O   UNL     1       4.735   3.116  18.863  0.00  0.00    +0.000 OA
ATOM      5  C   UNL     1       3.754   5.208  18.519  0.00  0.00    +0.000 A 
ATOM      6  C   UNL     1       2.886   5.125  19.624  0.00  0.00    +0.000 A 
ATOM      7  C   UNL     1       2.225   6.268  20.040  0.00  0.00    +0.000 A 
ATOM      8  C   UNL     1       2.353   7.453  19.308  0.00  0.00    +0.000 A 
ATOM      9  C   UNL     1       3.049   7.477  18.090  0.00  0.00    +0.000 A 
ATOM     10  C   UNL     1       3.774   6.343  17.683  0.00  0.00    +0.000 A 
ATOM     11  N   UNL     1       4.625   6.326  16.529  0.00  0.00    +0.000 N 
ATOM     12  O   UNL     1       4.493   7.179  15.607  0.00  0.00    +0.000 OA
ENDROOT
BRANCH   2  13
ATOM     13  C   UNL     1       6.716   5.531  18.694  0.00  0.00    +0.000 C 
ATOM     14  F   UNL     1       6.273   5.368  19.988  0.00  0.00    +0.000 F 
ATOM     15  F   UNL     1       8.022   5.129  18.768  0.00  0.00    +0.000 F 
ENDBRANCH   2  13
BRANCH   1  17
ATOM     16  O   UNL     1       7.732   6.111  15.984  0.00  0.00    +0.000 OA
ATOM     17  C   UNL     1       6.731   5.522  15.574  0.00  0.00    +0.000 C 
BRANCH  17  18
ATOM     18  C   UNL     1       6.765   4.797  14.273  0.00  0.00    +0.000 A 
ATOM     19  C   UNL     1       7.685   5.095  13.259  0.00  0.00    +0.000 A 
ATOM     20  C   UNL     1       7.559   4.487  12.001  0.00  0.00    +0.000 A 
ATOM     21  C   UNL     1       6.522   3.590  11.751  0.00  0.00    +0.000 A 
ATOM     22  C   UNL     1       5.616   3.270  12.762  0.00  0.00    +0.000 A 
ATOM     23  C   UNL     1       5.738   3.877  14.015  0.00  0.00    +0.000 A 
ENDBRANCH  17  18
ENDBRANCH   1  17
TORSDOF 3
ENDMDL
MODEL 6
REMARK VINA RESULT:      -8.0      2.839      6.033
REMARK  Name = 
REMARK  3 active torsions:
REMARK  status: ('A' for Active; 'I' for Inactive)
REMARK    1  A    between atoms: C_2  and  C_3
REMARK    2  A    between atoms: C_2  and  C_9
REMARK    3  A    between atoms: C_10  and  C_11
REMARK                            x       y       z     vdW  Elec       q    Type
REMARK                         _______ _______ _______ _____ _____    ______ ____
ROOT
ATOM      1  C   UNL     1       4.725   5.243  16.811  0.00  0.00    +0.000 A 
ATOM      2  C   UNL     1       4.972   4.074  17.525  0.00  0.00    +0.000 A 
ATOM      3  N   UNL     1       3.835   3.479  17.986  0.00  0.00    +0.000 N 
ATOM      4  O   UNL     1       3.732   2.212  17.917  0.00  0.00    +0.000 OA
ATOM      5  C   UNL     1       2.964   4.282  18.682  0.00  0.00    +0.000 A 
ATOM      6  C   UNL     1       2.159   3.748  19.706  0.00  0.00    +0.000 A 
ATOM      7  C   UNL     1       1.650   4.604  20.669  0.00  0.00    +0.000 A 
ATOM      8  C   UNL     1       1.863   5.982  20.559  0.00  0.00    +0.000 A 
ATOM      9  C   UNL     1       2.484   6.528  19.425  0.00  0.00    +0.000 A 
ATOM     10  C   UNL     1       3.057   5.672  18.468  0.00  0.00    +0.000 A 
ATOM     11  N   UNL     1       3.832   6.141  17.357  0.00  0.00    +0.000 N 
ATOM     12  O   UNL     1       3.738   7.335  16.953  0.00  0.00    +0.000 OA
ENDROOT
BRANCH   2  13
ATOM     13  C   UNL     1       5.949   4.283  18.682  0.00  0.00    +0.000 C 
ATOM     14  F   UNL     1       7.255   4.201  18.252  0.00  0.00    +0.000 F 
ATOM     15  F   UNL     1       5.887   5.537  19.227  0.00  0.00    +0.000 F 
ENDBRANCH   2  13
BRANCH   1  17
ATOM     16  O   UNL     1       6.555   6.565  16.413  0.00  0.00    +0.000 OA
ATOM     17  C   UNL     1       5.779   5.740  15.928  0.00  0.00    +0.000 C 
BRANCH  17  18
ATOM     18  C   UNL     1       6.069   5.123  14.603  0.00  0.00    +0.000 A 
ATOM     19  C   UNL     1       5.239   4.162  14.012  0.00  0.00    +0.000 A 
ATOM     20  C   UNL     1       5.653   3.506  12.844  0.00  0.00    +0.000 A 
ATOM     21  C   UNL     1       6.886   3.802  12.266  0.00  0.00    +0.000 A 
ATOM     22  C   UNL     1       7.707   4.774  12.834  0.00  0.00    +0.000 A 
ATOM     23  C   UNL     1       7.299   5.427  14.001  0.00  0.00    +0.000 A 
ENDBRANCH  17  18
ENDBRANCH   1  17
TORSDOF 3
ENDMDL
MODEL 7
REMARK VINA RESULT:      -7.7      2.092      5.577
REMARK  Name = 
REMARK  3 active torsions:
REMARK  status: ('A' for Active; 'I' for Inactive)
REMARK    1  A    between atoms: C_2  and  C_3
REMARK    2  A    between atoms: C_2  and  C_9
REMARK    3  A    between atoms: C_10  and  C_11
REMARK                            x       y       z     vdW  Elec       q    Type
REMARK                         _______ _______ _______ _____ _____    ______ ____
ROOT
ATOM      1  C   UNL     1       4.842   4.934  19.477  0.00  0.00    +0.000 A 
ATOM      2  C   UNL     1       3.835   5.852  19.192  0.00  0.00    +0.000 A 
ATOM      3  N   UNL     1       2.741   5.711  19.993  0.00  0.00    +0.000 N 
ATOM      4  O   UNL     1       2.169   6.756  20.442  0.00  0.00    +0.000 OA
ATOM      5  C   UNL     1       2.213   4.447  20.090  0.00  0.00    +0.000 A 
ATOM      6  C   UNL     1       0.833   4.260  20.302  0.00  0.00    +0.000 A 
ATOM      7  C   UNL     1       0.263   3.047  19.951  0.00  0.00    +0.000 A 
ATOM      8  C   UNL     1       1.072   2.006  19.485  0.00  0.00    +0.000 A 
ATOM      9  C   UNL     1       2.470   2.127  19.476  0.00  0.00    +0.000 A 
ATOM     10  C   UNL     1       3.062   3.367  19.773  0.00  0.00    +0.000 A 
ATOM     11  N   UNL     1       4.468   3.617  19.651  0.00  0.00    +0.000 N 
ATOM     12  O   UNL     1       5.301   2.668  19.637  0.00  0.00    +0.000 OA
ENDROOT
BRANCH   2  13
ATOM     13  C   UNL     1       3.406   5.821  17.725  0.00  0.00    +0.000 C 
ATOM     14  F   UNL     1       2.043   5.978  17.602  0.00  0.00    +0.000 F 
ATOM     15  F   UNL     1       3.898   6.867  16.992  0.00  0.00    +0.000 F 
ENDBRANCH   2  13
BRANCH   1  17
ATOM     16  O   UNL     1       7.057   5.377  19.865  0.00  0.00    +0.000 OA
ATOM     17  C   UNL     1       6.192   5.230  19.001  0.00  0.00    +0.000 C 
BRANCH  17  18
ATOM     18  C   UNL     1       6.574   5.122  17.565  0.00  0.00    +0.000 A 
ATOM     19  C   UNL     1       7.215   6.154  16.866  0.00  0.00    +0.000 A 
ATOM     20  C   UNL     1       7.400   6.050  15.481  0.00  0.00    +0.000 A 
ATOM     21  C   UNL     1       6.949   4.926  14.790  0.00  0.00    +0.000 A 
ATOM     22  C   UNL     1       6.333   3.883  15.480  0.00  0.00    +0.000 A 
ATOM     23  C   UNL     1       6.143   3.986  16.862  0.00  0.00    +0.000 A 
ENDBRANCH  17  18
ENDBRANCH   1  17
TORSDOF 3
ENDMDL
MODEL 8
REMARK VINA RESULT:      -7.6      2.094      5.695
REMARK  Name = 
REMARK  3 active torsions:
REMARK  status: ('A' for Active; 'I' for Inactive)
REMARK    1  A    between atoms: C_2  and  C_3
REMARK    2  A    between atoms: C_2  and  C_9
REMARK    3  A    between atoms: C_10  and  C_11
REMARK                            x       y       z     vdW  Elec       q    Type
REMARK                         _______ _______ _______ _____ _____    ______ ____
ROOT
ATOM      1  C   UNL     1       4.250   4.791  17.093  0.00  0.00    +0.000 A 
ATOM      2  C   UNL     1       4.085   3.442  17.392  0.00  0.00    +0.000 A 
ATOM      3  N   UNL     1       2.784   3.096  17.606  0.00  0.00    +0.000 N 
ATOM      4  O   UNL     1       2.351   2.000  17.125  0.00  0.00    +0.000 OA
ATOM      5  C   UNL     1       2.087   3.866  18.504  0.00  0.00    +0.000 A 
ATOM      6  C   UNL     1       1.053   3.307  19.278  0.00  0.00    +0.000 A 
ATOM      7  C   UNL     1       0.684   3.937  20.455  0.00  0.00    +0.000 A 
ATOM      8  C   UNL     1       1.272   5.156  20.806  0.00  0.00    +0.000 A 
ATOM      9  C   UNL     1       2.147   5.815  19.929  0.00  0.00    +0.000 A 
ATOM     10  C   UNL     1       2.576   5.164  18.758  0.00  0.00    +0.000 A 
ATOM     11  N   UNL     1       3.574   5.701  17.880  0.00  0.00    +0.000 N 
ATOM     12  O   UNL     1       3.855   6.932  17.886  0.00  0.00    +0.000 OA
ENDROOT
BRANCH   2  13
ATOM     13  C   UNL     1       4.939   2.990  18.577  0.00  0.00    +0.000 C 
ATOM     14  F   UNL     1       5.009   3.971  19.542  0.00  0.00    +0.000 F 
ATOM     15  F   UNL     1       4.406   1.931  19.260  0.00  0.00    +0.000 F 
ENDBRANCH   2  13
BRANCH   1  17
ATOM     16  O   UNL     1       5.534   5.097  15.220  0.00  0.00    +0.000 OA
ATOM     17  C   UNL     1       5.495   5.201  16.447  0.00  0.00    +0.000 C 
BRANCH  17  18
ATOM     18  C   UNL     1       6.571   5.930  17.174  0.00  0.00    +0.000 A 
ATOM     19  C   UNL     1       7.238   5.396  18.285  0.00  0.00    +0.000 A 
ATOM     20  C   UNL     1       8.124   6.198  19.019  0.00  0.00    +0.000 A 
ATOM     21  C   UNL     1       8.346   7.525  18.654  0.00  0.00    +0.000 A 
ATOM     22  C   UNL     1       7.705   8.057  17.536  0.00  0.00    +0.000 A 
ATOM     23  C   UNL     1       6.818   7.261  16.804  0.00  0.00    +0.000 A 
ENDBRANCH  17  18
ENDBRANCH   1  17
TORSDOF 3
ENDMDL
MODEL 9
REMARK VINA RESULT:      -7.3      2.099      5.697
REMARK  Name = 
REMARK  3 active torsions:
REMARK  status: ('A' for Active; 'I' for Inactive)
REMARK    1  A    between atoms: C_2  and  C_3
REMARK    2  A    between atoms: C_2  and  C_9
REMARK    3  A    between atoms: C_10  and  C_11
REMARK                            x       y       z     vdW  Elec       q    Type
REMARK                         _______ _______ _______ _____ _____    ______ ____
ROOT
ATOM      1  C   UNL     1       4.172   4.844  17.152  0.00  0.00    +0.000 A 
ATOM      2  C   UNL     1       4.069   3.477  17.389  0.00  0.00    +0.000 A 
ATOM      3  N   UNL     1       2.782   3.058  17.555  0.00  0.00    +0.000 N 
ATOM      4  O   UNL     1       2.417   1.963  17.016  0.00  0.00    +0.000 OA
ATOM      5  C   UNL     1       2.025   3.754  18.466  0.00  0.00    +0.000 A 
ATOM      6  C   UNL     1       1.002   3.110  19.188  0.00  0.00    +0.000 A 
ATOM      7  C   UNL     1       0.573   3.671  20.380  0.00  0.00    +0.000 A 
ATOM      8  C   UNL     1       1.090   4.901  20.797  0.00  0.00    +0.000 A 
ATOM      9  C   UNL     1       1.952   5.639  19.971  0.00  0.00    +0.000 A 
ATOM     10  C   UNL     1       2.442   5.061  18.787  0.00  0.00    +0.000 A 
ATOM     11  N   UNL     1       3.432   5.684  17.959  0.00  0.00    +0.000 N 
ATOM     12  O   UNL     1       3.650   6.927  18.024  0.00  0.00    +0.000 OA
ENDROOT
BRANCH   2  13
ATOM     13  C   UNL     1       4.915   3.017  18.577  0.00  0.00    +0.000 C 
ATOM     14  F   UNL     1       4.964   3.985  19.557  0.00  0.00    +0.000 F 
ATOM     15  F   UNL     1       4.387   1.943  19.239  0.00  0.00    +0.000 F 
ENDBRANCH   2  13
BRANCH   1  17
ATOM     16  O   UNL     1       5.535   5.185  15.341  0.00  0.00    +0.000 OA
ATOM     17  C   UNL     1       5.410   5.343  16.557  0.00  0.00    +0.000 C 
BRANCH  17  18
ATOM     18  C   UNL     1       6.365   6.208  17.304  0.00  0.00    +0.000 A 
ATOM     19  C   UNL     1       6.661   7.524  16.922  0.00  0.00    +0.000 A 
ATOM     20  C   UNL     1       7.687   8.225  17.571  0.00  0.00    +0.000 A 
ATOM     21  C   UNL     1       8.417   7.623  18.594  0.00  0.00    +0.000 A 
ATOM     22  C   UNL     1       8.113   6.324  18.997  0.00  0.00    +0.000 A 
ATOM     23  C   UNL     1       7.093   5.620  18.349  0.00  0.00    +0.000 A 
ENDBRANCH  17  18
ENDBRANCH   1  17
TORSDOF 3
ENDMDL
