MODEL 1
REMARK VINA RESULT:      -9.1      0.000      0.000
REMARK  Name = 
REMARK  7 active torsions:
REMARK  status: ('A' for Active; 'I' for Inactive)
REMARK    1  A    between atoms: C_1  and  C_2
REMARK    2  A    between atoms: C_2  and  C_3
REMARK    3  A    between atoms: C_2  and  C_4
REMARK    4  A    between atoms: C_2  and  N_5
REMARK    5  A    between atoms: C_9  and  N_10
REMARK    6  A    between atoms: C_11  and  C_13
REMARK    7  A    between atoms: C_13  and  C_14
REMARK                            x       y       z     vdW  Elec       q    Type
REMARK                         _______ _______ _______ _____ _____    ______ ____
ROOT
ATOM      1  N   UNL     1       3.034   6.139  20.036  0.00  0.00    +0.000 N 
ATOM      2  C   UNL     1       2.185   7.251  19.664  0.00  0.00    +0.000 C 
ATOM      3  O   UNL     1       1.905   7.458  18.493  0.00  0.00    +0.000 OA
ATOM      4  H   UNL     1       3.356   6.093  20.992  0.00  0.00    +0.000 HD
ENDROOT
BRANCH   1   9
ATOM      5  N   UNL     1       3.116   3.841  19.027  0.00  0.00    +0.000 N 
ATOM      6  N   UNL     1       3.795   3.180  18.048  0.00  0.00    +0.000 NA
ATOM      7  C   UNL     1       4.585   4.106  17.529  0.00  0.00    +0.000 A 
ATOM      8  C   UNL     1       4.422   5.360  18.115  0.00  0.00    +0.000 A 
ATOM      9  C   UNL     1       3.505   5.184  19.130  0.00  0.00    +0.000 A 
ATOM     10  C   UNL     1       5.210   6.440  17.495  0.00  0.00    +0.000 C 
ATOM     11  S   UNL     1       5.821   5.723  15.876  0.00  0.00    +0.000 S 
ATOM     12  O   UNL     1       7.373   5.966  15.808  0.00  0.00    +0.000 OA
ATOM     13  C   UNL     1       5.544   3.965  16.420  0.00  0.00    +0.000 C 
BRANCH   5  15
ATOM     14  C   UNL     1       0.853   3.896  20.111  0.00  0.00    +0.000 C 
ATOM     15  C   UNL     1       2.141   3.071  19.830  0.00  0.00    +0.000 C 
ATOM     16  C   UNL     1       2.746   2.704  21.198  0.00  0.00    +0.000 C 
ATOM     17  C   UNL     1       1.699   1.796  19.089  0.00  0.00    +0.000 C 
ENDBRANCH   5  15
ENDBRANCH   1   9
BRANCH   2  18
ATOM     18  C   UNL     1       1.733   8.153  20.787  0.00  0.00    +0.000 C 
BRANCH  18  19
ATOM     19  C   UNL     1       0.962   9.360  20.297  0.00  0.00    +0.000 A 
ATOM     20  C   UNL     1       1.148   9.751  18.959  0.00  0.00    +0.000 A 
ATOM     21  C   UNL     1       0.468  10.847  18.441  0.00  0.00    +0.000 A 
ATOM     22  C   UNL     1      -0.402  11.571  19.248  0.00  0.00    +0.000 A 
ATOM     23  C   UNL     1      -0.608  11.214  20.589  0.00  0.00    +0.000 A 
ATOM     24  C   UNL     1      -1.496  11.966  21.374  0.00  0.00    +0.000 A 
ATOM     25  C   UNL     1      -1.728  11.638  22.708  0.00  0.00    +0.000 A 
ATOM     26  C   UNL     1      -1.072  10.552  23.269  0.00  0.00    +0.000 A 
ATOM     27  C   UNL     1      -0.183   9.796  22.497  0.00  0.00    +0.000 A 
ATOM     28  C   UNL     1       0.077  10.101  21.140  0.00  0.00    +0.000 A 
ENDBRANCH  18  19
ENDBRANCH   2  18
TORSDOF 4
ENDMDL
MODEL 2
REMARK VINA RESULT:      -9.0      1.228      2.293
REMARK  Name = 
REMARK  7 active torsions:
REMARK  status: ('A' for Active; 'I' for Inactive)
REMARK    1  A    between atoms: C_1  and  C_2
REMARK    2  A    between atoms: C_2  and  C_3
REMARK    3  A    between atoms: C_2  and  C_4
REMARK    4  A    between atoms: C_2  and  N_5
REMARK    5  A    between atoms: C_9  and  N_10
REMARK    6  A    between atoms: C_11  and  C_13
REMARK    7  A    between atoms: C_13  and  C_14
REMARK                            x       y       z     vdW  Elec       q    Type
REMARK                         _______ _______ _______ _____ _____    ______ ____
ROOT
ATOM      1  N   UNL     1       2.326   6.476  17.899  0.00  0.00    +0.000 N 
ATOM      2  C   UNL     1       2.592   7.897  17.974  0.00  0.00    +0.000 C 
ATOM      3  O   UNL     1       3.732   8.312  18.122  0.00  0.00    +0.000 OA
ATOM      4  H   UNL     1       1.361   6.177  17.924  0.00  0.00    +0.000 HD
ENDROOT
BRANCH   1   9
ATOM      5  N   UNL     1       3.406   4.351  18.692  0.00  0.00    +0.000 N 
ATOM      6  N   UNL     1       4.529   3.622  18.440  0.00  0.00    +0.000 NA
ATOM      7  C   UNL     1       5.133   4.294  17.474  0.00  0.00    +0.000 A 
ATOM      8  C   UNL     1       4.427   5.423  17.062  0.00  0.00    +0.000 A 
ATOM      9  C   UNL     1       3.324   5.498  17.889  0.00  0.00    +0.000 A 
ATOM     10  C   UNL     1       5.017   6.140  15.918  0.00  0.00    +0.000 C 
ATOM     11  S   UNL     1       6.304   4.967  15.226  0.00  0.00    +0.000 S 
ATOM     12  O   UNL     1       7.648   5.770  15.088  0.00  0.00    +0.000 OA
ATOM     13  C   UNL     1       6.397   3.966  16.793  0.00  0.00    +0.000 C 
BRANCH   5  15
ATOM     14  C   UNL     1       3.102   2.667  20.528  0.00  0.00    +0.000 C 
ATOM     15  C   UNL     1       2.496   3.872  19.755  0.00  0.00    +0.000 C 
ATOM     16  C   UNL     1       1.166   3.392  19.145  0.00  0.00    +0.000 C 
ATOM     17  C   UNL     1       2.231   4.978  20.794  0.00  0.00    +0.000 C 
ENDBRANCH   5  15
ENDBRANCH   1   9
BRANCH   2  18
ATOM     18  C   UNL     1       1.389   8.807  17.922  0.00  0.00    +0.000 C 
BRANCH  18  19
ATOM     19  C   UNL     1       0.919   9.240  19.293  0.00  0.00    +0.000 A 
ATOM     20  C   UNL     1       1.424   8.541  20.404  0.00  0.00    +0.000 A 
ATOM     21  C   UNL     1       1.041   8.888  21.695  0.00  0.00    +0.000 A 
ATOM     22  C   UNL     1       0.144   9.931  21.896  0.00  0.00    +0.000 A 
ATOM     23  C   UNL     1      -0.386  10.647  20.812  0.00  0.00    +0.000 A 
ATOM     24  C   UNL     1      -1.286  11.697  21.053  0.00  0.00    +0.000 A 
ATOM     25  C   UNL     1      -1.828  12.432  20.000  0.00  0.00    +0.000 A 
ATOM     26  C   UNL     1      -1.474  12.122  18.696  0.00  0.00    +0.000 A 
ATOM     27  C   UNL     1      -0.579  11.077  18.443  0.00  0.00    +0.000 A 
ATOM     28  C   UNL     1      -0.009  10.309  19.487  0.00  0.00    +0.000 A 
ENDBRANCH  18  19
ENDBRANCH   2  18
TORSDOF 4
ENDMDL
MODEL 3
REMARK VINA RESULT:      -8.9      1.314      1.895
REMARK  Name = 
REMARK  7 active torsions:
REMARK  status: ('A' for Active; 'I' for Inactive)
REMARK    1  A    between atoms: C_1  and  C_2
REMARK    2  A    between atoms: C_2  and  C_3
REMARK    3  A    between atoms: C_2  and  C_4
REMARK    4  A    between atoms: C_2  and  N_5
REMARK    5  A    between atoms: C_9  and  N_10
REMARK    6  A    between atoms: C_11  and  C_13
REMARK    7  A    between atoms: C_13  and  C_14
REMARK                            x       y       z     vdW  Elec       q    Type
REMARK                         _______ _______ _______ _____ _____    ______ ____
ROOT
ATOM      1  N   UNL     1       2.191   6.534  17.891  0.00  0.00    +0.000 N 
ATOM      2  C   UNL     1       2.394   7.964  17.998  0.00  0.00    +0.000 C 
ATOM      3  O   UNL     1       3.495   8.420  18.264  0.00  0.00    +0.000 OA
ATOM      4  H   UNL     1       1.241   6.199  17.816  0.00  0.00    +0.000 HD
ENDROOT
BRANCH   1   9
ATOM      5  N   UNL     1       3.293   4.482  18.829  0.00  0.00    +0.000 N 
ATOM      6  N   UNL     1       4.454   3.786  18.675  0.00  0.00    +0.000 NA
ATOM      7  C   UNL     1       5.094   4.445  17.722  0.00  0.00    +0.000 A 
ATOM      8  C   UNL     1       4.375   5.530  17.224  0.00  0.00    +0.000 A 
ATOM      9  C   UNL     1       3.222   5.595  17.979  0.00  0.00    +0.000 A 
ATOM     10  C   UNL     1       5.009   6.226  16.091  0.00  0.00    +0.000 C 
ATOM     11  S   UNL     1       6.378   5.077  15.525  0.00  0.00    +0.000 S 
ATOM     12  O   UNL     1       7.698   5.925  15.437  0.00  0.00    +0.000 OA
ATOM     13  C   UNL     1       6.408   4.139  17.132  0.00  0.00    +0.000 C 
BRANCH   5  15
ATOM     14  C   UNL     1       2.950   2.886  20.737  0.00  0.00    +0.000 C 
ATOM     15  C   UNL     1       2.336   4.009  19.854  0.00  0.00    +0.000 C 
ATOM     16  C   UNL     1       1.083   3.417  19.182  0.00  0.00    +0.000 C 
ATOM     17  C   UNL     1       1.935   5.152  20.804  0.00  0.00    +0.000 C 
ENDBRANCH   5  15
ENDBRANCH   1   9
BRANCH   2  18
ATOM     18  C   UNL     1       1.169   8.829  17.826  0.00  0.00    +0.000 C 
BRANCH  18  19
ATOM     19  C   UNL     1       1.107   9.966  18.822  0.00  0.00    +0.000 A 
ATOM     20  C   UNL     1       1.596  11.219  18.410  0.00  0.00    +0.000 A 
ATOM     21  C   UNL     1       1.565  12.309  19.272  0.00  0.00    +0.000 A 
ATOM     22  C   UNL     1       1.053  12.166  20.556  0.00  0.00    +0.000 A 
ATOM     23  C   UNL     1       0.562  10.931  21.004  0.00  0.00    +0.000 A 
ATOM     24  C   UNL     1       0.049  10.824  22.307  0.00  0.00    +0.000 A 
ATOM     25  C   UNL     1      -0.450   9.614  22.783  0.00  0.00    +0.000 A 
ATOM     26  C   UNL     1      -0.440   8.498  21.959  0.00  0.00    +0.000 A 
ATOM     27  C   UNL     1       0.070   8.592  20.660  0.00  0.00    +0.000 A 
ATOM     28  C   UNL     1       0.585   9.804  20.143  0.00  0.00    +0.000 A 
ENDBRANCH  18  19
ENDBRANCH   2  18
TORSDOF 4
ENDMDL
MODEL 4
REMARK VINA RESULT:      -8.8      2.535      4.327
REMARK  Name = 
REMARK  7 active torsions:
REMARK  status: ('A' for Active; 'I' for Inactive)
REMARK    1  A    between atoms: C_1  and  C_2
REMARK    2  A    between atoms: C_2  and  C_3
REMARK    3  A    between atoms: C_2  and  C_4
REMARK    4  A    between atoms: C_2  and  N_5
REMARK    5  A    between atoms: C_9  and  N_10
REMARK    6  A    between atoms: C_11  and  C_13
REMARK    7  A    between atoms: C_13  and  C_14
REMARK                            x       y       z     vdW  Elec       q    Type
REMARK                         _______ _______ _______ _____ _____    ______ ____
ROOT
ATOM      1  N   UNL     1       2.841   6.973  17.765  0.00  0.00    +0.000 N 
ATOM      2  C   UNL     1       2.247   8.034  18.551  0.00  0.00    +0.000 C 
ATOM      3  O   UNL     1       2.159   7.937  19.765  0.00  0.00    +0.000 OA
ATOM      4  H   UNL     1       2.761   7.031  16.760  0.00  0.00    +0.000 HD
ENDROOT
BRANCH   1   9
ATOM      5  N   UNL     1       4.707   5.315  18.046  0.00  0.00    +0.000 N 
ATOM      6  N   UNL     1       4.960   4.173  18.744  0.00  0.00    +0.000 NA
ATOM      7  C   UNL     1       3.865   3.991  19.463  0.00  0.00    +0.000 A 
ATOM      8  C   UNL     1       2.915   4.995  19.284  0.00  0.00    +0.000 A 
ATOM      9  C   UNL     1       3.433   5.835  18.319  0.00  0.00    +0.000 A 
ATOM     10  C   UNL     1       1.725   4.883  20.145  0.00  0.00    +0.000 C 
ATOM     11  S   UNL     1       2.186   3.611  21.442  0.00  0.00    +0.000 S 
ATOM     12  O   UNL     1       1.034   2.542  21.484  0.00  0.00    +0.000 OA
ATOM     13  C   UNL     1       3.576   2.910  20.421  0.00  0.00    +0.000 C 
BRANCH   5  15
ATOM     14  C   UNL     1       7.015   4.898  17.150  0.00  0.00    +0.000 C 
ATOM     15  C   UNL     1       5.747   5.799  17.112  0.00  0.00    +0.000 C 
ATOM     16  C   UNL     1       6.195   7.220  17.499  0.00  0.00    +0.000 C 
ATOM     17  C   UNL     1       5.235   5.784  15.660  0.00  0.00    +0.000 C 
ENDBRANCH   5  15
ENDBRANCH   1   9
BRANCH   2  18
ATOM     18  C   UNL     1       1.701   9.212  17.780  0.00  0.00    +0.000 C 
BRANCH  18  19
ATOM     19  C   UNL     1       0.786  10.084  18.611  0.00  0.00    +0.000 A 
ATOM     20  C   UNL     1       1.338  10.716  19.741  0.00  0.00    +0.000 A 
ATOM     21  C   UNL     1       0.557  11.537  20.546  0.00  0.00    +0.000 A 
ATOM     22  C   UNL     1      -0.785  11.736  20.242  0.00  0.00    +0.000 A 
ATOM     23  C   UNL     1      -1.372  11.118  19.128  0.00  0.00    +0.000 A 
ATOM     24  C   UNL     1      -2.729  11.344  18.849  0.00  0.00    +0.000 A 
ATOM     25  C   UNL     1      -3.343  10.750  17.749  0.00  0.00    +0.000 A 
ATOM     26  C   UNL     1      -2.604   9.923  16.916  0.00  0.00    +0.000 A 
ATOM     27  C   UNL     1      -1.251   9.689  17.184  0.00  0.00    +0.000 A 
ATOM     28  C   UNL     1      -0.595  10.275  18.293  0.00  0.00    +0.000 A 
ENDBRANCH  18  19
ENDBRANCH   2  18
TORSDOF 4
ENDMDL
MODEL 5
REMARK VINA RESULT:      -8.7      3.836      8.078
REMARK  Name = 
REMARK  7 active torsions:
REMARK  status: ('A' for Active; 'I' for Inactive)
REMARK    1  A    between atoms: C_1  and  C_2
REMARK    2  A    between atoms: C_2  and  C_3
REMARK    3  A    between atoms: C_2  and  C_4
REMARK    4  A    between atoms: C_2  and  N_5
REMARK    5  A    between atoms: C_9  and  N_10
REMARK    6  A    between atoms: C_11  and  C_13
REMARK    7  A    between atoms: C_13  and  C_14
REMARK                            x       y       z     vdW  Elec       q    Type
REMARK                         _______ _______ _______ _____ _____    ______ ____
ROOT
ATOM      1  N   UNL     1       0.316  10.001  20.050  0.00  0.00    +0.000 N 
ATOM      2  C   UNL     1       0.284   8.774  20.818  0.00  0.00    +0.000 C 
ATOM      3  O   UNL     1      -0.769   8.343  21.262  0.00  0.00    +0.000 OA
ATOM      4  H   UNL     1       1.220  10.395  19.829  0.00  0.00    +0.000 HD
ENDROOT
BRANCH   1   9
ATOM      5  N   UNL     1      -1.470  11.733  20.400  0.00  0.00    +0.000 N 
ATOM      6  N   UNL     1      -2.578  12.199  19.760  0.00  0.00    +0.000 NA
ATOM      7  C   UNL     1      -2.617  11.496  18.640  0.00  0.00    +0.000 A 
ATOM      8  C   UNL     1      -1.552  10.606  18.510  0.00  0.00    +0.000 A 
ATOM      9  C   UNL     1      -0.827  10.715  19.680  0.00  0.00    +0.000 A 
ATOM     10  C   UNL     1      -1.504   9.880  17.229  0.00  0.00    +0.000 C 
ATOM     11  S   UNL     1      -2.718  10.778  16.120  0.00  0.00    +0.000 S 
ATOM     12  O   UNL     1      -3.681   9.699  15.504  0.00  0.00    +0.000 OA
ATOM     13  C   UNL     1      -3.602  11.581  17.548  0.00  0.00    +0.000 C 
BRANCH   5  15
ATOM     14  C   UNL     1      -2.160  13.411  22.135  0.00  0.00    +0.000 C 
ATOM     15  C   UNL     1      -1.141  12.311  21.721  0.00  0.00    +0.000 C 
ATOM     16  C   UNL     1       0.247  12.976  21.684  0.00  0.00    +0.000 C 
ATOM     17  C   UNL     1      -1.180  11.233  22.821  0.00  0.00    +0.000 C 
ENDBRANCH   5  15
ENDBRANCH   1   9
BRANCH   2  18
ATOM     18  C   UNL     1       1.616   8.114  21.080  0.00  0.00    +0.000 C 
BRANCH  18  19
ATOM     19  C   UNL     1       2.104   7.289  19.910  0.00  0.00    +0.000 A 
ATOM     20  C   UNL     1       2.655   7.976  18.813  0.00  0.00    +0.000 A 
ATOM     21  C   UNL     1       3.128   7.281  17.706  0.00  0.00    +0.000 A 
ATOM     22  C   UNL     1       3.054   5.893  17.673  0.00  0.00    +0.000 A 
ATOM     23  C   UNL     1       2.505   5.174  18.745  0.00  0.00    +0.000 A 
ATOM     24  C   UNL     1       2.449   3.773  18.678  0.00  0.00    +0.000 A 
ATOM     25  C   UNL     1       1.915   3.026  19.727  0.00  0.00    +0.000 A 
ATOM     26  C   UNL     1       1.431   3.677  20.852  0.00  0.00    +0.000 A 
ATOM     27  C   UNL     1       1.479   5.073  20.929  0.00  0.00    +0.000 A 
ATOM     28  C   UNL     1       2.015   5.862  19.884  0.00  0.00    +0.000 A 
ENDBRANCH  18  19
ENDBRANCH   2  18
TORSDOF 4
ENDMDL
MODEL 6
REMARK VINA RESULT:      -8.7      2.266      3.905
REMARK  Name = 
REMARK  7 active torsions:
REMARK  status: ('A' for Active; 'I' for Inactive)
REMARK    1  A    between atoms: C_1  and  C_2
REMARK    2  A    between atoms: C_2  and  C_3
REMARK    3  A    between atoms: C_2  and  C_4
REMARK    4  A    between atoms: C_2  and  N_5
REMARK    5  A    between atoms: C_9  and  N_10
REMARK    6  A    between atoms: C_11  and  C_13
REMARK    7  A    between atoms: C_13  and  C_14
REMARK                            x       y       z     vdW  Elec       q    Type
REMARK                         _______ _______ _______ _____ _____    ______ ____
ROOT
ATOM      1  N   UNL     1       3.619   7.224  18.457  0.00  0.00    +0.000 N 
ATOM      2  C   UNL     1       2.329   7.696  18.001  0.00  0.00    +0.000 C 
ATOM      3  O   UNL     1       1.459   6.907  17.664  0.00  0.00    +0.000 OA
ATOM      4  H   UNL     1       4.352   7.908  18.584  0.00  0.00    +0.000 HD
ENDROOT
BRANCH   1   9
ATOM      5  N   UNL     1       4.956   5.142  18.022  0.00  0.00    +0.000 N 
ATOM      6  N   UNL     1       4.966   3.836  18.409  0.00  0.00    +0.000 NA
ATOM      7  C   UNL     1       3.971   3.756  19.277  0.00  0.00    +0.000 A 
ATOM      8  C   UNL     1       3.331   4.974  19.497  0.00  0.00    +0.000 A 
ATOM      9  C   UNL     1       3.932   5.874  18.640  0.00  0.00    +0.000 A 
ATOM     10  C   UNL     1       2.285   4.947  20.534  0.00  0.00    +0.000 C 
ATOM     11  S   UNL     1       2.535   3.318  21.428  0.00  0.00    +0.000 S 
ATOM     12  O   UNL     1       1.143   2.590  21.477  0.00  0.00    +0.000 OA
ATOM     13  C   UNL     1       3.518   2.575  20.033  0.00  0.00    +0.000 C 
BRANCH   5  15
ATOM     14  C   UNL     1       6.807   4.376  16.508  0.00  0.00    +0.000 C 
ATOM     15  C   UNL     1       5.956   5.573  17.020  0.00  0.00    +0.000 C 
ATOM     16  C   UNL     1       6.935   6.586  17.642  0.00  0.00    +0.000 C 
ATOM     17  C   UNL     1       5.271   6.190  15.786  0.00  0.00    +0.000 C 
ENDBRANCH   5  15
ENDBRANCH   1   9
BRANCH   2  18
ATOM     18  C   UNL     1       2.157   9.193  17.911  0.00  0.00    +0.000 C 
BRANCH  18  19
ATOM     19  C   UNL     1       0.899   9.682  18.593  0.00  0.00    +0.000 A 
ATOM     20  C   UNL     1      -0.110  10.231  17.780  0.00  0.00    +0.000 A 
ATOM     21  C   UNL     1      -1.295  10.695  18.339  0.00  0.00    +0.000 A 
ATOM     22  C   UNL     1      -1.491  10.624  19.713  0.00  0.00    +0.000 A 
ATOM     23  C   UNL     1      -0.505  10.088  20.556  0.00  0.00    +0.000 A 
ATOM     24  C   UNL     1      -0.738  10.030  21.939  0.00  0.00    +0.000 A 
ATOM     25  C   UNL     1       0.217   9.500  22.805  0.00  0.00    +0.000 A 
ATOM     26  C   UNL     1       1.415   9.025  22.293  0.00  0.00    +0.000 A 
ATOM     27  C   UNL     1       1.660   9.080  20.917  0.00  0.00    +0.000 A 
ATOM     28  C   UNL     1       0.713   9.611  20.008  0.00  0.00    +0.000 A 
ENDBRANCH  18  19
ENDBRANCH   2  18
TORSDOF 4
ENDMDL
MODEL 7
REMARK VINA RESULT:      -8.7      0.781      1.197
REMARK  Name = 
REMARK  7 active torsions:
REMARK  status: ('A' for Active; 'I' for Inactive)
REMARK    1  A    between atoms: C_1  and  C_2
REMARK    2  A    between atoms: C_2  and  C_3
REMARK    3  A    between atoms: C_2  and  C_4
REMARK    4  A    between atoms: C_2  and  N_5
REMARK    5  A    between atoms: C_9  and  N_10
REMARK    6  A    between atoms: C_11  and  C_13
REMARK    7  A    between atoms: C_13  and  C_14
REMARK                            x       y       z     vdW  Elec       q    Type
REMARK                         _______ _______ _______ _____ _____    ______ ____
ROOT
ATOM      1  N   UNL     1       3.526   5.852  19.454  0.00  0.00    +0.000 N 
ATOM      2  C   UNL     1       2.359   6.697  19.310  0.00  0.00    +0.000 C 
ATOM      3  O   UNL     1       1.718   6.702  18.271  0.00  0.00    +0.000 OA
ATOM      4  H   UNL     1       4.107   5.988  20.270  0.00  0.00    +0.000 HD
ENDROOT
BRANCH   1   9
ATOM      5  N   UNL     1       3.508   3.605  18.331  0.00  0.00    +0.000 N 
ATOM      6  N   UNL     1       4.139   2.974  17.302  0.00  0.00    +0.000 NA
ATOM      7  C   UNL     1       4.943   3.901  16.807  0.00  0.00    +0.000 A 
ATOM      8  C   UNL     1       4.836   5.129  17.458  0.00  0.00    +0.000 A 
ATOM      9  C   UNL     1       3.942   4.930  18.489  0.00  0.00    +0.000 A 
ATOM     10  C   UNL     1       5.640   6.214  16.870  0.00  0.00    +0.000 C 
ATOM     11  S   UNL     1       6.185   5.561  15.200  0.00  0.00    +0.000 S 
ATOM     12  O   UNL     1       7.740   5.761  15.100  0.00  0.00    +0.000 OA
ATOM     13  C   UNL     1       5.867   3.787  15.665  0.00  0.00    +0.000 C 
BRANCH   5  15
ATOM     14  C   UNL     1       2.612   1.308  18.800  0.00  0.00    +0.000 C 
ATOM     15  C   UNL     1       2.532   2.826  19.123  0.00  0.00    +0.000 C 
ATOM     16  C   UNL     1       1.096   3.279  18.798  0.00  0.00    +0.000 C 
ATOM     17  C   UNL     1       2.802   2.974  20.632  0.00  0.00    +0.000 C 
ENDBRANCH   5  15
ENDBRANCH   1   9
BRANCH   2  18
ATOM     18  C   UNL     1       2.035   7.596  20.478  0.00  0.00    +0.000 C 
BRANCH  18  19
ATOM     19  C   UNL     1       1.290   8.846  20.068  0.00  0.00    +0.000 A 
ATOM     20  C   UNL     1       1.430   9.281  18.738  0.00  0.00    +0.000 A 
ATOM     21  C   UNL     1       0.769  10.419  18.291  0.00  0.00    +0.000 A 
ATOM     22  C   UNL     1      -0.036  11.143  19.163  0.00  0.00    +0.000 A 
ATOM     23  C   UNL     1      -0.196  10.743  20.498  0.00  0.00    +0.000 A 
ATOM     24  C   UNL     1      -1.019  11.497  21.350  0.00  0.00    +0.000 A 
ATOM     25  C   UNL     1      -1.204  11.127  22.680  0.00  0.00    +0.000 A 
ATOM     26  C   UNL     1      -0.565   9.998  23.171  0.00  0.00    +0.000 A 
ATOM     27  C   UNL     1       0.260   9.240  22.333  0.00  0.00    +0.000 A 
ATOM     28  C   UNL     1       0.471   9.587  20.977  0.00  0.00    +0.000 A 
ENDBRANCH  18  19
ENDBRANCH   2  18
TORSDOF 4
ENDMDL
MODEL 8
REMARK VINA RESULT:      -8.6      1.622      2.778
REMARK  Name = 
REMARK  7 active torsions:
REMARK  status: ('A' for Active; 'I' for Inactive)
REMARK    1  A    between atoms: C_1  and  C_2
REMARK    2  A    between atoms: C_2  and  C_3
REMARK    3  A    between atoms: C_2  and  C_4
REMARK    4  A    between atoms: C_2  and  N_5
REMARK    5  A    between atoms: C_9  and  N_10
REMARK    6  A    between atoms: C_11  and  C_13
REMARK    7  A    between atoms: C_13  and  C_14
REMARK                            x       y       z     vdW  Elec       q    Type
REMARK                         _______ _______ _______ _____ _____    ______ ____
ROOT
ATOM      1  N   UNL     1       2.238   6.552  17.830  0.00  0.00    +0.000 N 
ATOM      2  C   UNL     1       2.476   7.976  17.944  0.00  0.00    +0.000 C 
ATOM      3  O   UNL     1       3.591   8.404  18.200  0.00  0.00    +0.000 OA
ATOM      4  H   UNL     1       1.280   6.240  17.763  0.00  0.00    +0.000 HD
ENDROOT
BRANCH   1   9
ATOM      5  N   UNL     1       3.307   4.472  18.746  0.00  0.00    +0.000 N 
ATOM      6  N   UNL     1       4.448   3.750  18.572  0.00  0.00    +0.000 NA
ATOM      7  C   UNL     1       5.087   4.394  17.610  0.00  0.00    +0.000 A 
ATOM      8  C   UNL     1       4.387   5.498  17.125  0.00  0.00    +0.000 A 
ATOM      9  C   UNL     1       3.248   5.588  17.899  0.00  0.00    +0.000 A 
ATOM     10  C   UNL     1       5.019   6.180  15.983  0.00  0.00    +0.000 C 
ATOM     11  S   UNL     1       6.349   5.000  15.392  0.00  0.00    +0.000 S 
ATOM     12  O   UNL     1       7.688   5.816  15.284  0.00  0.00    +0.000 OA
ATOM     13  C   UNL     1       6.384   4.058  16.997  0.00  0.00    +0.000 C 
BRANCH   5  15
ATOM     14  C   UNL     1       2.962   2.890  20.665  0.00  0.00    +0.000 C 
ATOM     15  C   UNL     1       2.356   4.020  19.786  0.00  0.00    +0.000 C 
ATOM     16  C   UNL     1       1.084   3.447  19.134  0.00  0.00    +0.000 C 
ATOM     17  C   UNL     1       1.988   5.174  20.737  0.00  0.00    +0.000 C 
ENDBRANCH   5  15
ENDBRANCH   1   9
BRANCH   2  18
ATOM     18  C   UNL     1       1.270   8.870  17.793  0.00  0.00    +0.000 C 
BRANCH  18  19
ATOM     19  C   UNL     1       1.023   9.736  19.009  0.00  0.00    +0.000 A 
ATOM     20  C   UNL     1       0.327   9.160  20.087  0.00  0.00    +0.000 A 
ATOM     21  C   UNL     1       0.071   9.895  21.239  0.00  0.00    +0.000 A 
ATOM     22  C   UNL     1       0.499  11.214  21.331  0.00  0.00    +0.000 A 
ATOM     23  C   UNL     1       1.191  11.824  20.274  0.00  0.00    +0.000 A 
ATOM     24  C   UNL     1       1.610  13.158  20.403  0.00  0.00    +0.000 A 
ATOM     25  C   UNL     1       2.304  13.793  19.375  0.00  0.00    +0.000 A 
ATOM     26  C   UNL     1       2.582  13.099  18.207  0.00  0.00    +0.000 A 
ATOM     27  C   UNL     1       2.168  11.771  18.065  0.00  0.00    +0.000 A 
ATOM     28  C   UNL     1       1.461  11.094  19.088  0.00  0.00    +0.000 A 
ENDBRANCH  18  19
ENDBRANCH   2  18
TORSDOF 4
ENDMDL
MODEL 9
REMARK VINA RESULT:      -8.5      2.508      4.430
REMARK  Name = 
REMARK  7 active torsions:
REMARK  status: ('A' for Active; 'I' for Inactive)
REMARK    1  A    between atoms: C_1  and  C_2
REMARK    2  A    between atoms: C_2  and  C_3
REMARK    3  A    between atoms: C_2  and  C_4
REMARK    4  A    between atoms: C_2  and  N_5
REMARK    5  A    between atoms: C_9  and  N_10
REMARK    6  A    between atoms: C_11  and  C_13
REMARK    7  A    between atoms: C_13  and  C_14
REMARK                            x       y       z     vdW  Elec       q    Type
REMARK                         _______ _______ _______ _____ _____    ______ ____
ROOT
ATOM      1  N   UNL     1       2.880   6.901  17.751  0.00  0.00    +0.000 N 
ATOM      2  C   UNL     1       2.341   7.992  18.536  0.00  0.00    +0.000 C 
ATOM      3  O   UNL     1       2.299   7.923  19.754  0.00  0.00    +0.000 OA
ATOM      4  H   UNL     1       2.761   6.940  16.748  0.00  0.00    +0.000 HD
ENDROOT
BRANCH   1   9
ATOM      5  N   UNL     1       4.735   5.230  18.025  0.00  0.00    +0.000 N 
ATOM      6  N   UNL     1       4.986   4.090  18.727  0.00  0.00    +0.000 NA
ATOM      7  C   UNL     1       3.895   3.921  19.457  0.00  0.00    +0.000 A 
ATOM      8  C   UNL     1       2.951   4.932  19.280  0.00  0.00    +0.000 A 
ATOM      9  C   UNL     1       3.468   5.761  18.306  0.00  0.00    +0.000 A 
ATOM     10  C   UNL     1       1.768   4.834  20.153  0.00  0.00    +0.000 C 
ATOM     11  S   UNL     1       2.231   3.565  21.453  0.00  0.00    +0.000 S 
ATOM     12  O   UNL     1       1.072   2.506  21.511  0.00  0.00    +0.000 OA
ATOM     13  C   UNL     1       3.606   2.848  20.424  0.00  0.00    +0.000 C 
BRANCH   5  15
ATOM     14  C   UNL     1       7.024   4.779  17.098  0.00  0.00    +0.000 C 
ATOM     15  C   UNL     1       5.771   5.700  17.079  0.00  0.00    +0.000 C 
ATOM     16  C   UNL     1       6.246   7.113  17.464  0.00  0.00    +0.000 C 
ATOM     17  C   UNL     1       5.240   5.697  15.633  0.00  0.00    +0.000 C 
ENDBRANCH   5  15
ENDBRANCH   1   9
BRANCH   2  18
ATOM     18  C   UNL     1       1.791   9.166  17.762  0.00  0.00    +0.000 C 
BRANCH  18  19
ATOM     19  C   UNL     1       1.076  10.167  18.642  0.00  0.00    +0.000 A 
ATOM     20  C   UNL     1      -0.032   9.710  19.379  0.00  0.00    +0.000 A 
ATOM     21  C   UNL     1      -0.733  10.573  20.213  0.00  0.00    +0.000 A 
ATOM     22  C   UNL     1      -0.345  11.904  20.320  0.00  0.00    +0.000 A 
ATOM     23  C   UNL     1       0.751  12.397  19.595  0.00  0.00    +0.000 A 
ATOM     24  C   UNL     1       1.116  13.746  19.730  0.00  0.00    +0.000 A 
ATOM     25  C   UNL     1       2.201  14.268  19.030  0.00  0.00    +0.000 A 
ATOM     26  C   UNL     1       2.931  13.444  18.186  0.00  0.00    +0.000 A 
ATOM     27  C   UNL     1       2.575  12.098  18.042  0.00  0.00    +0.000 A 
ATOM     28  C   UNL     1       1.479  11.535  18.737  0.00  0.00    +0.000 A 
ENDBRANCH  18  19
ENDBRANCH   2  18
TORSDOF 4
ENDMDL
