MODEL 1
REMARK VINA RESULT:      -7.4      0.000      0.000
REMARK  Name = 
REMARK  6 active torsions:
REMARK  status: ('A' for Active; 'I' for Inactive)
REMARK    1  A    between atoms: C_1  and  N_2
REMARK    2  A    between atoms: C_8  and  N_9
REMARK    3  A    between atoms: C_10  and  C_12
REMARK    4  A    between atoms: C_12  and  S_13
REMARK    5  A    between atoms: S_13  and  C_16
REMARK    6  A    between atoms: C_23  and  C_24
REMARK                            x       y       z     vdW  Elec       q    Type
REMARK                         _______ _______ _______ _____ _____    ______ ____
ROOT
ATOM      1  C   UNL     1      -1.764  11.003  19.093  0.00  0.00    +0.000 C 
ATOM      2  N   UNL     1      -0.494  11.420  19.711  0.00  0.00    +0.000 NA
ATOM      3  C   UNL     1       0.632  11.493  18.760  0.00  0.00    +0.000 C 
ATOM      4  C   UNL     1       1.129  10.114  18.276  0.00  0.00    +0.000 C 
ATOM      5  C   UNL     1       1.266   9.124  19.412  0.00  0.00    +0.000 A 
ATOM      6  C   UNL     1       0.662   9.414  20.627  0.00  0.00    +0.000 A 
ATOM      7  S   UNL     1       0.945   8.170  21.690  0.00  0.00    +0.000 S 
ATOM      8  C   UNL     1       1.827   7.184  20.636  0.00  0.00    +0.000 A 
ATOM      9  C   UNL     1       1.927   7.845  19.368  0.00  0.00    +0.000 A 
ATOM     10  C   UNL     1      -0.163  10.640  20.927  0.00  0.00    +0.000 C 
ENDROOT
BRANCH   9  11
ATOM     11  C   UNL     1       2.596   7.355  18.096  0.00  0.00    +0.000 C 
ATOM     12  N   UNL     1       3.550   8.035  17.409  0.00  0.00    +0.000 N 
ATOM     13  O   UNL     1       2.300   6.252  17.666  0.00  0.00    +0.000 OA
ATOM     14  H   UNL     1       3.945   8.926  17.697  0.00  0.00    +0.000 HD
ATOM     15  H   UNL     1       3.956   7.617  16.557  0.00  0.00    +0.000 HD
ENDBRANCH   9  11
BRANCH   8  16
ATOM     16  N   UNL     1       2.386   5.921  21.030  0.00  0.00    +0.000 N 
ATOM     17  C   UNL     1       1.820   4.706  20.754  0.00  0.00    +0.000 C 
ATOM     18  O   UNL     1       0.777   4.621  20.123  0.00  0.00    +0.000 OA
ATOM     19  H   UNL     1       3.244   5.903  21.582  0.00  0.00    +0.000 HD
BRANCH  17  20
ATOM     20  C   UNL     1       2.483   3.426  21.199  0.00  0.00    +0.000 C 
BRANCH  20  21
ATOM     21  S   UNL     1       3.692   2.827  19.971  0.00  0.00    +0.000 S 
ATOM     22  O   UNL     1       4.711   1.898  20.650  0.00  0.00    +0.000 OA
ATOM     23  O   UNL     1       2.959   1.772  19.130  0.00  0.00    +0.000 OA
BRANCH  21  24
ATOM     24  C   UNL     1       4.547   3.870  18.782  0.00  0.00    +0.000 A 
ATOM     25  C   UNL     1       5.348   4.941  19.201  0.00  0.00    +0.000 A 
ATOM     26  C   UNL     1       5.997   5.741  18.251  0.00  0.00    +0.000 A 
ATOM     27  C   UNL     1       5.848   5.474  16.884  0.00  0.00    +0.000 A 
ATOM     28  F   UNL     1       6.476   6.249  15.969  0.00  0.00    +0.000 F 
ATOM     29  C   UNL     1       5.045   4.405  16.468  0.00  0.00    +0.000 A 
ATOM     30  C   UNL     1       4.400   3.605  17.415  0.00  0.00    +0.000 A 
ENDBRANCH  21  24
ENDBRANCH  20  21
ENDBRANCH  17  20
ENDBRANCH   8  16
TORSDOF 5
ENDMDL
MODEL 2
REMARK VINA RESULT:      -7.1      0.711      1.171
REMARK  Name = 
REMARK  6 active torsions:
REMARK  status: ('A' for Active; 'I' for Inactive)
REMARK    1  A    between atoms: C_1  and  N_2
REMARK    2  A    between atoms: C_8  and  N_9
REMARK    3  A    between atoms: C_10  and  C_12
REMARK    4  A    between atoms: C_12  and  S_13
REMARK    5  A    between atoms: S_13  and  C_16
REMARK    6  A    between atoms: C_23  and  C_24
REMARK                            x       y       z     vdW  Elec       q    Type
REMARK                         _______ _______ _______ _____ _____    ______ ____
ROOT
ATOM      1  C   UNL     1      -1.334  11.097  18.711  0.00  0.00    +0.000 C 
ATOM      2  N   UNL     1      -0.113  11.439  19.460  0.00  0.00    +0.000 NA
ATOM      3  C   UNL     1       1.103  11.475  18.626  0.00  0.00    +0.000 C 
ATOM      4  C   UNL     1       1.580  10.083  18.158  0.00  0.00    +0.000 C 
ATOM      5  C   UNL     1       1.558   9.065  19.277  0.00  0.00    +0.000 A 
ATOM      6  C   UNL     1       0.851   9.360  20.434  0.00  0.00    +0.000 A 
ATOM      7  S   UNL     1       0.969   8.082  21.489  0.00  0.00    +0.000 S 
ATOM      8  C   UNL     1       1.904   7.076  20.501  0.00  0.00    +0.000 A 
ATOM      9  C   UNL     1       2.159   7.756  19.265  0.00  0.00    +0.000 A 
ATOM     10  C   UNL     1       0.059  10.618  20.682  0.00  0.00    +0.000 C 
ENDROOT
BRANCH   9  11
ATOM     11  C   UNL     1       2.927   7.259  18.054  0.00  0.00    +0.000 C 
ATOM     12  N   UNL     1       2.588   6.174  17.312  0.00  0.00    +0.000 N 
ATOM     13  O   UNL     1       3.900   7.892  17.677  0.00  0.00    +0.000 OA
ATOM     14  H   UNL     1       1.760   5.604  17.465  0.00  0.00    +0.000 HD
ATOM     15  H   UNL     1       3.166   5.916  16.496  0.00  0.00    +0.000 HD
ENDBRANCH   9  11
BRANCH   8  16
ATOM     16  N   UNL     1       2.361   5.779  20.917  0.00  0.00    +0.000 N 
ATOM     17  C   UNL     1       1.939   4.598  20.368  0.00  0.00    +0.000 C 
ATOM     18  O   UNL     1       1.130   4.579  19.452  0.00  0.00    +0.000 OA
ATOM     19  H   UNL     1       3.019   5.704  21.693  0.00  0.00    +0.000 HD
BRANCH  17  20
ATOM     20  C   UNL     1       2.482   3.280  20.861  0.00  0.00    +0.000 C 
BRANCH  20  21
ATOM     21  S   UNL     1       3.857   2.682  19.821  0.00  0.00    +0.000 S 
ATOM     22  O   UNL     1       4.837   1.859  20.673  0.00  0.00    +0.000 OA
ATOM     23  O   UNL     1       3.284   1.535  18.976  0.00  0.00    +0.000 OA
BRANCH  21  24
ATOM     24  C   UNL     1       4.788   3.701  18.670  0.00  0.00    +0.000 A 
ATOM     25  C   UNL     1       4.670   3.523  17.285  0.00  0.00    +0.000 A 
ATOM     26  C   UNL     1       5.412   4.329  16.411  0.00  0.00    +0.000 A 
ATOM     27  C   UNL     1       6.273   5.310  16.917  0.00  0.00    +0.000 A 
ATOM     28  F   UNL     1       6.990   6.087  16.070  0.00  0.00    +0.000 F 
ATOM     29  C   UNL     1       6.391   5.484  18.301  0.00  0.00    +0.000 A 
ATOM     30  C   UNL     1       5.649   4.684  19.173  0.00  0.00    +0.000 A 
ENDBRANCH  21  24
ENDBRANCH  20  21
ENDBRANCH  17  20
ENDBRANCH   8  16
TORSDOF 5
ENDMDL
MODEL 3
REMARK VINA RESULT:      -6.7      3.776      7.783
REMARK  Name = 
REMARK  6 active torsions:
REMARK  status: ('A' for Active; 'I' for Inactive)
REMARK    1  A    between atoms: C_1  and  N_2
REMARK    2  A    between atoms: C_8  and  N_9
REMARK    3  A    between atoms: C_10  and  C_12
REMARK    4  A    between atoms: C_12  and  S_13
REMARK    5  A    between atoms: S_13  and  C_16
REMARK    6  A    between atoms: C_23  and  C_24
REMARK                            x       y       z     vdW  Elec       q    Type
REMARK                         _______ _______ _______ _____ _____    ______ ____
ROOT
ATOM      1  C   UNL     1       4.067   1.774  19.035  0.00  0.00    +0.000 C 
ATOM      2  N   UNL     1       2.665   2.086  18.712  0.00  0.00    +0.000 NA
ATOM      3  C   UNL     1       2.497   2.800  17.431  0.00  0.00    +0.000 C 
ATOM      4  C   UNL     1       2.989   4.263  17.465  0.00  0.00    +0.000 C 
ATOM      5  C   UNL     1       2.533   4.992  18.711  0.00  0.00    +0.000 A 
ATOM      6  C   UNL     1       2.047   4.250  19.778  0.00  0.00    +0.000 A 
ATOM      7  S   UNL     1       1.635   5.277  21.017  0.00  0.00    +0.000 S 
ATOM      8  C   UNL     1       2.090   6.719  20.259  0.00  0.00    +0.000 A 
ATOM      9  C   UNL     1       2.594   6.410  18.953  0.00  0.00    +0.000 A 
ATOM     10  C   UNL     1       1.951   2.746  19.830  0.00  0.00    +0.000 C 
ENDROOT
BRANCH   9  11
ATOM     11  C   UNL     1       3.147   7.359  17.904  0.00  0.00    +0.000 C 
ATOM     12  N   UNL     1       4.294   7.160  17.206  0.00  0.00    +0.000 N 
ATOM     13  O   UNL     1       2.507   8.359  17.624  0.00  0.00    +0.000 OA
ATOM     14  H   UNL     1       4.882   6.335  17.282  0.00  0.00    +0.000 HD
ATOM     15  H   UNL     1       4.588   7.858  16.503  0.00  0.00    +0.000 HD
ENDBRANCH   9  11
BRANCH   8  16
ATOM     16  N   UNL     1       1.931   8.008  20.873  0.00  0.00    +0.000 N 
ATOM     17  C   UNL     1       0.749   8.486  21.371  0.00  0.00    +0.000 C 
ATOM     18  O   UNL     1      -0.272   7.816  21.331  0.00  0.00    +0.000 OA
ATOM     19  H   UNL     1       2.730   8.640  20.924  0.00  0.00    +0.000 HD
BRANCH  17  20
ATOM     20  C   UNL     1       0.677   9.850  22.010  0.00  0.00    +0.000 C 
BRANCH  20  21
ATOM     21  S   UNL     1       0.341  11.158  20.781  0.00  0.00    +0.000 S 
ATOM     22  O   UNL     1       0.671  12.534  21.379  0.00  0.00    +0.000 OA
ATOM     23  O   UNL     1       1.482  11.083  19.757  0.00  0.00    +0.000 OA
BRANCH  21  24
ATOM     24  C   UNL     1      -1.164  11.283  19.806  0.00  0.00    +0.000 A 
ATOM     25  C   UNL     1      -2.176  12.191  20.148  0.00  0.00    +0.000 A 
ATOM     26  C   UNL     1      -3.341  12.263  19.372  0.00  0.00    +0.000 A 
ATOM     27  C   UNL     1      -3.498  11.430  18.257  0.00  0.00    +0.000 A 
ATOM     28  F   UNL     1      -4.625  11.501  17.510  0.00  0.00    +0.000 F 
ATOM     29  C   UNL     1      -2.487  10.523  17.920  0.00  0.00    +0.000 A 
ATOM     30  C   UNL     1      -1.323  10.452  18.690  0.00  0.00    +0.000 A 
ENDBRANCH  21  24
ENDBRANCH  20  21
ENDBRANCH  17  20
ENDBRANCH   8  16
TORSDOF 5
ENDMDL
MODEL 4
REMARK VINA RESULT:      -6.6      4.632      8.865
REMARK  Name = 
REMARK  6 active torsions:
REMARK  status: ('A' for Active; 'I' for Inactive)
REMARK    1  A    between atoms: C_1  and  N_2
REMARK    2  A    between atoms: C_8  and  N_9
REMARK    3  A    between atoms: C_10  and  C_12
REMARK    4  A    between atoms: C_12  and  S_13
REMARK    5  A    between atoms: S_13  and  C_16
REMARK    6  A    between atoms: C_23  and  C_24
REMARK                            x       y       z     vdW  Elec       q    Type
REMARK                         _______ _______ _______ _____ _____    ______ ____
ROOT
ATOM      1  C   UNL     1       1.520   3.755  18.311  0.00  0.00    +0.000 C 
ATOM      2  N   UNL     1       2.788   4.392  18.707  0.00  0.00    +0.000 NA
ATOM      3  C   UNL     1       2.903   4.632  20.158  0.00  0.00    +0.000 C 
ATOM      4  C   UNL     1       1.983   5.757  20.678  0.00  0.00    +0.000 C 
ATOM      5  C   UNL     1       2.013   6.979  19.786  0.00  0.00    +0.000 A 
ATOM      6  C   UNL     1       2.551   6.863  18.513  0.00  0.00    +0.000 A 
ATOM      7  S   UNL     1       2.448   8.329  17.738  0.00  0.00    +0.000 S 
ATOM      8  C   UNL     1       1.679   9.175  18.985  0.00  0.00    +0.000 A 
ATOM      9  C   UNL     1       1.482   8.283  20.089  0.00  0.00    +0.000 A 
ATOM     10  C   UNL     1       3.100   5.598  17.903  0.00  0.00    +0.000 C 
ENDROOT
BRANCH   9  11
ATOM     11  C   UNL     1       0.814   8.564  21.423  0.00  0.00    +0.000 C 
ATOM     12  N   UNL     1      -0.489   8.309  21.708  0.00  0.00    +0.000 N 
ATOM     13  O   UNL     1       1.491   9.014  22.334  0.00  0.00    +0.000 OA
ATOM     14  H   UNL     1      -1.143   7.864  21.071  0.00  0.00    +0.000 HD
ATOM     15  H   UNL     1      -0.854   8.525  22.649  0.00  0.00    +0.000 HD
ENDBRANCH   9  11
BRANCH   8  16
ATOM     16  N   UNL     1       1.344  10.569  18.891  0.00  0.00    +0.000 N 
ATOM     17  C   UNL     1       0.101  11.045  18.574  0.00  0.00    +0.000 C 
ATOM     18  O   UNL     1      -0.831  10.286  18.356  0.00  0.00    +0.000 OA
ATOM     19  H   UNL     1       2.071  11.270  19.035  0.00  0.00    +0.000 HD
BRANCH  17  20
ATOM     20  C   UNL     1      -0.164  12.529  18.509  0.00  0.00    +0.000 C 
BRANCH  20  21
ATOM     21  S   UNL     1      -0.165  13.290  20.168  0.00  0.00    +0.000 S 
ATOM     22  O   UNL     1       1.256  13.273  20.753  0.00  0.00    +0.000 OA
ATOM     23  O   UNL     1      -0.293  14.803  19.943  0.00  0.00    +0.000 OA
BRANCH  21  24
ATOM     24  C   UNL     1      -1.343  12.904  21.470  0.00  0.00    +0.000 A 
ATOM     25  C   UNL     1      -2.513  13.658  21.637  0.00  0.00    +0.000 A 
ATOM     26  C   UNL     1      -3.410  13.337  22.664  0.00  0.00    +0.000 A 
ATOM     27  C   UNL     1      -3.141  12.266  23.526  0.00  0.00    +0.000 A 
ATOM     28  F   UNL     1      -4.010  11.959  24.519  0.00  0.00    +0.000 F 
ATOM     29  C   UNL     1      -1.971  11.516  23.359  0.00  0.00    +0.000 A 
ATOM     30  C   UNL     1      -1.077  11.833  22.333  0.00  0.00    +0.000 A 
ENDBRANCH  21  24
ENDBRANCH  20  21
ENDBRANCH  17  20
ENDBRANCH   8  16
TORSDOF 5
ENDMDL
MODEL 5
REMARK VINA RESULT:      -6.6      2.141      3.109
REMARK  Name = 
REMARK  6 active torsions:
REMARK  status: ('A' for Active; 'I' for Inactive)
REMARK    1  A    between atoms: C_1  and  N_2
REMARK    2  A    between atoms: C_8  and  N_9
REMARK    3  A    between atoms: C_10  and  C_12
REMARK    4  A    between atoms: C_12  and  S_13
REMARK    5  A    between atoms: S_13  and  C_16
REMARK    6  A    between atoms: C_23  and  C_24
REMARK                            x       y       z     vdW  Elec       q    Type
REMARK                         _______ _______ _______ _____ _____    ______ ____
ROOT
ATOM      1  C   UNL     1       1.772  13.830  19.369  0.00  0.00    +0.000 C 
ATOM      2  N   UNL     1       0.626  13.039  18.890  0.00  0.00    +0.000 NA
ATOM      3  C   UNL     1      -0.420  12.832  19.909  0.00  0.00    +0.000 C 
ATOM      4  C   UNL     1      -0.008  11.860  21.036  0.00  0.00    +0.000 C 
ATOM      5  C   UNL     1       0.669  10.617  20.500  0.00  0.00    +0.000 A 
ATOM      6  C   UNL     1       1.125  10.618  19.191  0.00  0.00    +0.000 A 
ATOM      7  S   UNL     1       1.839   9.155  18.858  0.00  0.00    +0.000 S 
ATOM      8  C   UNL     1       1.627   8.463  20.386  0.00  0.00    +0.000 A 
ATOM      9  C   UNL     1       0.955   9.408  21.228  0.00  0.00    +0.000 A 
ATOM     10  C   UNL     1       1.035  11.776  18.230  0.00  0.00    +0.000 C 
ENDROOT
BRANCH   9  11
ATOM     11  C   UNL     1       0.565   9.264  22.689  0.00  0.00    +0.000 C 
ATOM     12  N   UNL     1      -0.666   8.900  23.131  0.00  0.00    +0.000 N 
ATOM     13  O   UNL     1       1.418   9.444  23.543  0.00  0.00    +0.000 OA
ATOM     14  H   UNL     1      -1.444   8.645  22.529  0.00  0.00    +0.000 HD
ATOM     15  H   UNL     1      -0.836   8.819  24.146  0.00  0.00    +0.000 HD
ENDBRANCH   9  11
BRANCH   8  16
ATOM     16  N   UNL     1       2.046   7.125  20.702  0.00  0.00    +0.000 N 
ATOM     17  C   UNL     1       2.208   6.128  19.779  0.00  0.00    +0.000 C 
ATOM     18  O   UNL     1       2.012   6.328  18.590  0.00  0.00    +0.000 OA
ATOM     19  H   UNL     1       2.207   6.867  21.676  0.00  0.00    +0.000 HD
BRANCH  17  20
ATOM     20  C   UNL     1       2.662   4.753  20.200  0.00  0.00    +0.000 C 
BRANCH  20  21
ATOM     21  S   UNL     1       4.138   4.212  19.273  0.00  0.00    +0.000 S 
ATOM     22  O   UNL     1       4.817   3.044  20.004  0.00  0.00    +0.000 OA
ATOM     23  O   UNL     1       3.616   3.436  18.055  0.00  0.00    +0.000 OA
BRANCH  21  24
ATOM     24  C   UNL     1       5.401   5.316  18.625  0.00  0.00    +0.000 A 
ATOM     25  C   UNL     1       6.671   5.388  19.213  0.00  0.00    +0.000 A 
ATOM     26  C   UNL     1       7.634   6.262  18.690  0.00  0.00    +0.000 A 
ATOM     27  C   UNL     1       7.331   7.064  17.583  0.00  0.00    +0.000 A 
ATOM     28  F   UNL     1       8.264   7.908  17.080  0.00  0.00    +0.000 F 
ATOM     29  C   UNL     1       6.061   6.992  16.999  0.00  0.00    +0.000 A 
ATOM     30  C   UNL     1       5.101   6.118  17.518  0.00  0.00    +0.000 A 
ENDBRANCH  21  24
ENDBRANCH  20  21
ENDBRANCH  17  20
ENDBRANCH   8  16
TORSDOF 5
ENDMDL
MODEL 6
REMARK VINA RESULT:      -6.6      3.612      7.821
REMARK  Name = 
REMARK  6 active torsions:
REMARK  status: ('A' for Active; 'I' for Inactive)
REMARK    1  A    between atoms: C_1  and  N_2
REMARK    2  A    between atoms: C_8  and  N_9
REMARK    3  A    between atoms: C_10  and  C_12
REMARK    4  A    between atoms: C_12  and  S_13
REMARK    5  A    between atoms: S_13  and  C_16
REMARK    6  A    between atoms: C_23  and  C_24
REMARK                            x       y       z     vdW  Elec       q    Type
REMARK                         _______ _______ _______ _____ _____    ______ ____
ROOT
ATOM      1  C   UNL     1       5.245   4.297  15.612  0.00  0.00    +0.000 C 
ATOM      2  N   UNL     1       5.898   5.068  16.683  0.00  0.00    +0.000 NA
ATOM      3  C   UNL     1       5.889   4.388  17.993  0.00  0.00    +0.000 C 
ATOM      4  C   UNL     1       4.495   4.332  18.655  0.00  0.00    +0.000 C 
ATOM      5  C   UNL     1       3.770   5.657  18.576  0.00  0.00    +0.000 A 
ATOM      6  C   UNL     1       4.236   6.622  17.695  0.00  0.00    +0.000 A 
ATOM      7  S   UNL     1       3.262   7.965  17.787  0.00  0.00    +0.000 S 
ATOM      8  C   UNL     1       2.176   7.362  18.935  0.00  0.00    +0.000 A 
ATOM      9  C   UNL     1       2.578   6.033  19.292  0.00  0.00    +0.000 A 
ATOM     10  C   UNL     1       5.411   6.466  16.764  0.00  0.00    +0.000 C 
ENDROOT
BRANCH   9  11
ATOM     11  C   UNL     1       1.911   5.072  20.259  0.00  0.00    +0.000 C 
ATOM     12  N   UNL     1       0.897   4.228  19.939  0.00  0.00    +0.000 N 
ATOM     13  O   UNL     1       2.330   5.008  21.404  0.00  0.00    +0.000 OA
ATOM     14  H   UNL     1       0.505   4.121  19.007  0.00  0.00    +0.000 HD
ATOM     15  H   UNL     1       0.511   3.601  20.664  0.00  0.00    +0.000 HD
ENDBRANCH   9  11
BRANCH   8  16
ATOM     16  N   UNL     1       1.077   8.131  19.450  0.00  0.00    +0.000 N 
ATOM     17  C   UNL     1       1.022   8.648  20.716  0.00  0.00    +0.000 C 
ATOM     18  O   UNL     1       1.941   8.490  21.506  0.00  0.00    +0.000 OA
ATOM     19  H   UNL     1       0.258   8.290  18.863  0.00  0.00    +0.000 HD
BRANCH  17  20
ATOM     20  C   UNL     1      -0.170   9.454  21.169  0.00  0.00    +0.000 C 
BRANCH  20  21
ATOM     21  S   UNL     1      -0.505  10.855  20.048  0.00  0.00    +0.000 S 
ATOM     22  O   UNL     1      -0.720  12.139  20.865  0.00  0.00    +0.000 OA
ATOM     23  O   UNL     1       0.842  11.223  19.411  0.00  0.00    +0.000 OA
BRANCH  21  24
ATOM     24  C   UNL     1      -1.679  10.819  18.687  0.00  0.00    +0.000 A 
ATOM     25  C   UNL     1      -2.829  11.621  18.700  0.00  0.00    +0.000 A 
ATOM     26  C   UNL     1      -3.729  11.568  17.628  0.00  0.00    +0.000 A 
ATOM     27  C   UNL     1      -3.485  10.716  16.544  0.00  0.00    +0.000 A 
ATOM     28  F   UNL     1      -4.358  10.666  15.509  0.00  0.00    +0.000 F 
ATOM     29  C   UNL     1      -2.338   9.914  16.535  0.00  0.00    +0.000 A 
ATOM     30  C   UNL     1      -1.437   9.969  17.602  0.00  0.00    +0.000 A 
ENDBRANCH  21  24
ENDBRANCH  20  21
ENDBRANCH  17  20
ENDBRANCH   8  16
TORSDOF 5
ENDMDL
MODEL 7
REMARK VINA RESULT:      -6.5      3.707      8.038
REMARK  Name = 
REMARK  6 active torsions:
REMARK  status: ('A' for Active; 'I' for Inactive)
REMARK    1  A    between atoms: C_1  and  N_2
REMARK    2  A    between atoms: C_8  and  N_9
REMARK    3  A    between atoms: C_10  and  C_12
REMARK    4  A    between atoms: C_12  and  S_13
REMARK    5  A    between atoms: S_13  and  C_16
REMARK    6  A    between atoms: C_23  and  C_24
REMARK                            x       y       z     vdW  Elec       q    Type
REMARK                         _______ _______ _______ _____ _____    ______ ____
ROOT
ATOM      1  C   UNL     1       4.447   1.521  19.956  0.00  0.00    +0.000 C 
ATOM      2  N   UNL     1       3.330   1.753  19.026  0.00  0.00    +0.000 NA
ATOM      3  C   UNL     1       3.758   2.145  17.670  0.00  0.00    +0.000 C 
ATOM      4  C   UNL     1       4.341   3.572  17.589  0.00  0.00    +0.000 C 
ATOM      5  C   UNL     1       3.503   4.577  18.349  0.00  0.00    +0.000 A 
ATOM      6  C   UNL     1       2.560   4.111  19.254  0.00  0.00    +0.000 A 
ATOM      7  S   UNL     1       1.794   5.403  19.962  0.00  0.00    +0.000 S 
ATOM      8  C   UNL     1       2.657   6.623  19.169  0.00  0.00    +0.000 A 
ATOM      9  C   UNL     1       3.606   6.012  18.286  0.00  0.00    +0.000 A 
ATOM     10  C   UNL     1       2.299   2.662  19.582  0.00  0.00    +0.000 C 
ENDROOT
BRANCH   9  11
ATOM     11  C   UNL     1       4.624   6.683  17.381  0.00  0.00    +0.000 C 
ATOM     12  N   UNL     1       5.942   6.830  17.670  0.00  0.00    +0.000 N 
ATOM     13  O   UNL     1       4.259   7.091  16.290  0.00  0.00    +0.000 OA
ATOM     14  H   UNL     1       6.395   6.468  18.505  0.00  0.00    +0.000 HD
ATOM     15  H   UNL     1       6.563   7.293  16.987  0.00  0.00    +0.000 HD
ENDBRANCH   9  11
BRANCH   8  16
ATOM     16  N   UNL     1       2.398   8.021  19.372  0.00  0.00    +0.000 N 
ATOM     17  C   UNL     1       1.820   8.843  18.442  0.00  0.00    +0.000 C 
ATOM     18  O   UNL     1       1.468   8.417  17.353  0.00  0.00    +0.000 OA
ATOM     19  H   UNL     1       2.683   8.462  20.247  0.00  0.00    +0.000 HD
BRANCH  17  20
ATOM     20  C   UNL     1       1.575  10.300  18.746  0.00  0.00    +0.000 C 
BRANCH  20  21
ATOM     21  S   UNL     1      -0.076  10.572  19.475  0.00  0.00    +0.000 S 
ATOM     22  O   UNL     1      -0.303   9.594  20.637  0.00  0.00    +0.000 OA
ATOM     23  O   UNL     1       0.028  11.867  20.294  0.00  0.00    +0.000 OA
BRANCH  21  24
ATOM     24  C   UNL     1      -1.598  10.730  18.531  0.00  0.00    +0.000 A 
ATOM     25  C   UNL     1      -1.808   9.981  17.365  0.00  0.00    +0.000 A 
ATOM     26  C   UNL     1      -3.003  10.129  16.646  0.00  0.00    +0.000 A 
ATOM     27  C   UNL     1      -3.986  11.023  17.089  0.00  0.00    +0.000 A 
ATOM     28  F   UNL     1      -5.138  11.164  16.391  0.00  0.00    +0.000 F 
ATOM     29  C   UNL     1      -3.772  11.771  18.252  0.00  0.00    +0.000 A 
ATOM     30  C   UNL     1      -2.583  11.622  18.971  0.00  0.00    +0.000 A 
ENDBRANCH  21  24
ENDBRANCH  20  21
ENDBRANCH  17  20
ENDBRANCH   8  16
TORSDOF 5
ENDMDL
MODEL 8
REMARK VINA RESULT:      -6.4      4.307      7.947
REMARK  Name = 
REMARK  6 active torsions:
REMARK  status: ('A' for Active; 'I' for Inactive)
REMARK    1  A    between atoms: C_1  and  N_2
REMARK    2  A    between atoms: C_8  and  N_9
REMARK    3  A    between atoms: C_10  and  C_12
REMARK    4  A    between atoms: C_12  and  S_13
REMARK    5  A    between atoms: S_13  and  C_16
REMARK    6  A    between atoms: C_23  and  C_24
REMARK                            x       y       z     vdW  Elec       q    Type
REMARK                         _______ _______ _______ _____ _____    ______ ____
ROOT
ATOM      1  C   UNL     1       1.466   3.602  18.251  0.00  0.00    +0.000 C 
ATOM      2  N   UNL     1       2.764   4.197  18.612  0.00  0.00    +0.000 NA
ATOM      3  C   UNL     1       2.929   4.426  20.060  0.00  0.00    +0.000 C 
ATOM      4  C   UNL     1       2.059   5.577  20.611  0.00  0.00    +0.000 C 
ATOM      5  C   UNL     1       2.102   6.802  19.723  0.00  0.00    +0.000 A 
ATOM      6  C   UNL     1       2.599   6.675  18.434  0.00  0.00    +0.000 A 
ATOM      7  S   UNL     1       2.520   8.147  17.669  0.00  0.00    +0.000 S 
ATOM      8  C   UNL     1       1.814   9.011  18.941  0.00  0.00    +0.000 A 
ATOM      9  C   UNL     1       1.621   8.120  20.047  0.00  0.00    +0.000 A 
ATOM     10  C   UNL     1       3.090   5.396  17.805  0.00  0.00    +0.000 C 
ENDROOT
BRANCH   9  11
ATOM     11  C   UNL     1       1.002   8.415  21.402  0.00  0.00    +0.000 C 
ATOM     12  N   UNL     1       1.660   8.970  22.452  0.00  0.00    +0.000 N 
ATOM     13  O   UNL     1      -0.185   8.183  21.566  0.00  0.00    +0.000 OA
ATOM     14  H   UNL     1       2.626   9.284  22.428  0.00  0.00    +0.000 HD
ATOM     15  H   UNL     1       1.152   9.143  23.334  0.00  0.00    +0.000 HD
ENDBRANCH   9  11
BRANCH   8  16
ATOM     16  N   UNL     1       1.520  10.415  18.863  0.00  0.00    +0.000 N 
ATOM     17  C   UNL     1       0.257  10.938  18.804  0.00  0.00    +0.000 C 
ATOM     18  O   UNL     1      -0.729  10.216  18.827  0.00  0.00    +0.000 OA
ATOM     19  H   UNL     1       2.288  11.086  18.815  0.00  0.00    +0.000 HD
BRANCH  17  20
ATOM     20  C   UNL     1       0.041  12.429  18.735  0.00  0.00    +0.000 C 
BRANCH  20  21
ATOM     21  S   UNL     1       1.030  13.315  19.988  0.00  0.00    +0.000 S 
ATOM     22  O   UNL     1       0.152  14.349  20.710  0.00  0.00    +0.000 OA
ATOM     23  O   UNL     1       1.219  12.334  21.153  0.00  0.00    +0.000 OA
BRANCH  21  24
ATOM     24  C   UNL     1       2.656  14.023  19.695  0.00  0.00    +0.000 A 
ATOM     25  C   UNL     1       3.448  14.482  20.756  0.00  0.00    +0.000 A 
ATOM     26  C   UNL     1       4.710  15.034  20.497  0.00  0.00    +0.000 A 
ATOM     27  C   UNL     1       5.181  15.130  19.182  0.00  0.00    +0.000 A 
ATOM     28  F   UNL     1       6.401  15.666  18.935  0.00  0.00    +0.000 F 
ATOM     29  C   UNL     1       4.386  14.674  18.124  0.00  0.00    +0.000 A 
ATOM     30  C   UNL     1       3.130  14.120  18.381  0.00  0.00    +0.000 A 
ENDBRANCH  21  24
ENDBRANCH  20  21
ENDBRANCH  17  20
ENDBRANCH   8  16
TORSDOF 5
ENDMDL
MODEL 9
REMARK VINA RESULT:      -6.4      3.641      7.847
REMARK  Name = 
REMARK  6 active torsions:
REMARK  status: ('A' for Active; 'I' for Inactive)
REMARK    1  A    between atoms: C_1  and  N_2
REMARK    2  A    between atoms: C_8  and  N_9
REMARK    3  A    between atoms: C_10  and  C_12
REMARK    4  A    between atoms: C_12  and  S_13
REMARK    5  A    between atoms: S_13  and  C_16
REMARK    6  A    between atoms: C_23  and  C_24
REMARK                            x       y       z     vdW  Elec       q    Type
REMARK                         _______ _______ _______ _____ _____    ______ ____
ROOT
ATOM      1  C   UNL     1       5.373   4.759  15.059  0.00  0.00    +0.000 C 
ATOM      2  N   UNL     1       5.998   5.342  16.259  0.00  0.00    +0.000 NA
ATOM      3  C   UNL     1       5.913   4.477  17.451  0.00  0.00    +0.000 C 
ATOM      4  C   UNL     1       4.490   4.369  18.041  0.00  0.00    +0.000 C 
ATOM      5  C   UNL     1       3.804   5.714  18.132  0.00  0.00    +0.000 A 
ATOM      6  C   UNL     1       4.334   6.782  17.424  0.00  0.00    +0.000 A 
ATOM      7  S   UNL     1       3.393   8.128  17.676  0.00  0.00    +0.000 S 
ATOM      8  C   UNL     1       2.242   7.398  18.678  0.00  0.00    +0.000 A 
ATOM      9  C   UNL     1       2.592   6.019  18.848  0.00  0.00    +0.000 A 
ATOM     10  C   UNL     1       5.545   6.728  16.528  0.00  0.00    +0.000 C 
ENDROOT
BRANCH   9  11
ATOM     11  C   UNL     1       1.858   4.947  19.634  0.00  0.00    +0.000 C 
ATOM     12  N   UNL     1       1.363   3.799  19.105  0.00  0.00    +0.000 N 
ATOM     13  O   UNL     1       1.729   5.090  20.839  0.00  0.00    +0.000 OA
ATOM     14  H   UNL     1       1.468   3.517  18.134  0.00  0.00    +0.000 HD
ATOM     15  H   UNL     1       0.885   3.122  19.720  0.00  0.00    +0.000 HD
ENDBRANCH   9  11
BRANCH   8  16
ATOM     16  N   UNL     1       1.142   8.119  19.257  0.00  0.00    +0.000 N 
ATOM     17  C   UNL     1       1.108   8.570  20.549  0.00  0.00    +0.000 C 
ATOM     18  O   UNL     1       2.049   8.390  21.307  0.00  0.00    +0.000 OA
ATOM     19  H   UNL     1       0.305   8.290  18.698  0.00  0.00    +0.000 HD
BRANCH  17  20
ATOM     20  C   UNL     1      -0.087   9.328  21.070  0.00  0.00    +0.000 C 
BRANCH  20  21
ATOM     21  S   UNL     1      -0.486  10.767  20.021  0.00  0.00    +0.000 S 
ATOM     22  O   UNL     1      -0.730  12.004  20.899  0.00  0.00    +0.000 OA
ATOM     23  O   UNL     1       0.838  11.209  19.381  0.00  0.00    +0.000 OA
BRANCH  21  24
ATOM     24  C   UNL     1      -1.681  10.754  18.677  0.00  0.00    +0.000 A 
ATOM     25  C   UNL     1      -1.502   9.932  17.556  0.00  0.00    +0.000 A 
ATOM     26  C   UNL     1      -2.447   9.946  16.522  0.00  0.00    +0.000 A 
ATOM     27  C   UNL     1      -3.569  10.781  16.603  0.00  0.00    +0.000 A 
ATOM     28  F   UNL     1      -4.480  10.793  15.601  0.00  0.00    +0.000 F 
ATOM     29  C   UNL     1      -3.743  11.603  17.722  0.00  0.00    +0.000 A 
ATOM     30  C   UNL     1      -2.804  11.587  18.756  0.00  0.00    +0.000 A 
ENDBRANCH  21  24
ENDBRANCH  20  21
ENDBRANCH  17  20
ENDBRANCH   8  16
TORSDOF 5
ENDMDL
