MODEL 1
REMARK VINA RESULT:      -7.6      0.000      0.000
REMARK  Name = 
REMARK  4 active torsions:
REMARK  status: ('A' for Active; 'I' for Inactive)
REMARK    1  A    between atoms: C_1  and  C_2
REMARK    2  A    between atoms: C_2  and  O_3
REMARK    3  A    between atoms: O_3  and  C_4
REMARK    4  A    between atoms: C_9  and  C_10
REMARK                            x       y       z     vdW  Elec       q    Type
REMARK                         _______ _______ _______ _____ _____    ______ ____
ROOT
ATOM      1  C   UNL     1       2.600   7.428  18.467  0.00  0.00    +0.000 A 
ATOM      2  C   UNL     1       2.147   8.502  17.708  0.00  0.00    +0.000 A 
ATOM      3  N   UNL     1       1.371   9.525  18.185  0.00  0.00    +0.000 NA
ATOM      4  C   UNL     1       0.991   9.506  19.487  0.00  0.00    +0.000 A 
ATOM      5  C   UNL     1       1.387   8.459  20.316  0.00  0.00    +0.000 A 
ATOM      6  C   UNL     1       2.195   7.440  19.796  0.00  0.00    +0.000 A 
ATOM      7  C   UNL     1       1.100   8.417  21.780  0.00  0.00    +0.000 C 
ATOM      8  C   UNL     1      -0.113   9.214  22.180  0.00  0.00    +0.000 C 
ATOM      9  C   UNL     1      -0.368  10.461  21.355  0.00  0.00    +0.000 C 
ATOM     10  N   UNL     1       0.190  10.561  20.014  0.00  0.00    +0.000 N 
ATOM     11  C   UNL     1      -0.137  11.747  19.361  0.00  0.00    +0.000 C 
ATOM     12  N   UNL     1       0.416  11.951  18.138  0.00  0.00    +0.000 N 
ATOM     13  O   UNL     1      -0.867  12.608  19.840  0.00  0.00    +0.000 OA
ATOM     14  H   UNL     1       0.219  11.148  17.549  0.00  0.00    +0.000 HD
ATOM     15  H   UNL     1       1.428  11.878  18.203  0.00  0.00    +0.000 HD
ENDROOT
BRANCH   1  21
ATOM     16  C   UNL     1       2.920   5.006  17.758  0.00  0.00    +0.000 A 
ATOM     17  C   UNL     1       3.723   4.035  17.156  0.00  0.00    +0.000 A 
ATOM     18  C   UNL     1       5.008   4.378  16.780  0.00  0.00    +0.000 A 
ATOM     19  N   UNL     1       5.538   5.602  16.964  0.00  0.00    +0.000 NA
ATOM     20  C   UNL     1       4.738   6.533  17.538  0.00  0.00    +0.000 A 
ATOM     21  C   UNL     1       3.424   6.311  17.959  0.00  0.00    +0.000 A 
BRANCH  16  22
ATOM     22  O   UNL     1       1.624   4.778  18.162  0.00  0.00    +0.000 OA
BRANCH  22  24
ATOM     23  C   UNL     1       1.001   3.961  20.318  0.00  0.00    +0.000 C 
ATOM     24  C   UNL     1       1.353   3.580  18.891  0.00  0.00    +0.000 C 
ENDBRANCH  22  24
ENDBRANCH  16  22
ENDBRANCH   1  21
TORSDOF 3
ENDMDL
MODEL 2
REMARK VINA RESULT:      -7.4      2.046      3.360
REMARK  Name = 
REMARK  4 active torsions:
REMARK  status: ('A' for Active; 'I' for Inactive)
REMARK    1  A    between atoms: C_1  and  C_2
REMARK    2  A    between atoms: C_2  and  O_3
REMARK    3  A    between atoms: O_3  and  C_4
REMARK    4  A    between atoms: C_9  and  C_10
REMARK                            x       y       z     vdW  Elec       q    Type
REMARK                         _______ _______ _______ _____ _____    ______ ____
ROOT
ATOM      1  C   UNL     1       2.208   6.239  19.163  0.00  0.00    +0.000 A 
ATOM      2  C   UNL     1       1.780   6.464  20.468  0.00  0.00    +0.000 A 
ATOM      3  N   UNL     1       1.365   7.674  20.957  0.00  0.00    +0.000 NA
ATOM      4  C   UNL     1       1.376   8.752  20.133  0.00  0.00    +0.000 A 
ATOM      5  C   UNL     1       1.804   8.620  18.815  0.00  0.00    +0.000 A 
ATOM      6  C   UNL     1       2.204   7.363  18.346  0.00  0.00    +0.000 A 
ATOM      7  C   UNL     1       1.747   9.729  17.818  0.00  0.00    +0.000 C 
ATOM      8  C   UNL     1       1.784  11.100  18.439  0.00  0.00    +0.000 C 
ATOM      9  C   UNL     1       1.115  11.214  19.796  0.00  0.00    +0.000 C 
ATOM     10  N   UNL     1       0.942  10.022  20.613  0.00  0.00    +0.000 N 
ATOM     11  C   UNL     1       0.332  10.272  21.840  0.00  0.00    +0.000 C 
ATOM     12  N   UNL     1       0.060   9.196  22.624  0.00  0.00    +0.000 N 
ATOM     13  O   UNL     1       0.016  11.391  22.227  0.00  0.00    +0.000 OA
ATOM     14  H   UNL     1       0.909   8.654  22.745  0.00  0.00    +0.000 HD
ATOM     15  H   UNL     1      -0.503   8.529  22.104  0.00  0.00    +0.000 HD
ENDROOT
BRANCH   1  21
ATOM     16  C   UNL     1       3.980   4.445  18.832  0.00  0.00    +0.000 A 
ATOM     17  C   UNL     1       4.308   3.156  18.407  0.00  0.00    +0.000 A 
ATOM     18  C   UNL     1       3.338   2.397  17.779  0.00  0.00    +0.000 A 
ATOM     19  N   UNL     1       2.084   2.833  17.549  0.00  0.00    +0.000 NA
ATOM     20  C   UNL     1       1.783   4.081  17.982  0.00  0.00    +0.000 A 
ATOM     21  C   UNL     1       2.673   4.942  18.629  0.00  0.00    +0.000 A 
BRANCH  16  22
ATOM     22  O   UNL     1       4.864   5.281  19.475  0.00  0.00    +0.000 OA
BRANCH  22  24
ATOM     23  C   UNL     1       6.038   6.367  17.701  0.00  0.00    +0.000 C 
ATOM     24  C   UNL     1       6.162   5.448  18.903  0.00  0.00    +0.000 C 
ENDBRANCH  22  24
ENDBRANCH  16  22
ENDBRANCH   1  21
TORSDOF 3
ENDMDL
MODEL 3
REMARK VINA RESULT:      -7.4      1.795      2.562
REMARK  Name = 
REMARK  4 active torsions:
REMARK  status: ('A' for Active; 'I' for Inactive)
REMARK    1  A    between atoms: C_1  and  C_2
REMARK    2  A    between atoms: C_2  and  O_3
REMARK    3  A    between atoms: O_3  and  C_4
REMARK    4  A    between atoms: C_9  and  C_10
REMARK                            x       y       z     vdW  Elec       q    Type
REMARK                         _______ _______ _______ _____ _____    ______ ____
ROOT
ATOM      1  C   UNL     1       2.396   6.591  18.703  0.00  0.00    +0.000 A 
ATOM      2  C   UNL     1       2.459   7.655  17.808  0.00  0.00    +0.000 A 
ATOM      3  N   UNL     1       2.093   8.943  18.096  0.00  0.00    +0.000 NA
ATOM      4  C   UNL     1       1.617   9.226  19.335  0.00  0.00    +0.000 A 
ATOM      5  C   UNL     1       1.505   8.218  20.289  0.00  0.00    +0.000 A 
ATOM      6  C   UNL     1       1.907   6.917  19.962  0.00  0.00    +0.000 A 
ATOM      7  C   UNL     1       1.092   8.465  21.702  0.00  0.00    +0.000 C 
ATOM      8  C   UNL     1       0.245   9.698  21.874  0.00  0.00    +0.000 C 
ATOM      9  C   UNL     1       0.562  10.839  20.926  0.00  0.00    +0.000 C 
ATOM     10  N   UNL     1       1.236  10.559  19.666  0.00  0.00    +0.000 N 
ATOM     11  C   UNL     1       1.448  11.692  18.884  0.00  0.00    +0.000 C 
ATOM     12  N   UNL     1       2.146  11.524  17.731  0.00  0.00    +0.000 N 
ATOM     13  O   UNL     1       1.062  12.814  19.193  0.00  0.00    +0.000 OA
ATOM     14  H   UNL     1       1.712  10.785  17.188  0.00  0.00    +0.000 HD
ATOM     15  H   UNL     1       3.042  11.090  17.935  0.00  0.00    +0.000 HD
ENDROOT
BRANCH   1  21
ATOM     16  C   UNL     1       3.985   4.609  18.825  0.00  0.00    +0.000 A 
ATOM     17  C   UNL     1       4.216   3.250  18.608  0.00  0.00    +0.000 A 
ATOM     18  C   UNL     1       3.245   2.507  17.962  0.00  0.00    +0.000 A 
ATOM     19  N   UNL     1       2.080   3.023  17.523  0.00  0.00    +0.000 NA
ATOM     20  C   UNL     1       1.872   4.341  17.756  0.00  0.00    +0.000 A 
ATOM     21  C   UNL     1       2.772   5.196  18.398  0.00  0.00    +0.000 A 
BRANCH  16  22
ATOM     22  O   UNL     1       4.878   5.439  19.465  0.00  0.00    +0.000 OA
BRANCH  22  24
ATOM     23  C   UNL     1       6.413   6.214  17.808  0.00  0.00    +0.000 C 
ATOM     24  C   UNL     1       6.248   5.382  19.066  0.00  0.00    +0.000 C 
ENDBRANCH  22  24
ENDBRANCH  16  22
ENDBRANCH   1  21
TORSDOF 3
ENDMDL
MODEL 4
REMARK VINA RESULT:      -7.3      1.554      2.437
REMARK  Name = 
REMARK  4 active torsions:
REMARK  status: ('A' for Active; 'I' for Inactive)
REMARK    1  A    between atoms: C_1  and  C_2
REMARK    2  A    between atoms: C_2  and  O_3
REMARK    3  A    between atoms: O_3  and  C_4
REMARK    4  A    between atoms: C_9  and  C_10
REMARK                            x       y       z     vdW  Elec       q    Type
REMARK                         _______ _______ _______ _____ _____    ______ ____
ROOT
ATOM      1  C   UNL     1       2.283   6.946  19.173  0.00  0.00    +0.000 A 
ATOM      2  C   UNL     1       1.894   6.913  20.508  0.00  0.00    +0.000 A 
ATOM      3  N   UNL     1       1.312   7.955  21.180  0.00  0.00    +0.000 NA
ATOM      4  C   UNL     1       1.101   9.122  20.521  0.00  0.00    +0.000 A 
ATOM      5  C   UNL     1       1.476   9.249  19.185  0.00  0.00    +0.000 A 
ATOM      6  C   UNL     1       2.052   8.154  18.528  0.00  0.00    +0.000 A 
ATOM      7  C   UNL     1       1.185  10.459  18.361  0.00  0.00    +0.000 C 
ATOM      8  C   UNL     1       1.028  11.717  19.173  0.00  0.00    +0.000 C 
ATOM      9  C   UNL     1       0.422  11.527  20.550  0.00  0.00    +0.000 C 
ATOM     10  N   UNL     1       0.490  10.222  21.191  0.00  0.00    +0.000 N 
ATOM     11  C   UNL     1      -0.087  10.193  22.458  0.00  0.00    +0.000 C 
ATOM     12  N   UNL     1      -0.137   8.989  23.086  0.00  0.00    +0.000 N 
ATOM     13  O   UNL     1      -0.563  11.178  23.012  0.00  0.00    +0.000 OA
ATOM     14  H   UNL     1       0.795   8.587  23.103  0.00  0.00    +0.000 HD
ATOM     15  H   UNL     1      -0.609   8.313  22.491  0.00  0.00    +0.000 HD
ENDROOT
BRANCH   1  21
ATOM     16  C   UNL     1       2.345   4.552  18.317  0.00  0.00    +0.000 A 
ATOM     17  C   UNL     1       2.951   3.590  17.507  0.00  0.00    +0.000 A 
ATOM     18  C   UNL     1       4.124   3.917  16.853  0.00  0.00    +0.000 A 
ATOM     19  N   UNL     1       4.725   5.118  16.955  0.00  0.00    +0.000 NA
ATOM     20  C   UNL     1       4.113   6.041  17.735  0.00  0.00    +0.000 A 
ATOM     21  C   UNL     1       2.927   5.834  18.444  0.00  0.00    +0.000 A 
BRANCH  16  22
ATOM     22  O   UNL     1       1.172   4.338  19.004  0.00  0.00    +0.000 OA
BRANCH  22  24
ATOM     23  C   UNL     1       1.391   3.183  21.083  0.00  0.00    +0.000 C 
ATOM     24  C   UNL     1       0.984   3.066  19.625  0.00  0.00    +0.000 C 
ENDBRANCH  22  24
ENDBRANCH  16  22
ENDBRANCH   1  21
TORSDOF 3
ENDMDL
MODEL 5
REMARK VINA RESULT:      -7.1      4.064      6.000
REMARK  Name = 
REMARK  4 active torsions:
REMARK  status: ('A' for Active; 'I' for Inactive)
REMARK    1  A    between atoms: C_1  and  C_2
REMARK    2  A    between atoms: C_2  and  O_3
REMARK    3  A    between atoms: O_3  and  C_4
REMARK    4  A    between atoms: C_9  and  C_10
REMARK                            x       y       z     vdW  Elec       q    Type
REMARK                         _______ _______ _______ _____ _____    ______ ____
ROOT
ATOM      1  C   UNL     1       4.697   4.428  16.467  0.00  0.00    +0.000 A 
ATOM      2  C   UNL     1       4.382   3.252  17.139  0.00  0.00    +0.000 A 
ATOM      3  N   UNL     1       3.581   3.174  18.247  0.00  0.00    +0.000 NA
ATOM      4  C   UNL     1       3.053   4.316  18.755  0.00  0.00    +0.000 A 
ATOM      5  C   UNL     1       3.329   5.542  18.153  0.00  0.00    +0.000 A 
ATOM      6  C   UNL     1       4.139   5.578  17.011  0.00  0.00    +0.000 A 
ATOM      7  C   UNL     1       2.706   6.828  18.584  0.00  0.00    +0.000 C 
ATOM      8  C   UNL     1       2.267   6.831  20.024  0.00  0.00    +0.000 C 
ATOM      9  C   UNL     1       1.784   5.495  20.556  0.00  0.00    +0.000 C 
ATOM     10  N   UNL     1       2.209   4.266  19.902  0.00  0.00    +0.000 N 
ATOM     11  C   UNL     1       1.710   3.113  20.504  0.00  0.00    +0.000 C 
ATOM     12  N   UNL     1       1.994   1.930  19.901  0.00  0.00    +0.000 N 
ATOM     13  O   UNL     1       1.021   3.119  21.518  0.00  0.00    +0.000 OA
ATOM     14  H   UNL     1       2.997   1.862  19.765  0.00  0.00    +0.000 HD
ATOM     15  H   UNL     1       1.686   1.958  18.932  0.00  0.00    +0.000 HD
ENDROOT
BRANCH   1  21
ATOM     16  C   UNL     1       6.872   5.081  15.321  0.00  0.00    +0.000 A 
ATOM     17  C   UNL     1       7.689   5.023  14.190  0.00  0.00    +0.000 A 
ATOM     18  C   UNL     1       7.195   4.427  13.045  0.00  0.00    +0.000 A 
ATOM     19  N   UNL     1       5.960   3.898  12.953  0.00  0.00    +0.000 NA
ATOM     20  C   UNL     1       5.189   3.953  14.066  0.00  0.00    +0.000 A 
ATOM     21  C   UNL     1       5.573   4.525  15.281  0.00  0.00    +0.000 A 
BRANCH  16  22
ATOM     22  O   UNL     1       7.266   5.641  16.515  0.00  0.00    +0.000 OA
BRANCH  22  24
ATOM     23  C   UNL     1       7.638   5.515  18.871  0.00  0.00    +0.000 C 
ATOM     24  C   UNL     1       7.702   4.763  17.554  0.00  0.00    +0.000 C 
ENDBRANCH  22  24
ENDBRANCH  16  22
ENDBRANCH   1  21
TORSDOF 3
ENDMDL
MODEL 6
REMARK VINA RESULT:      -7.0      2.164      6.798
REMARK  Name = 
REMARK  4 active torsions:
REMARK  status: ('A' for Active; 'I' for Inactive)
REMARK    1  A    between atoms: C_1  and  C_2
REMARK    2  A    between atoms: C_2  and  O_3
REMARK    3  A    between atoms: O_3  and  C_4
REMARK    4  A    between atoms: C_9  and  C_10
REMARK                            x       y       z     vdW  Elec       q    Type
REMARK                         _______ _______ _______ _____ _____    ______ ____
ROOT
ATOM      1  C   UNL     1       1.495   7.751  20.482  0.00  0.00    +0.000 A 
ATOM      2  C   UNL     1       2.405   7.829  19.433  0.00  0.00    +0.000 A 
ATOM      3  N   UNL     1       3.015   6.753  18.844  0.00  0.00    +0.000 NA
ATOM      4  C   UNL     1       2.739   5.509  19.310  0.00  0.00    +0.000 A 
ATOM      5  C   UNL     1       1.851   5.340  20.369  0.00  0.00    +0.000 A 
ATOM      6  C   UNL     1       1.233   6.464  20.933  0.00  0.00    +0.000 A 
ATOM      7  C   UNL     1       1.414   4.003  20.870  0.00  0.00    +0.000 C 
ATOM      8  C   UNL     1       2.407   2.905  20.599  0.00  0.00    +0.000 C 
ATOM      9  C   UNL     1       3.201   3.053  19.315  0.00  0.00    +0.000 C 
ATOM     10  N   UNL     1       3.352   4.370  18.713  0.00  0.00    +0.000 N 
ATOM     11  C   UNL     1       4.120   4.366  17.550  0.00  0.00    +0.000 C 
ATOM     12  N   UNL     1       4.237   5.543  16.884  0.00  0.00    +0.000 N 
ATOM     13  O   UNL     1       4.665   3.364  17.098  0.00  0.00    +0.000 OA
ATOM     14  H   UNL     1       4.561   6.257  17.529  0.00  0.00    +0.000 HD
ATOM     15  H   UNL     1       3.312   5.907  16.669  0.00  0.00    +0.000 HD
ENDROOT
BRANCH   1  21
ATOM     16  C   UNL     1       0.044   9.840  20.437  0.00  0.00    +0.000 A 
ATOM     17  C   UNL     1      -0.642  10.832  21.141  0.00  0.00    +0.000 A 
ATOM     18  C   UNL     1      -0.509  10.881  22.517  0.00  0.00    +0.000 A 
ATOM     19  N   UNL     1       0.253  10.024  23.223  0.00  0.00    +0.000 NA
ATOM     20  C   UNL     1       0.899   9.062  22.522  0.00  0.00    +0.000 A 
ATOM     21  C   UNL     1       0.844   8.906  21.134  0.00  0.00    +0.000 A 
BRANCH  16  22
ATOM     22  O   UNL     1      -0.025   9.692  19.071  0.00  0.00    +0.000 OA
BRANCH  22  24
ATOM     23  C   UNL     1      -1.808  10.037  17.520  0.00  0.00    +0.000 C 
ATOM     24  C   UNL     1      -0.704  10.702  18.323  0.00  0.00    +0.000 C 
ENDBRANCH  22  24
ENDBRANCH  16  22
ENDBRANCH   1  21
TORSDOF 3
ENDMDL
MODEL 7
REMARK VINA RESULT:      -7.0      1.690      2.563
REMARK  Name = 
REMARK  4 active torsions:
REMARK  status: ('A' for Active; 'I' for Inactive)
REMARK    1  A    between atoms: C_1  and  C_2
REMARK    2  A    between atoms: C_2  and  O_3
REMARK    3  A    between atoms: O_3  and  C_4
REMARK    4  A    between atoms: C_9  and  C_10
REMARK                            x       y       z     vdW  Elec       q    Type
REMARK                         _______ _______ _______ _____ _____    ______ ____
ROOT
ATOM      1  C   UNL     1       2.052   7.759  19.302  0.00  0.00    +0.000 A 
ATOM      2  C   UNL     1       1.824   7.722  20.674  0.00  0.00    +0.000 A 
ATOM      3  N   UNL     1       1.053   8.619  21.364  0.00  0.00    +0.000 NA
ATOM      4  C   UNL     1       0.469   9.638  20.685  0.00  0.00    +0.000 A 
ATOM      5  C   UNL     1       0.657   9.761  19.310  0.00  0.00    +0.000 A 
ATOM      6  C   UNL     1       1.438   8.813  18.637  0.00  0.00    +0.000 A 
ATOM      7  C   UNL     1      -0.033  10.787  18.475  0.00  0.00    +0.000 C 
ATOM      8  C   UNL     1      -0.441  12.015  19.245  0.00  0.00    +0.000 C 
ATOM      9  C   UNL     1      -0.829  11.774  20.691  0.00  0.00    +0.000 C 
ATOM     10  N   UNL     1      -0.345  10.583  21.374  0.00  0.00    +0.000 N 
ATOM     11  C   UNL     1      -0.760  10.495  22.701  0.00  0.00    +0.000 C 
ATOM     12  N   UNL     1      -0.419   9.370  23.381  0.00  0.00    +0.000 N 
ATOM     13  O   UNL     1      -1.426  11.357  23.264  0.00  0.00    +0.000 OA
ATOM     14  H   UNL     1       0.584   9.231  23.306  0.00  0.00    +0.000 HD
ATOM     15  H   UNL     1      -0.748   8.552  22.876  0.00  0.00    +0.000 HD
ENDROOT
BRANCH   1  21
ATOM     16  C   UNL     1       2.723   5.405  18.612  0.00  0.00    +0.000 A 
ATOM     17  C   UNL     1       3.472   4.573  17.778  0.00  0.00    +0.000 A 
ATOM     18  C   UNL     1       4.383   5.150  16.912  0.00  0.00    +0.000 A 
ATOM     19  N   UNL     1       4.594   6.478  16.828  0.00  0.00    +0.000 NA
ATOM     20  C   UNL     1       3.846   7.267  17.637  0.00  0.00    +0.000 A 
ATOM     21  C   UNL     1       2.895   6.806  18.551  0.00  0.00    +0.000 A 
BRANCH  16  22
ATOM     22  O   UNL     1       1.783   4.938  19.503  0.00  0.00    +0.000 OA
BRANCH  22  24
ATOM     23  C   UNL     1       1.239   3.009  20.801  0.00  0.00    +0.000 C 
ATOM     24  C   UNL     1       2.236   4.135  20.594  0.00  0.00    +0.000 C 
ENDBRANCH  22  24
ENDBRANCH  16  22
ENDBRANCH   1  21
TORSDOF 3
ENDMDL
MODEL 8
REMARK VINA RESULT:      -7.0      1.694      2.735
REMARK  Name = 
REMARK  4 active torsions:
REMARK  status: ('A' for Active; 'I' for Inactive)
REMARK    1  A    between atoms: C_1  and  C_2
REMARK    2  A    between atoms: C_2  and  O_3
REMARK    3  A    between atoms: O_3  and  C_4
REMARK    4  A    between atoms: C_9  and  C_10
REMARK                            x       y       z     vdW  Elec       q    Type
REMARK                         _______ _______ _______ _____ _____    ______ ____
ROOT
ATOM      1  C   UNL     1       2.548   7.257  18.305  0.00  0.00    +0.000 A 
ATOM      2  C   UNL     1       2.601   8.380  17.485  0.00  0.00    +0.000 A 
ATOM      3  N   UNL     1       2.166   9.629  17.840  0.00  0.00    +0.000 NA
ATOM      4  C   UNL     1       1.626   9.809  19.071  0.00  0.00    +0.000 A 
ATOM      5  C   UNL     1       1.519   8.735  19.952  0.00  0.00    +0.000 A 
ATOM      6  C   UNL     1       1.993   7.476  19.559  0.00  0.00    +0.000 A 
ATOM      7  C   UNL     1       1.037   8.870  21.358  0.00  0.00    +0.000 C 
ATOM      8  C   UNL     1       0.129  10.051  21.572  0.00  0.00    +0.000 C 
ATOM      9  C   UNL     1       0.434  11.265  20.715  0.00  0.00    +0.000 C 
ATOM     10  N   UNL     1       1.172  11.099  19.471  0.00  0.00    +0.000 N 
ATOM     11  C   UNL     1       1.365  12.290  18.775  0.00  0.00    +0.000 C 
ATOM     12  N   UNL     1       2.118  12.229  17.646  0.00  0.00    +0.000 N 
ATOM     13  O   UNL     1       0.917  13.371  19.139  0.00  0.00    +0.000 OA
ATOM     14  H   UNL     1       1.741  11.510  17.037  0.00  0.00    +0.000 HD
ATOM     15  H   UNL     1       3.024  11.820  17.861  0.00  0.00    +0.000 HD
ENDROOT
BRANCH   1  21
ATOM     16  C   UNL     1       4.351   5.580  17.667  0.00  0.00    +0.000 A 
ATOM     17  C   UNL     1       4.719   4.253  17.439  0.00  0.00    +0.000 A 
ATOM     18  C   UNL     1       3.738   3.279  17.463  0.00  0.00    +0.000 A 
ATOM     19  N   UNL     1       2.436   3.537  17.691  0.00  0.00    +0.000 NA
ATOM     20  C   UNL     1       2.103   4.830  17.922  0.00  0.00    +0.000 A 
ATOM     21  C   UNL     1       2.999   5.902  17.927  0.00  0.00    +0.000 A 
BRANCH  16  22
ATOM     22  O   UNL     1       5.245   6.626  17.676  0.00  0.00    +0.000 OA
BRANCH  22  24
ATOM     23  C   UNL     1       7.416   7.615  17.571  0.00  0.00    +0.000 C 
ATOM     24  C   UNL     1       6.639   6.314  17.655  0.00  0.00    +0.000 C 
ENDBRANCH  22  24
ENDBRANCH  16  22
ENDBRANCH   1  21
TORSDOF 3
ENDMDL
MODEL 9
REMARK VINA RESULT:      -7.0      1.973      2.821
REMARK  Name = 
REMARK  4 active torsions:
REMARK  status: ('A' for Active; 'I' for Inactive)
REMARK    1  A    between atoms: C_1  and  C_2
REMARK    2  A    between atoms: C_2  and  O_3
REMARK    3  A    between atoms: O_3  and  C_4
REMARK    4  A    between atoms: C_9  and  C_10
REMARK                            x       y       z     vdW  Elec       q    Type
REMARK                         _______ _______ _______ _____ _____    ______ ____
ROOT
ATOM      1  C   UNL     1       2.121   6.523  19.649  0.00  0.00    +0.000 A 
ATOM      2  C   UNL     1       2.264   7.404  18.582  0.00  0.00    +0.000 A 
ATOM      3  N   UNL     1       1.927   8.731  18.612  0.00  0.00    +0.000 NA
ATOM      4  C   UNL     1       1.400   9.247  19.751  0.00  0.00    +0.000 A 
ATOM      5  C   UNL     1       1.207   8.433  20.864  0.00  0.00    +0.000 A 
ATOM      6  C   UNL     1       1.581   7.084  20.800  0.00  0.00    +0.000 A 
ATOM      7  C   UNL     1       0.733   8.944  22.184  0.00  0.00    +0.000 C 
ATOM      8  C   UNL     1      -0.079  10.207  22.084  0.00  0.00    +0.000 C 
ATOM      9  C   UNL     1       0.322  11.148  20.964  0.00  0.00    +0.000 C 
ATOM     10  N   UNL     1       1.048  10.627  19.814  0.00  0.00    +0.000 N 
ATOM     11  C   UNL     1       1.336  11.593  18.853  0.00  0.00    +0.000 C 
ATOM     12  N   UNL     1       2.084  11.201  17.789  0.00  0.00    +0.000 N 
ATOM     13  O   UNL     1       0.972  12.761  18.932  0.00  0.00    +0.000 OA
ATOM     14  H   UNL     1       1.653  10.386  17.366  0.00  0.00    +0.000 HD
ATOM     15  H   UNL     1       2.954  10.790  18.117  0.00  0.00    +0.000 HD
ENDROOT
BRANCH   1  21
ATOM     16  C   UNL     1       3.794   4.610  19.554  0.00  0.00    +0.000 A 
ATOM     17  C   UNL     1       4.049   3.242  19.661  0.00  0.00    +0.000 A 
ATOM     18  C   UNL     1       2.981   2.379  19.821  0.00  0.00    +0.000 A 
ATOM     19  N   UNL     1       1.698   2.783  19.877  0.00  0.00    +0.000 NA
ATOM     20  C   UNL     1       1.474   4.116  19.784  0.00  0.00    +0.000 A 
ATOM     21  C   UNL     1       2.465   5.087  19.623  0.00  0.00    +0.000 A 
BRANCH  16  22
ATOM     22  O   UNL     1       4.781   5.558  19.403  0.00  0.00    +0.000 OA
BRANCH  22  24
ATOM     23  C   UNL     1       5.293   5.802  17.083  0.00  0.00    +0.000 C 
ATOM     24  C   UNL     1       5.797   5.315  18.429  0.00  0.00    +0.000 C 
ENDBRANCH  22  24
ENDBRANCH  16  22
ENDBRANCH   1  21
TORSDOF 3
ENDMDL
