MODEL 1
REMARK VINA RESULT:      -6.3      0.000      0.000
REMARK  Name = 
REMARK  17 active torsions:
REMARK  status: ('A' for Active; 'I' for Inactive)
REMARK    1  A    between atoms: C_1  and  C_2
REMARK    2  A    between atoms: C_2  and  O_3
REMARK    3  A    between atoms: O_3  and  C_4
REMARK    4  A    between atoms: C_4  and  C_6
REMARK    5  A    between atoms: C_7  and  C_8
REMARK    6  A    between atoms: C_9  and  C_10
REMARK    7  A    between atoms: N_16  and  C_17
REMARK    8  A    between atoms: C_17  and  C_18
REMARK    9  A    between atoms: N_20  and  C_21
REMARK   10  A    between atoms: C_21  and  C_22
REMARK   11  A    between atoms: C_22  and  C_23
REMARK   12  A    between atoms: C_23  and  N_24
REMARK   13  A    between atoms: N_24  and  C_25
REMARK   14  A    between atoms: N_24  and  C_27
REMARK   15  A    between atoms: C_25  and  C_26
REMARK   16  A    between atoms: C_27  and  C_28
REMARK   17  A    between atoms: C_29  and  C_30
REMARK                            x       y       z     vdW  Elec       q    Type
REMARK                         _______ _______ _______ _____ _____    ______ ____
ROOT
ATOM      1  C   UNL     1       5.423   4.626  16.590  0.00  0.00    +0.000 A 
ATOM      2  C   UNL     1       4.512   3.720  17.231  0.00  0.00    +0.000 A 
ATOM      3  C   UNL     1       4.197   2.338  16.738  0.00  0.00    +0.000 C 
ATOM      4  C   UNL     1       3.949   4.352  18.353  0.00  0.00    +0.000 A 
ATOM      5  N   UNL     1       4.485   5.645  18.373  0.00  0.00    +0.000 N 
ATOM      6  C   UNL     1       5.396   5.804  17.335  0.00  0.00    +0.000 A 
ATOM      7  C   UNL     1       6.183   7.047  17.070  0.00  0.00    +0.000 C 
ENDROOT
BRANCH   4   8
ATOM      8  C   UNL     1       2.999   3.761  19.349  0.00  0.00    +0.000 A 
ATOM      9  C   UNL     1       1.632   3.648  19.037  0.00  0.00    +0.000 A 
ATOM     10  C   UNL     1       0.696   3.128  19.941  0.00  0.00    +0.000 A 
ATOM     11  C   UNL     1       1.116   2.634  21.168  0.00  0.00    +0.000 A 
ATOM     12  C   UNL     1       2.459   2.721  21.505  0.00  0.00    +0.000 A 
ATOM     13  C   UNL     1       3.372   3.324  20.628  0.00  0.00    +0.000 A 
ENDBRANCH   4   8
BRANCH   1  14
ATOM     14  C   UNL     1       6.212   4.441  15.364  0.00  0.00    +0.000 C 
ATOM     15  O   UNL     1       7.436   4.468  15.325  0.00  0.00    +0.000 OA
BRANCH  14  16
ATOM     16  O   UNL     1       5.415   4.279  14.258  0.00  0.00    +0.000 OA
BRANCH  16  18
ATOM     17  C   UNL     1       4.985   3.383  12.045  0.00  0.00    +0.000 C 
ATOM     18  C   UNL     1       6.018   3.646  13.124  0.00  0.00    +0.000 C 
ENDBRANCH  16  18
ENDBRANCH  14  16
ENDBRANCH   1  14
BRANCH   5  19
ATOM     19  C   UNL     1       4.132   6.744  19.274  0.00  0.00    +0.000 C 
BRANCH  19  20
ATOM     20  C   UNL     1       2.750   7.315  19.048  0.00  0.00    +0.000 C 
ATOM     21  O   UNL     1       1.761   6.959  19.677  0.00  0.00    +0.000 OA
ATOM     22  N   UNL     1       2.693   8.248  18.028  0.00  0.00    +0.000 N 
ATOM     23  H   UNL     1       3.541   8.567  17.586  0.00  0.00    +0.000 HD
BRANCH  22  24
ATOM     24  C   UNL     1       1.496   8.996  17.715  0.00  0.00    +0.000 C 
BRANCH  24  25
ATOM     25  C   UNL     1       1.372  10.270  18.547  0.00  0.00    +0.000 C 
BRANCH  25  26
ATOM     26  C   UNL     1       0.280  10.209  19.628  0.00  0.00    +0.000 C 
BRANCH  26  27
ATOM     27  N   UNL     1       0.696  10.594  20.996  0.00  0.00    +0.000 NA
BRANCH  27  28
ATOM     28  C   UNL     1      -0.081  11.721  21.543  0.00  0.00    +0.000 C 
ATOM     29  C   UNL     1       0.083  13.067  20.840  0.00  0.00    +0.000 C 
ENDBRANCH  27  28
BRANCH  27  30
ATOM     30  C   UNL     1       0.687   9.399  21.864  0.00  0.00    +0.000 C 
ATOM     31  C   UNL     1      -0.083   9.564  23.171  0.00  0.00    +0.000 C 
ENDBRANCH  27  30
ENDBRANCH  26  27
ENDBRANCH  25  26
ENDBRANCH  24  25
ENDBRANCH  22  24
ENDBRANCH  19  20
ENDBRANCH   5  19
TORSDOF 12
ENDMDL
MODEL 2
REMARK VINA RESULT:      -6.3      1.372      2.110
REMARK  Name = 
REMARK  17 active torsions:
REMARK  status: ('A' for Active; 'I' for Inactive)
REMARK    1  A    between atoms: C_1  and  C_2
REMARK    2  A    between atoms: C_2  and  O_3
REMARK    3  A    between atoms: O_3  and  C_4
REMARK    4  A    between atoms: C_4  and  C_6
REMARK    5  A    between atoms: C_7  and  C_8
REMARK    6  A    between atoms: C_9  and  C_10
REMARK    7  A    between atoms: N_16  and  C_17
REMARK    8  A    between atoms: C_17  and  C_18
REMARK    9  A    between atoms: N_20  and  C_21
REMARK   10  A    between atoms: C_21  and  C_22
REMARK   11  A    between atoms: C_22  and  C_23
REMARK   12  A    between atoms: C_23  and  N_24
REMARK   13  A    between atoms: N_24  and  C_25
REMARK   14  A    between atoms: N_24  and  C_27
REMARK   15  A    between atoms: C_25  and  C_26
REMARK   16  A    between atoms: C_27  and  C_28
REMARK   17  A    between atoms: C_29  and  C_30
REMARK                            x       y       z     vdW  Elec       q    Type
REMARK                         _______ _______ _______ _____ _____    ______ ____
ROOT
ATOM      1  C   UNL     1       5.400   4.660  16.606  0.00  0.00    +0.000 A 
ATOM      2  C   UNL     1       4.477   3.753  17.232  0.00  0.00    +0.000 A 
ATOM      3  C   UNL     1       4.165   2.374  16.729  0.00  0.00    +0.000 C 
ATOM      4  C   UNL     1       3.901   4.384  18.348  0.00  0.00    +0.000 A 
ATOM      5  N   UNL     1       4.440   5.675  18.379  0.00  0.00    +0.000 N 
ATOM      6  C   UNL     1       5.366   5.835  17.354  0.00  0.00    +0.000 A 
ATOM      7  C   UNL     1       6.160   7.077  17.104  0.00  0.00    +0.000 C 
ENDROOT
BRANCH   4   8
ATOM      8  C   UNL     1       2.936   3.793  19.329  0.00  0.00    +0.000 A 
ATOM      9  C   UNL     1       3.403   3.267  20.548  0.00  0.00    +0.000 A 
ATOM     10  C   UNL     1       2.548   2.680  21.489  0.00  0.00    +0.000 A 
ATOM     11  C   UNL     1       1.178   2.666  21.269  0.00  0.00    +0.000 A 
ATOM     12  C   UNL     1       0.680   3.185  20.082  0.00  0.00    +0.000 A 
ATOM     13  C   UNL     1       1.555   3.690  19.108  0.00  0.00    +0.000 A 
ENDBRANCH   4   8
BRANCH   1  14
ATOM     14  C   UNL     1       6.204   4.476  15.390  0.00  0.00    +0.000 C 
ATOM     15  O   UNL     1       7.427   4.540  15.360  0.00  0.00    +0.000 OA
BRANCH  14  16
ATOM     16  O   UNL     1       5.423   4.268  14.281  0.00  0.00    +0.000 OA
BRANCH  16  18
ATOM     17  C   UNL     1       5.057   3.353  12.064  0.00  0.00    +0.000 C 
ATOM     18  C   UNL     1       6.070   3.691  13.141  0.00  0.00    +0.000 C 
ENDBRANCH  16  18
ENDBRANCH  14  16
ENDBRANCH   1  14
BRANCH   5  19
ATOM     19  C   UNL     1       4.078   6.773  19.279  0.00  0.00    +0.000 C 
BRANCH  19  20
ATOM     20  C   UNL     1       2.702   7.349  19.036  0.00  0.00    +0.000 C 
ATOM     21  O   UNL     1       1.720   7.058  19.707  0.00  0.00    +0.000 OA
ATOM     22  N   UNL     1       2.640   8.205  17.951  0.00  0.00    +0.000 N 
ATOM     23  H   UNL     1       3.485   8.475  17.471  0.00  0.00    +0.000 HD
BRANCH  22  24
ATOM     24  C   UNL     1       1.451   8.948  17.604  0.00  0.00    +0.000 C 
BRANCH  24  25
ATOM     25  C   UNL     1       1.257  10.179  18.484  0.00  0.00    +0.000 C 
BRANCH  25  26
ATOM     26  C   UNL     1      -0.169  10.335  19.041  0.00  0.00    +0.000 C 
BRANCH  26  27
ATOM     27  N   UNL     1      -1.170  10.914  18.116  0.00  0.00    +0.000 NA
BRANCH  27  28
ATOM     28  C   UNL     1      -2.095   9.910  17.560  0.00  0.00    +0.000 C 
ATOM     29  C   UNL     1      -3.282  10.444  16.761  0.00  0.00    +0.000 C 
ENDBRANCH  27  28
BRANCH  27  30
ATOM     30  C   UNL     1      -1.856  12.040  18.781  0.00  0.00    +0.000 C 
ATOM     31  C   UNL     1      -1.668  12.099  20.294  0.00  0.00    +0.000 C 
ENDBRANCH  27  30
ENDBRANCH  26  27
ENDBRANCH  25  26
ENDBRANCH  24  25
ENDBRANCH  22  24
ENDBRANCH  19  20
ENDBRANCH   5  19
TORSDOF 12
ENDMDL
MODEL 3
REMARK VINA RESULT:      -6.1      0.907      1.505
REMARK  Name = 
REMARK  17 active torsions:
REMARK  status: ('A' for Active; 'I' for Inactive)
REMARK    1  A    between atoms: C_1  and  C_2
REMARK    2  A    between atoms: C_2  and  O_3
REMARK    3  A    between atoms: O_3  and  C_4
REMARK    4  A    between atoms: C_4  and  C_6
REMARK    5  A    between atoms: C_7  and  C_8
REMARK    6  A    between atoms: C_9  and  C_10
REMARK    7  A    between atoms: N_16  and  C_17
REMARK    8  A    between atoms: C_17  and  C_18
REMARK    9  A    between atoms: N_20  and  C_21
REMARK   10  A    between atoms: C_21  and  C_22
REMARK   11  A    between atoms: C_22  and  C_23
REMARK   12  A    between atoms: C_23  and  N_24
REMARK   13  A    between atoms: N_24  and  C_25
REMARK   14  A    between atoms: N_24  and  C_27
REMARK   15  A    between atoms: C_25  and  C_26
REMARK   16  A    between atoms: C_27  and  C_28
REMARK   17  A    between atoms: C_29  and  C_30
REMARK                            x       y       z     vdW  Elec       q    Type
REMARK                         _______ _______ _______ _____ _____    ______ ____
ROOT
ATOM      1  C   UNL     1       5.428   4.666  16.574  0.00  0.00    +0.000 A 
ATOM      2  C   UNL     1       4.514   3.755  17.207  0.00  0.00    +0.000 A 
ATOM      3  C   UNL     1       4.207   2.374  16.708  0.00  0.00    +0.000 C 
ATOM      4  C   UNL     1       3.943   4.383  18.327  0.00  0.00    +0.000 A 
ATOM      5  N   UNL     1       4.475   5.678  18.352  0.00  0.00    +0.000 N 
ATOM      6  C   UNL     1       5.392   5.842  17.320  0.00  0.00    +0.000 A 
ATOM      7  C   UNL     1       6.178   7.088  17.063  0.00  0.00    +0.000 C 
ENDROOT
BRANCH   4   8
ATOM      8  C   UNL     1       2.988   3.788  19.316  0.00  0.00    +0.000 A 
ATOM      9  C   UNL     1       1.628   3.648  18.985  0.00  0.00    +0.000 A 
ATOM     10  C   UNL     1       0.688   3.123  19.881  0.00  0.00    +0.000 A 
ATOM     11  C   UNL     1       1.098   2.650  21.119  0.00  0.00    +0.000 A 
ATOM     12  C   UNL     1       2.435   2.763  21.475  0.00  0.00    +0.000 A 
ATOM     13  C   UNL     1       3.350   3.372  20.605  0.00  0.00    +0.000 A 
ENDBRANCH   4   8
BRANCH   1  14
ATOM     14  C   UNL     1       6.224   4.485  15.352  0.00  0.00    +0.000 C 
ATOM     15  O   UNL     1       7.447   4.539  15.317  0.00  0.00    +0.000 OA
BRANCH  14  16
ATOM     16  O   UNL     1       5.435   4.294  14.245  0.00  0.00    +0.000 OA
BRANCH  16  18
ATOM     17  C   UNL     1       5.031   3.352  12.047  0.00  0.00    +0.000 C 
ATOM     18  C   UNL     1       6.057   3.671  13.116  0.00  0.00    +0.000 C 
ENDBRANCH  16  18
ENDBRANCH  14  16
ENDBRANCH   1  14
BRANCH   5  19
ATOM     19  C   UNL     1       4.114   6.774  19.254  0.00  0.00    +0.000 C 
BRANCH  19  20
ATOM     20  C   UNL     1       2.714   7.308  19.054  0.00  0.00    +0.000 C 
ATOM     21  O   UNL     1       1.753   6.954  19.727  0.00  0.00    +0.000 OA
ATOM     22  N   UNL     1       2.603   8.203  18.005  0.00  0.00    +0.000 N 
ATOM     23  H   UNL     1       3.430   8.524  17.525  0.00  0.00    +0.000 HD
BRANCH  22  24
ATOM     24  C   UNL     1       1.382   8.916  17.706  0.00  0.00    +0.000 C 
BRANCH  24  25
ATOM     25  C   UNL     1       1.209  10.162  18.569  0.00  0.00    +0.000 C 
BRANCH  25  26
ATOM     26  C   UNL     1       0.191   9.999  19.711  0.00  0.00    +0.000 C 
BRANCH  26  27
ATOM     27  N   UNL     1      -1.071  10.761  19.573  0.00  0.00    +0.000 NA
BRANCH  27  28
ATOM     28  C   UNL     1      -1.114  11.969  20.416  0.00  0.00    +0.000 C 
ATOM     29  C   UNL     1      -0.231  11.963  21.662  0.00  0.00    +0.000 C 
ENDBRANCH  27  28
BRANCH  27  30
ATOM     30  C   UNL     1      -1.323  11.034  18.144  0.00  0.00    +0.000 C 
ATOM     31  C   UNL     1      -2.322  10.090  17.480  0.00  0.00    +0.000 C 
ENDBRANCH  27  30
ENDBRANCH  26  27
ENDBRANCH  25  26
ENDBRANCH  24  25
ENDBRANCH  22  24
ENDBRANCH  19  20
ENDBRANCH   5  19
TORSDOF 12
ENDMDL
MODEL 4
REMARK VINA RESULT:      -6.1      2.086      4.800
REMARK  Name = 
REMARK  17 active torsions:
REMARK  status: ('A' for Active; 'I' for Inactive)
REMARK    1  A    between atoms: C_1  and  C_2
REMARK    2  A    between atoms: C_2  and  O_3
REMARK    3  A    between atoms: O_3  and  C_4
REMARK    4  A    between atoms: C_4  and  C_6
REMARK    5  A    between atoms: C_7  and  C_8
REMARK    6  A    between atoms: C_9  and  C_10
REMARK    7  A    between atoms: N_16  and  C_17
REMARK    8  A    between atoms: C_17  and  C_18
REMARK    9  A    between atoms: N_20  and  C_21
REMARK   10  A    between atoms: C_21  and  C_22
REMARK   11  A    between atoms: C_22  and  C_23
REMARK   12  A    between atoms: C_23  and  N_24
REMARK   13  A    between atoms: N_24  and  C_25
REMARK   14  A    between atoms: N_24  and  C_27
REMARK   15  A    between atoms: C_25  and  C_26
REMARK   16  A    between atoms: C_27  and  C_28
REMARK   17  A    between atoms: C_29  and  C_30
REMARK                            x       y       z     vdW  Elec       q    Type
REMARK                         _______ _______ _______ _____ _____    ______ ____
ROOT
ATOM      1  C   UNL     1       2.813   4.080  20.277  0.00  0.00    +0.000 A 
ATOM      2  C   UNL     1       3.796   3.629  19.332  0.00  0.00    +0.000 A 
ATOM      3  C   UNL     1       4.335   2.230  19.266  0.00  0.00    +0.000 C 
ATOM      4  C   UNL     1       4.186   4.711  18.523  0.00  0.00    +0.000 A 
ATOM      5  N   UNL     1       3.474   5.819  18.998  0.00  0.00    +0.000 N 
ATOM      6  C   UNL     1       2.624   5.439  20.030  0.00  0.00    +0.000 A 
ATOM      7  C   UNL     1       1.690   6.357  20.752  0.00  0.00    +0.000 C 
ENDROOT
BRANCH   4   8
ATOM      8  C   UNL     1       5.138   4.686  17.367  0.00  0.00    +0.000 A 
ATOM      9  C   UNL     1       6.518   4.846  17.587  0.00  0.00    +0.000 A 
ATOM     10  C   UNL     1       7.449   4.858  16.541  0.00  0.00    +0.000 A 
ATOM     11  C   UNL     1       7.031   4.634  15.237  0.00  0.00    +0.000 A 
ATOM     12  C   UNL     1       5.677   4.461  14.984  0.00  0.00    +0.000 A 
ATOM     13  C   UNL     1       4.745   4.541  16.029  0.00  0.00    +0.000 A 
ENDBRANCH   4   8
BRANCH   1  14
ATOM     14  C   UNL     1       2.145   3.334  21.353  0.00  0.00    +0.000 C 
ATOM     15  O   UNL     1       2.443   3.425  22.537  0.00  0.00    +0.000 OA
BRANCH  14  16
ATOM     16  O   UNL     1       1.178   2.489  20.870  0.00  0.00    +0.000 OA
BRANCH  16  18
ATOM     17  C   UNL     1       0.616   2.051  18.551  0.00  0.00    +0.000 C 
ATOM     18  C   UNL     1       0.420   2.959  19.750  0.00  0.00    +0.000 C 
ENDBRANCH  16  18
ENDBRANCH  14  16
ENDBRANCH   1  14
BRANCH   5  19
ATOM     19  C   UNL     1       3.606   7.214  18.571  0.00  0.00    +0.000 C 
BRANCH  19  20
ATOM     20  C   UNL     1       2.341   7.811  17.997  0.00  0.00    +0.000 C 
ATOM     21  O   UNL     1       1.553   7.182  17.301  0.00  0.00    +0.000 OA
ATOM     22  N   UNL     1       2.175   9.152  18.291  0.00  0.00    +0.000 N 
ATOM     23  H   UNL     1       2.806   9.612  18.928  0.00  0.00    +0.000 HD
BRANCH  22  24
ATOM     24  C   UNL     1       0.986   9.892  17.934  0.00  0.00    +0.000 C 
BRANCH  24  25
ATOM     25  C   UNL     1       0.180  10.323  19.156  0.00  0.00    +0.000 C 
BRANCH  25  26
ATOM     26  C   UNL     1       0.937  11.267  20.107  0.00  0.00    +0.000 C 
BRANCH  26  27
ATOM     27  N   UNL     1       0.534  11.218  21.531  0.00  0.00    +0.000 NA
BRANCH  27  28
ATOM     28  C   UNL     1      -0.315  12.353  21.933  0.00  0.00    +0.000 C 
ATOM     29  C   UNL     1      -1.805  12.235  21.621  0.00  0.00    +0.000 C 
ENDBRANCH  27  28
BRANCH  27  30
ATOM     30  C   UNL     1      -0.069   9.902  21.823  0.00  0.00    +0.000 C 
ATOM     31  C   UNL     1       0.084   9.435  23.267  0.00  0.00    +0.000 C 
ENDBRANCH  27  30
ENDBRANCH  26  27
ENDBRANCH  25  26
ENDBRANCH  24  25
ENDBRANCH  22  24
ENDBRANCH  19  20
ENDBRANCH   5  19
TORSDOF 12
ENDMDL
MODEL 5
REMARK VINA RESULT:      -6.0      1.289      2.228
REMARK  Name = 
REMARK  17 active torsions:
REMARK  status: ('A' for Active; 'I' for Inactive)
REMARK    1  A    between atoms: C_1  and  C_2
REMARK    2  A    between atoms: C_2  and  O_3
REMARK    3  A    between atoms: O_3  and  C_4
REMARK    4  A    between atoms: C_4  and  C_6
REMARK    5  A    between atoms: C_7  and  C_8
REMARK    6  A    between atoms: C_9  and  C_10
REMARK    7  A    between atoms: N_16  and  C_17
REMARK    8  A    between atoms: C_17  and  C_18
REMARK    9  A    between atoms: N_20  and  C_21
REMARK   10  A    between atoms: C_21  and  C_22
REMARK   11  A    between atoms: C_22  and  C_23
REMARK   12  A    between atoms: C_23  and  N_24
REMARK   13  A    between atoms: N_24  and  C_25
REMARK   14  A    between atoms: N_24  and  C_27
REMARK   15  A    between atoms: C_25  and  C_26
REMARK   16  A    between atoms: C_27  and  C_28
REMARK   17  A    between atoms: C_29  and  C_30
REMARK                            x       y       z     vdW  Elec       q    Type
REMARK                         _______ _______ _______ _____ _____    ______ ____
ROOT
ATOM      1  C   UNL     1       5.414   4.709  16.534  0.00  0.00    +0.000 A 
ATOM      2  C   UNL     1       4.469   3.808  17.134  0.00  0.00    +0.000 A 
ATOM      3  C   UNL     1       4.117   2.456  16.588  0.00  0.00    +0.000 C 
ATOM      4  C   UNL     1       3.916   4.417  18.275  0.00  0.00    +0.000 A 
ATOM      5  N   UNL     1       4.491   5.691  18.345  0.00  0.00    +0.000 N 
ATOM      6  C   UNL     1       5.416   5.859  17.321  0.00  0.00    +0.000 A 
ATOM      7  C   UNL     1       6.244   7.086  17.108  0.00  0.00    +0.000 C 
ENDROOT
BRANCH   4   8
ATOM      8  C   UNL     1       2.940   3.820  19.241  0.00  0.00    +0.000 A 
ATOM      9  C   UNL     1       3.382   3.353  20.492  0.00  0.00    +0.000 A 
ATOM     10  C   UNL     1       2.517   2.763  21.422  0.00  0.00    +0.000 A 
ATOM     11  C   UNL     1       1.158   2.688  21.156  0.00  0.00    +0.000 A 
ATOM     12  C   UNL     1       0.684   3.148  19.935  0.00  0.00    +0.000 A 
ATOM     13  C   UNL     1       1.573   3.655  18.976  0.00  0.00    +0.000 A 
ENDBRANCH   4   8
BRANCH   1  14
ATOM     14  C   UNL     1       6.207   4.544  15.308  0.00  0.00    +0.000 C 
ATOM     15  O   UNL     1       7.431   4.550  15.277  0.00  0.00    +0.000 OA
BRANCH  14  16
ATOM     16  O   UNL     1       5.415   4.426  14.193  0.00  0.00    +0.000 OA
BRANCH  16  18
ATOM     17  C   UNL     1       4.885   3.399  12.061  0.00  0.00    +0.000 C 
ATOM     18  C   UNL     1       5.951   3.666  13.105  0.00  0.00    +0.000 C 
ENDBRANCH  16  18
ENDBRANCH  14  16
ENDBRANCH   1  14
BRANCH   5  19
ATOM     19  C   UNL     1       4.165   6.767  19.284  0.00  0.00    +0.000 C 
BRANCH  19  20
ATOM     20  C   UNL     1       2.733   7.246  19.207  0.00  0.00    +0.000 C 
ATOM     21  O   UNL     1       2.117   7.367  18.155  0.00  0.00    +0.000 OA
ATOM     22  N   UNL     1       2.191   7.582  20.434  0.00  0.00    +0.000 N 
ATOM     23  H   UNL     1       2.705   7.397  21.282  0.00  0.00    +0.000 HD
BRANCH  22  24
ATOM     24  C   UNL     1       0.806   7.960  20.604  0.00  0.00    +0.000 C 
BRANCH  24  25
ATOM     25  C   UNL     1       0.641   9.448  20.900  0.00  0.00    +0.000 C 
BRANCH  25  26
ATOM     26  C   UNL     1      -0.653  10.060  20.337  0.00  0.00    +0.000 C 
BRANCH  26  27
ATOM     27  N   UNL     1      -0.637  10.409  18.899  0.00  0.00    +0.000 NA
BRANCH  27  28
ATOM     28  C   UNL     1      -1.978  10.412  18.288  0.00  0.00    +0.000 C 
ATOM     29  C   UNL     1      -2.062   9.982  16.825  0.00  0.00    +0.000 C 
ENDBRANCH  27  28
BRANCH  27  30
ATOM     30  C   UNL     1       0.096  11.677  18.712  0.00  0.00    +0.000 C 
ATOM     31  C   UNL     1      -0.766  12.933  18.804  0.00  0.00    +0.000 C 
ENDBRANCH  27  30
ENDBRANCH  26  27
ENDBRANCH  25  26
ENDBRANCH  24  25
ENDBRANCH  22  24
ENDBRANCH  19  20
ENDBRANCH   5  19
TORSDOF 12
ENDMDL
MODEL 6
REMARK VINA RESULT:      -6.0      1.177      1.680
REMARK  Name = 
REMARK  17 active torsions:
REMARK  status: ('A' for Active; 'I' for Inactive)
REMARK    1  A    between atoms: C_1  and  C_2
REMARK    2  A    between atoms: C_2  and  O_3
REMARK    3  A    between atoms: O_3  and  C_4
REMARK    4  A    between atoms: C_4  and  C_6
REMARK    5  A    between atoms: C_7  and  C_8
REMARK    6  A    between atoms: C_9  and  C_10
REMARK    7  A    between atoms: N_16  and  C_17
REMARK    8  A    between atoms: C_17  and  C_18
REMARK    9  A    between atoms: N_20  and  C_21
REMARK   10  A    between atoms: C_21  and  C_22
REMARK   11  A    between atoms: C_22  and  C_23
REMARK   12  A    between atoms: C_23  and  N_24
REMARK   13  A    between atoms: N_24  and  C_25
REMARK   14  A    between atoms: N_24  and  C_27
REMARK   15  A    between atoms: C_25  and  C_26
REMARK   16  A    between atoms: C_27  and  C_28
REMARK   17  A    between atoms: C_29  and  C_30
REMARK                            x       y       z     vdW  Elec       q    Type
REMARK                         _______ _______ _______ _____ _____    ______ ____
ROOT
ATOM      1  C   UNL     1       5.330   4.630  16.643  0.00  0.00    +0.000 A 
ATOM      2  C   UNL     1       4.499   3.705  17.363  0.00  0.00    +0.000 A 
ATOM      3  C   UNL     1       4.391   2.241  17.055  0.00  0.00    +0.000 C 
ATOM      4  C   UNL     1       3.792   4.403  18.358  0.00  0.00    +0.000 A 
ATOM      5  N   UNL     1       4.161   5.746  18.219  0.00  0.00    +0.000 N 
ATOM      6  C   UNL     1       5.110   5.883  17.212  0.00  0.00    +0.000 A 
ATOM      7  C   UNL     1       5.752   7.172  16.810  0.00  0.00    +0.000 C 
ENDROOT
BRANCH   4   8
ATOM      8  C   UNL     1       2.861   3.831  19.383  0.00  0.00    +0.000 A 
ATOM      9  C   UNL     1       3.377   3.220  20.540  0.00  0.00    +0.000 A 
ATOM     10  C   UNL     1       2.553   2.647  21.517  0.00  0.00    +0.000 A 
ATOM     11  C   UNL     1       1.174   2.733  21.400  0.00  0.00    +0.000 A 
ATOM     12  C   UNL     1       0.629   3.339  20.276  0.00  0.00    +0.000 A 
ATOM     13  C   UNL     1       1.464   3.830  19.261  0.00  0.00    +0.000 A 
ENDBRANCH   4   8
BRANCH   1  14
ATOM     14  C   UNL     1       6.212   4.387  15.493  0.00  0.00    +0.000 C 
ATOM     15  O   UNL     1       7.435   4.391  15.553  0.00  0.00    +0.000 OA
BRANCH  14  16
ATOM     16  O   UNL     1       5.505   4.199  14.331  0.00  0.00    +0.000 OA
BRANCH  16  18
ATOM     17  C   UNL     1       5.311   3.294  12.089  0.00  0.00    +0.000 C 
ATOM     18  C   UNL     1       6.246   3.730  13.200  0.00  0.00    +0.000 C 
ENDBRANCH  16  18
ENDBRANCH  14  16
ENDBRANCH   1  14
BRANCH   5  19
ATOM     19  C   UNL     1       3.618   6.900  18.939  0.00  0.00    +0.000 C 
BRANCH  19  20
ATOM     20  C   UNL     1       2.406   7.525  18.288  0.00  0.00    +0.000 C 
ATOM     21  O   UNL     1       1.601   6.894  17.613  0.00  0.00    +0.000 OA
ATOM     22  N   UNL     1       2.309   8.891  18.485  0.00  0.00    +0.000 N 
ATOM     23  H   UNL     1       2.949   9.359  19.108  0.00  0.00    +0.000 HD
BRANCH  22  24
ATOM     24  C   UNL     1       1.175   9.670  18.042  0.00  0.00    +0.000 C 
BRANCH  24  25
ATOM     25  C   UNL     1       0.857  10.824  18.989  0.00  0.00    +0.000 C 
BRANCH  25  26
ATOM     26  C   UNL     1      -0.448  10.643  19.784  0.00  0.00    +0.000 C 
BRANCH  26  27
ATOM     27  N   UNL     1      -1.018  11.868  20.389  0.00  0.00    +0.000 NA
BRANCH  27  28
ATOM     28  C   UNL     1      -2.180  12.392  19.652  0.00  0.00    +0.000 C 
ATOM     29  C   UNL     1      -2.772  11.484  18.576  0.00  0.00    +0.000 C 
ENDBRANCH  27  28
BRANCH  27  30
ATOM     30  C   UNL     1      -1.291  11.624  21.820  0.00  0.00    +0.000 C 
ATOM     31  C   UNL     1      -2.214  12.645  22.477  0.00  0.00    +0.000 C 
ENDBRANCH  27  30
ENDBRANCH  26  27
ENDBRANCH  25  26
ENDBRANCH  24  25
ENDBRANCH  22  24
ENDBRANCH  19  20
ENDBRANCH   5  19
TORSDOF 12
ENDMDL
MODEL 7
REMARK VINA RESULT:      -6.0      1.491      2.117
REMARK  Name = 
REMARK  17 active torsions:
REMARK  status: ('A' for Active; 'I' for Inactive)
REMARK    1  A    between atoms: C_1  and  C_2
REMARK    2  A    between atoms: C_2  and  O_3
REMARK    3  A    between atoms: O_3  and  C_4
REMARK    4  A    between atoms: C_4  and  C_6
REMARK    5  A    between atoms: C_7  and  C_8
REMARK    6  A    between atoms: C_9  and  C_10
REMARK    7  A    between atoms: N_16  and  C_17
REMARK    8  A    between atoms: C_17  and  C_18
REMARK    9  A    between atoms: N_20  and  C_21
REMARK   10  A    between atoms: C_21  and  C_22
REMARK   11  A    between atoms: C_22  and  C_23
REMARK   12  A    between atoms: C_23  and  N_24
REMARK   13  A    between atoms: N_24  and  C_25
REMARK   14  A    between atoms: N_24  and  C_27
REMARK   15  A    between atoms: C_25  and  C_26
REMARK   16  A    between atoms: C_27  and  C_28
REMARK   17  A    between atoms: C_29  and  C_30
REMARK                            x       y       z     vdW  Elec       q    Type
REMARK                         _______ _______ _______ _____ _____    ______ ____
ROOT
ATOM      1  C   UNL     1       5.367   4.605  16.736  0.00  0.00    +0.000 A 
ATOM      2  C   UNL     1       4.515   3.686  17.440  0.00  0.00    +0.000 A 
ATOM      3  C   UNL     1       4.362   2.234  17.096  0.00  0.00    +0.000 C 
ATOM      4  C   UNL     1       3.836   4.378  18.458  0.00  0.00    +0.000 A 
ATOM      5  N   UNL     1       4.242   5.714  18.350  0.00  0.00    +0.000 N 
ATOM      6  C   UNL     1       5.186   5.849  17.339  0.00  0.00    +0.000 A 
ATOM      7  C   UNL     1       5.863   7.129  16.965  0.00  0.00    +0.000 C 
ENDROOT
BRANCH   4   8
ATOM      8  C   UNL     1       2.897   3.807  19.476  0.00  0.00    +0.000 A 
ATOM      9  C   UNL     1       1.510   3.818  19.239  0.00  0.00    +0.000 A 
ATOM     10  C   UNL     1       0.587   3.322  20.168  0.00  0.00    +0.000 A 
ATOM     11  C   UNL     1       1.031   2.728  21.340  0.00  0.00    +0.000 A 
ATOM     12  C   UNL     1       2.394   2.691  21.602  0.00  0.00    +0.000 A 
ATOM     13  C   UNL     1       3.304   3.271  20.706  0.00  0.00    +0.000 A 
ENDBRANCH   4   8
BRANCH   1  14
ATOM     14  C   UNL     1       6.232   4.367  15.573  0.00  0.00    +0.000 C 
ATOM     15  O   UNL     1       7.456   4.402  15.610  0.00  0.00    +0.000 OA
BRANCH  14  16
ATOM     16  O   UNL     1       5.508   4.145  14.428  0.00  0.00    +0.000 OA
BRANCH  16  18
ATOM     17  C   UNL     1       5.368   3.270  12.170  0.00  0.00    +0.000 C 
ATOM     18  C   UNL     1       6.258   3.873  13.239  0.00  0.00    +0.000 C 
ENDBRANCH  16  18
ENDBRANCH  14  16
ENDBRANCH   1  14
BRANCH   5  19
ATOM     19  C   UNL     1       3.738   6.864  19.104  0.00  0.00    +0.000 C 
BRANCH  19  20
ATOM     20  C   UNL     1       2.504   7.504  18.510  0.00  0.00    +0.000 C 
ATOM     21  O   UNL     1       1.900   7.043  17.549  0.00  0.00    +0.000 OA
ATOM     22  N   UNL     1       2.142   8.690  19.123  0.00  0.00    +0.000 N 
ATOM     23  H   UNL     1       2.620   8.995  19.957  0.00  0.00    +0.000 HD
BRANCH  22  24
ATOM     24  C   UNL     1       0.935   9.411  18.787  0.00  0.00    +0.000 C 
BRANCH  24  25
ATOM     25  C   UNL     1       0.166   9.867  20.023  0.00  0.00    +0.000 C 
BRANCH  25  26
ATOM     26  C   UNL     1      -0.953  10.881  19.728  0.00  0.00    +0.000 C 
BRANCH  26  27
ATOM     27  N   UNL     1      -1.176  11.207  18.301  0.00  0.00    +0.000 NA
BRANCH  27  28
ATOM     28  C   UNL     1      -2.411  10.615  17.758  0.00  0.00    +0.000 C 
ATOM     29  C   UNL     1      -3.703  11.395  17.992  0.00  0.00    +0.000 C 
ENDBRANCH  27  28
BRANCH  27  30
ATOM     30  C   UNL     1      -1.096  12.670  18.116  0.00  0.00    +0.000 C 
ATOM     31  C   UNL     1       0.114  13.331  18.769  0.00  0.00    +0.000 C 
ENDBRANCH  27  30
ENDBRANCH  26  27
ENDBRANCH  25  26
ENDBRANCH  24  25
ENDBRANCH  22  24
ENDBRANCH  19  20
ENDBRANCH   5  19
TORSDOF 12
ENDMDL
MODEL 8
REMARK VINA RESULT:      -5.9      1.070      1.211
REMARK  Name = 
REMARK  17 active torsions:
REMARK  status: ('A' for Active; 'I' for Inactive)
REMARK    1  A    between atoms: C_1  and  C_2
REMARK    2  A    between atoms: C_2  and  O_3
REMARK    3  A    between atoms: O_3  and  C_4
REMARK    4  A    between atoms: C_4  and  C_6
REMARK    5  A    between atoms: C_7  and  C_8
REMARK    6  A    between atoms: C_9  and  C_10
REMARK    7  A    between atoms: N_16  and  C_17
REMARK    8  A    between atoms: C_17  and  C_18
REMARK    9  A    between atoms: N_20  and  C_21
REMARK   10  A    between atoms: C_21  and  C_22
REMARK   11  A    between atoms: C_22  and  C_23
REMARK   12  A    between atoms: C_23  and  N_24
REMARK   13  A    between atoms: N_24  and  C_25
REMARK   14  A    between atoms: N_24  and  C_27
REMARK   15  A    between atoms: C_25  and  C_26
REMARK   16  A    between atoms: C_27  and  C_28
REMARK   17  A    between atoms: C_29  and  C_30
REMARK                            x       y       z     vdW  Elec       q    Type
REMARK                         _______ _______ _______ _____ _____    ______ ____
ROOT
ATOM      1  C   UNL     1       5.430   5.102  16.600  0.00  0.00    +0.000 A 
ATOM      2  C   UNL     1       4.519   4.133  17.144  0.00  0.00    +0.000 A 
ATOM      3  C   UNL     1       4.419   2.708  16.685  0.00  0.00    +0.000 C 
ATOM      4  C   UNL     1       3.729   4.749  18.130  0.00  0.00    +0.000 A 
ATOM      5  N   UNL     1       4.130   6.090  18.159  0.00  0.00    +0.000 N 
ATOM      6  C   UNL     1       5.174   6.300  17.265  0.00  0.00    +0.000 A 
ATOM      7  C   UNL     1       5.872   7.606  17.055  0.00  0.00    +0.000 C 
ENDROOT
BRANCH   4   8
ATOM      8  C   UNL     1       2.695   4.105  19.001  0.00  0.00    +0.000 A 
ATOM      9  C   UNL     1       1.534   3.556  18.428  0.00  0.00    +0.000 A 
ATOM     10  C   UNL     1       0.523   2.966  19.197  0.00  0.00    +0.000 A 
ATOM     11  C   UNL     1       0.679   2.840  20.570  0.00  0.00    +0.000 A 
ATOM     12  C   UNL     1       1.818   3.362  21.169  0.00  0.00    +0.000 A 
ATOM     13  C   UNL     1       2.781   4.030  20.399  0.00  0.00    +0.000 A 
ENDBRANCH   4   8
BRANCH   1  14
ATOM     14  C   UNL     1       6.415   4.950  15.520  0.00  0.00    +0.000 C 
ATOM     15  O   UNL     1       7.627   5.029  15.681  0.00  0.00    +0.000 OA
BRANCH  14  16
ATOM     16  O   UNL     1       5.817   4.752  14.301  0.00  0.00    +0.000 OA
BRANCH  16  18
ATOM     17  C   UNL     1       5.526   3.420  12.294  0.00  0.00    +0.000 C 
ATOM     18  C   UNL     1       6.463   3.832  13.414  0.00  0.00    +0.000 C 
ENDBRANCH  16  18
ENDBRANCH  14  16
ENDBRANCH   1  14
BRANCH   5  19
ATOM     19  C   UNL     1       3.538   7.183  18.934  0.00  0.00    +0.000 C 
BRANCH  19  20
ATOM     20  C   UNL     1       2.603   8.070  18.144  0.00  0.00    +0.000 C 
ATOM     21  O   UNL     1       2.614   8.143  16.921  0.00  0.00    +0.000 OA
ATOM     22  N   UNL     1       1.758   8.831  18.932  0.00  0.00    +0.000 N 
ATOM     23  H   UNL     1       1.729   8.686  19.929  0.00  0.00    +0.000 HD
BRANCH  22  24
ATOM     24  C   UNL     1       0.714   9.666  18.383  0.00  0.00    +0.000 C 
BRANCH  24  25
ATOM     25  C   UNL     1      -0.207  10.230  19.462  0.00  0.00    +0.000 C 
BRANCH  25  26
ATOM     26  C   UNL     1       0.286   9.985  20.899  0.00  0.00    +0.000 C 
BRANCH  26  27
ATOM     27  N   UNL     1       0.196  11.137  21.824  0.00  0.00    +0.000 NA
BRANCH  27  28
ATOM     28  C   UNL     1      -0.132  12.403  21.144  0.00  0.00    +0.000 C 
ATOM     29  C   UNL     1       0.936  13.494  21.181  0.00  0.00    +0.000 C 
ENDBRANCH  27  28
BRANCH  27  30
ATOM     30  C   UNL     1      -0.729  10.807  22.927  0.00  0.00    +0.000 C 
ATOM     31  C   UNL     1      -1.952  11.713  23.029  0.00  0.00    +0.000 C 
ENDBRANCH  27  30
ENDBRANCH  26  27
ENDBRANCH  25  26
ENDBRANCH  24  25
ENDBRANCH  22  24
ENDBRANCH  19  20
ENDBRANCH   5  19
TORSDOF 12
ENDMDL
MODEL 9
REMARK VINA RESULT:      -5.9      2.016      2.659
REMARK  Name = 
REMARK  17 active torsions:
REMARK  status: ('A' for Active; 'I' for Inactive)
REMARK    1  A    between atoms: C_1  and  C_2
REMARK    2  A    between atoms: C_2  and  O_3
REMARK    3  A    between atoms: O_3  and  C_4
REMARK    4  A    between atoms: C_4  and  C_6
REMARK    5  A    between atoms: C_7  and  C_8
REMARK    6  A    between atoms: C_9  and  C_10
REMARK    7  A    between atoms: N_16  and  C_17
REMARK    8  A    between atoms: C_17  and  C_18
REMARK    9  A    between atoms: N_20  and  C_21
REMARK   10  A    between atoms: C_21  and  C_22
REMARK   11  A    between atoms: C_22  and  C_23
REMARK   12  A    between atoms: C_23  and  N_24
REMARK   13  A    between atoms: N_24  and  C_25
REMARK   14  A    between atoms: N_24  and  C_27
REMARK   15  A    between atoms: C_25  and  C_26
REMARK   16  A    between atoms: C_27  and  C_28
REMARK   17  A    between atoms: C_29  and  C_30
REMARK                            x       y       z     vdW  Elec       q    Type
REMARK                         _______ _______ _______ _____ _____    ______ ____
ROOT
ATOM      1  C   UNL     1       5.337   4.957  16.794  0.00  0.00    +0.000 A 
ATOM      2  C   UNL     1       4.531   3.972  17.460  0.00  0.00    +0.000 A 
ATOM      3  C   UNL     1       4.528   2.508  17.128  0.00  0.00    +0.000 C 
ATOM      4  C   UNL     1       3.734   4.609  18.427  0.00  0.00    +0.000 A 
ATOM      5  N   UNL     1       4.026   5.974  18.324  0.00  0.00    +0.000 N 
ATOM      6  C   UNL     1       5.012   6.185  17.367  0.00  0.00    +0.000 A 
ATOM      7  C   UNL     1       5.593   7.517  17.015  0.00  0.00    +0.000 C 
ENDROOT
BRANCH   4   8
ATOM      8  C   UNL     1       2.792   3.965  19.397  0.00  0.00    +0.000 A 
ATOM      9  C   UNL     1       3.283   3.401  20.588  0.00  0.00    +0.000 A 
ATOM     10  C   UNL     1       2.450   2.764  21.516  0.00  0.00    +0.000 A 
ATOM     11  C   UNL     1       1.078   2.737  21.314  0.00  0.00    +0.000 A 
ATOM     12  C   UNL     1       0.556   3.293  20.154  0.00  0.00    +0.000 A 
ATOM     13  C   UNL     1       1.410   3.849  19.189  0.00  0.00    +0.000 A 
ENDBRANCH   4   8
BRANCH   1  14
ATOM     14  C   UNL     1       6.288   4.787  15.685  0.00  0.00    +0.000 C 
ATOM     15  O   UNL     1       7.499   4.683  15.831  0.00  0.00    +0.000 OA
BRANCH  14  16
ATOM     16  O   UNL     1       5.663   4.802  14.463  0.00  0.00    +0.000 OA
BRANCH  16  18
ATOM     17  C   UNL     1       6.702   4.023  12.415  0.00  0.00    +0.000 C 
ATOM     18  C   UNL     1       5.866   3.659  13.626  0.00  0.00    +0.000 C 
ENDBRANCH  16  18
ENDBRANCH  14  16
ENDBRANCH   1  14
BRANCH   5  19
ATOM     19  C   UNL     1       3.379   7.081  19.032  0.00  0.00    +0.000 C 
BRANCH  19  20
ATOM     20  C   UNL     1       2.293   7.774  18.241  0.00  0.00    +0.000 C 
ATOM     21  O   UNL     1       1.542   7.189  17.469  0.00  0.00    +0.000 OA
ATOM     22  N   UNL     1       2.251   9.143  18.431  0.00  0.00    +0.000 N 
ATOM     23  H   UNL     1       2.837   9.574  19.130  0.00  0.00    +0.000 HD
BRANCH  22  24
ATOM     24  C   UNL     1       1.226   9.985  17.858  0.00  0.00    +0.000 C 
BRANCH  24  25
ATOM     25  C   UNL     1      -0.037  10.028  18.713  0.00  0.00    +0.000 C 
BRANCH  25  26
ATOM     26  C   UNL     1      -1.082  11.054  18.239  0.00  0.00    +0.000 C 
BRANCH  26  27
ATOM     27  N   UNL     1      -2.498  10.634  18.337  0.00  0.00    +0.000 NA
BRANCH  27  28
ATOM     28  C   UNL     1      -3.417  11.752  18.612  0.00  0.00    +0.000 C 
ATOM     29  C   UNL     1      -4.910  11.443  18.539  0.00  0.00    +0.000 C 
ENDBRANCH  27  28
BRANCH  27  30
ATOM     30  C   UNL     1      -2.862   9.858  17.134  0.00  0.00    +0.000 C 
ATOM     31  C   UNL     1      -2.692  10.606  15.815  0.00  0.00    +0.000 C 
ENDBRANCH  27  30
ENDBRANCH  26  27
ENDBRANCH  25  26
ENDBRANCH  24  25
ENDBRANCH  22  24
ENDBRANCH  19  20
ENDBRANCH   5  19
TORSDOF 12
ENDMDL
