MODEL 1
REMARK VINA RESULT:      -7.7      0.000      0.000
REMARK  Name = 
REMARK  11 active torsions:
REMARK  status: ('A' for Active; 'I' for Inactive)
REMARK    1  A    between atoms: C_1  and  O_2
REMARK    2  A    between atoms: O_2  and  C_3
REMARK    3  A    between atoms: C_5  and  C_6
REMARK    4  A    between atoms: N_8  and  C_9
REMARK    5  A    between atoms: C_12  and  S_13
REMARK    6  A    between atoms: S_13  and  N_16
REMARK    7  A    between atoms: C_19  and  C_20
REMARK    8  A    between atoms: C_26  and  O_27
REMARK    9  A    between atoms: O_27  and  C_28
REMARK   10  A    between atoms: C_29  and  O_30
REMARK   11  A    between atoms: O_30  and  C_31
REMARK                            x       y       z     vdW  Elec       q    Type
REMARK                         _______ _______ _______ _____ _____    ______ ____
ROOT
ATOM      1  C   UNL     1       1.086   8.938  19.604  0.00  0.00    +0.000 A 
ATOM      2  C   UNL     1       1.714   9.051  18.359  0.00  0.00    +0.000 A 
ATOM      3  C   UNL     1       2.638   8.099  17.928  0.00  0.00    +0.000 A 
ATOM      4  C   UNL     1       2.953   7.023  18.754  0.00  0.00    +0.000 A 
ATOM      5  C   UNL     1       2.327   6.877  19.994  0.00  0.00    +0.000 A 
ATOM      6  C   UNL     1       1.406   7.846  20.421  0.00  0.00    +0.000 A 
ENDROOT
BRANCH   1   9
ATOM      7  C   UNL     1       0.359  10.812  21.082  0.00  0.00    +0.000 C 
ATOM      8  O   UNL     1       1.408  10.991  21.688  0.00  0.00    +0.000 OA
ATOM      9  N   UNL     1       0.135   9.878  20.079  0.00  0.00    +0.000 N 
ATOM     10  H   UNL     1      -0.729   9.952  19.558  0.00  0.00    +0.000 HD
BRANCH   7  13
ATOM     11  C   UNL     1      -2.884  12.658  20.622  0.00  0.00    +0.000 A 
ATOM     12  C   UNL     1      -1.746  11.876  20.394  0.00  0.00    +0.000 A 
ATOM     13  C   UNL     1      -0.751  11.755  21.364  0.00  0.00    +0.000 A 
ATOM     14  C   UNL     1      -0.836  12.513  22.526  0.00  0.00    +0.000 A 
ATOM     15  C   UNL     1      -1.926  13.378  22.734  0.00  0.00    +0.000 A 
ATOM     16  C   UNL     1      -2.975  13.454  21.784  0.00  0.00    +0.000 A 
BRANCH  11  18
ATOM     17  C   UNL     1      -3.770  11.726  18.630  0.00  0.00    +0.000 C 
ATOM     18  O   UNL     1      -3.894  12.673  19.694  0.00  0.00    +0.000 OA
ENDBRANCH  11  18
BRANCH  15  19
ATOM     19  O   UNL     1      -1.801  14.052  23.926  0.00  0.00    +0.000 OA
ATOM     20  C   UNL     1      -1.042  15.252  23.977  0.00  0.00    +0.000 C 
ENDBRANCH  15  19
BRANCH  16  21
ATOM     21  O   UNL     1      -3.994  14.319  22.075  0.00  0.00    +0.000 OA
ATOM     22  C   UNL     1      -5.115  13.898  22.836  0.00  0.00    +0.000 C 
ENDBRANCH  16  21
ENDBRANCH   7  13
ENDBRANCH   1   9
BRANCH   4  23
ATOM     23  S   UNL     1       4.154   5.824  18.194  0.00  0.00    +0.000 S 
ATOM     24  O   UNL     1       5.031   5.509  19.302  0.00  0.00    +0.000 OA
ATOM     25  O   UNL     1       3.425   4.786  17.491  0.00  0.00    +0.000 OA
BRANCH  23  26
ATOM     26  N   UNL     1       5.015   6.691  17.019  0.00  0.00    +0.000 N 
ATOM     27  C   UNL     1       5.787   5.956  16.126  0.00  0.00    +0.000 A 
ATOM     28  C   UNL     1       5.340   5.309  14.959  0.00  0.00    +0.000 A 
ATOM     29  C   UNL     1       6.481   4.766  14.421  0.00  0.00    +0.000 A 
ATOM     30  C   UNL     1       6.786   3.980  13.213  0.00  0.00    +0.000 C 
ATOM     31  O   UNL     1       7.539   5.069  15.224  0.00  0.00    +0.000 OA
ATOM     32  N   UNL     1       7.107   5.858  16.275  0.00  0.00    +0.000 NA
ATOM     33  H   UNL     1       5.563   7.405  17.495  0.00  0.00    +0.000 HD
ENDBRANCH  23  26
ENDBRANCH   4  23
TORSDOF 7
ENDMDL
MODEL 2
REMARK VINA RESULT:      -7.7      2.806     11.149
REMARK  Name = 
REMARK  11 active torsions:
REMARK  status: ('A' for Active; 'I' for Inactive)
REMARK    1  A    between atoms: C_1  and  O_2
REMARK    2  A    between atoms: O_2  and  C_3
REMARK    3  A    between atoms: C_5  and  C_6
REMARK    4  A    between atoms: N_8  and  C_9
REMARK    5  A    between atoms: C_12  and  S_13
REMARK    6  A    between atoms: S_13  and  N_16
REMARK    7  A    between atoms: C_19  and  C_20
REMARK    8  A    between atoms: C_26  and  O_27
REMARK    9  A    between atoms: O_27  and  C_28
REMARK   10  A    between atoms: C_29  and  O_30
REMARK   11  A    between atoms: O_30  and  C_31
REMARK                            x       y       z     vdW  Elec       q    Type
REMARK                         _______ _______ _______ _____ _____    ______ ____
ROOT
ATOM      1  C   UNL     1       1.038   9.495  18.597  0.00  0.00    +0.000 A 
ATOM      2  C   UNL     1      -0.166   9.753  17.933  0.00  0.00    +0.000 A 
ATOM      3  C   UNL     1      -1.071  10.697  18.422  0.00  0.00    +0.000 A 
ATOM      4  C   UNL     1      -0.779  11.385  19.597  0.00  0.00    +0.000 A 
ATOM      5  C   UNL     1       0.424  11.159  20.269  0.00  0.00    +0.000 A 
ATOM      6  C   UNL     1       1.323  10.201  19.773  0.00  0.00    +0.000 A 
ENDROOT
BRANCH   1   9
ATOM      7  C   UNL     1       2.396   7.413  18.818  0.00  0.00    +0.000 C 
ATOM      8  O   UNL     1       1.980   7.033  19.906  0.00  0.00    +0.000 OA
ATOM      9  N   UNL     1       1.990   8.551  18.133  0.00  0.00    +0.000 N 
ATOM     10  H   UNL     1       2.300   8.653  17.175  0.00  0.00    +0.000 HD
BRANCH   7  13
ATOM     11  C   UNL     1       5.457   6.334  16.921  0.00  0.00    +0.000 A 
ATOM     12  C   UNL     1       4.457   7.111  17.516  0.00  0.00    +0.000 A 
ATOM     13  C   UNL     1       3.342   6.519  18.109  0.00  0.00    +0.000 A 
ATOM     14  C   UNL     1       3.165   5.144  18.005  0.00  0.00    +0.000 A 
ATOM     15  C   UNL     1       4.113   4.353  17.328  0.00  0.00    +0.000 A 
ATOM     16  C   UNL     1       5.282   4.941  16.784  0.00  0.00    +0.000 A 
BRANCH  11  18
ATOM     17  C   UNL     1       7.548   7.328  17.427  0.00  0.00    +0.000 C 
ATOM     18  O   UNL     1       6.591   6.938  16.440  0.00  0.00    +0.000 OA
ENDBRANCH  11  18
BRANCH  15  19
ATOM     19  O   UNL     1       3.734   3.031  17.316  0.00  0.00    +0.000 OA
ATOM     20  C   UNL     1       2.395   2.682  17.639  0.00  0.00    +0.000 C 
ENDBRANCH  15  19
BRANCH  16  21
ATOM     21  O   UNL     1       6.146   4.091  16.148  0.00  0.00    +0.000 OA
ATOM     22  C   UNL     1       6.136   3.961  14.735  0.00  0.00    +0.000 C 
ENDBRANCH  16  21
ENDBRANCH   7  13
ENDBRANCH   1   9
BRANCH   4  23
ATOM     23  S   UNL     1      -1.959  12.575  20.218  0.00  0.00    +0.000 S 
ATOM     24  O   UNL     1      -1.400  13.899  20.050  0.00  0.00    +0.000 OA
ATOM     25  O   UNL     1      -3.251  12.226  19.659  0.00  0.00    +0.000 OA
BRANCH  23  26
ATOM     26  N   UNL     1      -2.028  12.194  21.868  0.00  0.00    +0.000 N 
ATOM     27  C   UNL     1      -1.831  13.234  22.769  0.00  0.00    +0.000 A 
ATOM     28  C   UNL     1      -2.791  14.167  23.203  0.00  0.00    +0.000 A 
ATOM     29  C   UNL     1      -2.111  14.948  24.105  0.00  0.00    +0.000 A 
ATOM     30  C   UNL     1      -2.468  16.093  24.962  0.00  0.00    +0.000 C 
ATOM     31  O   UNL     1      -0.826  14.507  24.197  0.00  0.00    +0.000 OA
ATOM     32  N   UNL     1      -0.662  13.397  23.387  0.00  0.00    +0.000 NA
ATOM     33  H   UNL     1      -1.390  11.418  22.038  0.00  0.00    +0.000 HD
ENDBRANCH  23  26
ENDBRANCH   4  23
TORSDOF 7
ENDMDL
MODEL 3
REMARK VINA RESULT:      -7.7      2.449      3.287
REMARK  Name = 
REMARK  11 active torsions:
REMARK  status: ('A' for Active; 'I' for Inactive)
REMARK    1  A    between atoms: C_1  and  O_2
REMARK    2  A    between atoms: O_2  and  C_3
REMARK    3  A    between atoms: C_5  and  C_6
REMARK    4  A    between atoms: N_8  and  C_9
REMARK    5  A    between atoms: C_12  and  S_13
REMARK    6  A    between atoms: S_13  and  N_16
REMARK    7  A    between atoms: C_19  and  C_20
REMARK    8  A    between atoms: C_26  and  O_27
REMARK    9  A    between atoms: O_27  and  C_28
REMARK   10  A    between atoms: C_29  and  O_30
REMARK   11  A    between atoms: O_30  and  C_31
REMARK                            x       y       z     vdW  Elec       q    Type
REMARK                         _______ _______ _______ _____ _____    ______ ____
ROOT
ATOM      1  C   UNL     1       2.161   7.606  19.359  0.00  0.00    +0.000 A 
ATOM      2  C   UNL     1       2.656   7.353  18.075  0.00  0.00    +0.000 A 
ATOM      3  C   UNL     1       3.165   6.100  17.732  0.00  0.00    +0.000 A 
ATOM      4  C   UNL     1       3.194   5.085  18.685  0.00  0.00    +0.000 A 
ATOM      5  C   UNL     1       2.690   5.306  19.968  0.00  0.00    +0.000 A 
ATOM      6  C   UNL     1       2.188   6.573  20.305  0.00  0.00    +0.000 A 
ENDROOT
BRANCH   1   9
ATOM      7  C   UNL     1       0.932   9.732  18.919  0.00  0.00    +0.000 C 
ATOM      8  O   UNL     1       0.647   9.544  17.743  0.00  0.00    +0.000 OA
ATOM      9  N   UNL     1       1.627   8.861  19.748  0.00  0.00    +0.000 N 
ATOM     10  H   UNL     1       1.647   9.076  20.737  0.00  0.00    +0.000 HD
BRANCH   7  13
ATOM     11  C   UNL     1      -0.374  12.004  21.615  0.00  0.00    +0.000 A 
ATOM     12  C   UNL     1       0.043  10.873  20.905  0.00  0.00    +0.000 A 
ATOM     13  C   UNL     1       0.388  10.956  19.556  0.00  0.00    +0.000 A 
ATOM     14  C   UNL     1       0.205  12.155  18.879  0.00  0.00    +0.000 A 
ATOM     15  C   UNL     1      -0.303  13.282  19.551  0.00  0.00    +0.000 A 
ATOM     16  C   UNL     1      -0.590  13.224  20.937  0.00  0.00    +0.000 A 
BRANCH  11  18
ATOM     17  C   UNL     1      -1.867  11.356  23.338  0.00  0.00    +0.000 C 
ATOM     18  O   UNL     1      -0.605  11.914  22.964  0.00  0.00    +0.000 OA
ENDBRANCH  11  18
BRANCH  15  19
ATOM     19  O   UNL     1      -0.434  14.350  18.694  0.00  0.00    +0.000 OA
ATOM     20  C   UNL     1       0.474  15.439  18.787  0.00  0.00    +0.000 C 
ENDBRANCH  15  19
BRANCH  16  21
ATOM     21  O   UNL     1      -1.076  14.371  21.504  0.00  0.00    +0.000 OA
ATOM     22  C   UNL     1      -2.471  14.618  21.573  0.00  0.00    +0.000 C 
ENDBRANCH  16  21
ENDBRANCH   7  13
ENDBRANCH   1   9
BRANCH   4  23
ATOM     23  S   UNL     1       3.869   3.493  18.234  0.00  0.00    +0.000 S 
ATOM     24  O   UNL     1       3.180   2.475  18.998  0.00  0.00    +0.000 OA
ATOM     25  O   UNL     1       3.916   3.445  16.785  0.00  0.00    +0.000 OA
BRANCH  23  26
ATOM     26  N   UNL     1       5.474   3.612  18.765  0.00  0.00    +0.000 N 
ATOM     27  C   UNL     1       6.254   4.619  18.210  0.00  0.00    +0.000 A 
ATOM     28  C   UNL     1       6.290   5.971  18.602  0.00  0.00    +0.000 A 
ATOM     29  C   UNL     1       7.235   6.531  17.776  0.00  0.00    +0.000 A 
ATOM     30  C   UNL     1       7.809   7.879  17.624  0.00  0.00    +0.000 C 
ATOM     31  O   UNL     1       7.725   5.571  16.944  0.00  0.00    +0.000 OA
ATOM     32  N   UNL     1       7.138   4.355  17.249  0.00  0.00    +0.000 NA
ATOM     33  H   UNL     1       5.907   2.696  18.661  0.00  0.00    +0.000 HD
ENDBRANCH  23  26
ENDBRANCH   4  23
TORSDOF 7
ENDMDL
MODEL 4
REMARK VINA RESULT:      -7.7      2.372      3.638
REMARK  Name = 
REMARK  11 active torsions:
REMARK  status: ('A' for Active; 'I' for Inactive)
REMARK    1  A    between atoms: C_1  and  O_2
REMARK    2  A    between atoms: O_2  and  C_3
REMARK    3  A    between atoms: C_5  and  C_6
REMARK    4  A    between atoms: N_8  and  C_9
REMARK    5  A    between atoms: C_12  and  S_13
REMARK    6  A    between atoms: S_13  and  N_16
REMARK    7  A    between atoms: C_19  and  C_20
REMARK    8  A    between atoms: C_26  and  O_27
REMARK    9  A    between atoms: O_27  and  C_28
REMARK   10  A    between atoms: C_29  and  O_30
REMARK   11  A    between atoms: O_30  and  C_31
REMARK                            x       y       z     vdW  Elec       q    Type
REMARK                         _______ _______ _______ _____ _____    ______ ____
ROOT
ATOM      1  C   UNL     1       2.078   7.481  19.538  0.00  0.00    +0.000 A 
ATOM      2  C   UNL     1       2.127   6.369  20.386  0.00  0.00    +0.000 A 
ATOM      3  C   UNL     1       2.722   5.175  19.976  0.00  0.00    +0.000 A 
ATOM      4  C   UNL     1       3.266   5.082  18.698  0.00  0.00    +0.000 A 
ATOM      5  C   UNL     1       3.246   6.182  17.839  0.00  0.00    +0.000 A 
ATOM      6  C   UNL     1       2.638   7.375  18.258  0.00  0.00    +0.000 A 
ENDROOT
BRANCH   1   9
ATOM      7  C   UNL     1       0.855   9.601  19.054  0.00  0.00    +0.000 C 
ATOM      8  O   UNL     1       0.677   9.445  17.853  0.00  0.00    +0.000 OA
ATOM      9  N   UNL     1       1.491   8.716  19.916  0.00  0.00    +0.000 N 
ATOM     10  H   UNL     1       1.422   8.902  20.908  0.00  0.00    +0.000 HD
BRANCH   7  13
ATOM     11  C   UNL     1       0.598  12.830  20.964  0.00  0.00    +0.000 A 
ATOM     12  C   UNL     1       1.069  11.625  20.431  0.00  0.00    +0.000 A 
ATOM     13  C   UNL     1       0.238  10.797  19.677  0.00  0.00    +0.000 A 
ATOM     14  C   UNL     1      -1.109  11.118  19.549  0.00  0.00    +0.000 A 
ATOM     15  C   UNL     1      -1.625  12.278  20.156  0.00  0.00    +0.000 A 
ATOM     16  C   UNL     1      -0.771  13.159  20.866  0.00  0.00    +0.000 A 
BRANCH  11  18
ATOM     17  C   UNL     1       2.722  13.883  20.961  0.00  0.00    +0.000 C 
ATOM     18  O   UNL     1       1.466  13.672  21.611  0.00  0.00    +0.000 OA
ENDBRANCH  11  18
BRANCH  15  19
ATOM     19  O   UNL     1      -2.977  12.392  19.932  0.00  0.00    +0.000 OA
ATOM     20  C   UNL     1      -3.544  11.830  18.757  0.00  0.00    +0.000 C 
ENDBRANCH  15  19
BRANCH  16  21
ATOM     21  O   UNL     1      -1.364  14.263  21.417  0.00  0.00    +0.000 OA
ATOM     22  C   UNL     1      -1.457  15.479  20.694  0.00  0.00    +0.000 C 
ENDBRANCH  16  21
ENDBRANCH   7  13
ENDBRANCH   1   9
BRANCH   4  23
ATOM     23  S   UNL     1       4.006   3.538  18.183  0.00  0.00    +0.000 S 
ATOM     24  O   UNL     1       3.349   2.462  18.893  0.00  0.00    +0.000 OA
ATOM     25  O   UNL     1       4.070   3.558  16.734  0.00  0.00    +0.000 OA
BRANCH  23  26
ATOM     26  N   UNL     1       5.600   3.693  18.738  0.00  0.00    +0.000 N 
ATOM     27  C   UNL     1       6.367   4.715  18.190  0.00  0.00    +0.000 A 
ATOM     28  C   UNL     1       6.369   6.068  18.576  0.00  0.00    +0.000 A 
ATOM     29  C   UNL     1       7.314   6.645  17.763  0.00  0.00    +0.000 A 
ATOM     30  C   UNL     1       7.862   8.004  17.613  0.00  0.00    +0.000 C 
ATOM     31  O   UNL     1       7.836   5.692  16.943  0.00  0.00    +0.000 OA
ATOM     32  N   UNL     1       7.271   4.465  17.244  0.00  0.00    +0.000 NA
ATOM     33  H   UNL     1       6.054   2.786  18.645  0.00  0.00    +0.000 HD
ENDBRANCH  23  26
ENDBRANCH   4  23
TORSDOF 7
ENDMDL
MODEL 5
REMARK VINA RESULT:      -7.7      2.495      2.959
REMARK  Name = 
REMARK  11 active torsions:
REMARK  status: ('A' for Active; 'I' for Inactive)
REMARK    1  A    between atoms: C_1  and  O_2
REMARK    2  A    between atoms: O_2  and  C_3
REMARK    3  A    between atoms: C_5  and  C_6
REMARK    4  A    between atoms: N_8  and  C_9
REMARK    5  A    between atoms: C_12  and  S_13
REMARK    6  A    between atoms: S_13  and  N_16
REMARK    7  A    between atoms: C_19  and  C_20
REMARK    8  A    between atoms: C_26  and  O_27
REMARK    9  A    between atoms: O_27  and  C_28
REMARK   10  A    between atoms: C_29  and  O_30
REMARK   11  A    between atoms: O_30  and  C_31
REMARK                            x       y       z     vdW  Elec       q    Type
REMARK                         _______ _______ _______ _____ _____    ______ ____
ROOT
ATOM      1  C   UNL     1       2.072   7.609  19.496  0.00  0.00    +0.000 A 
ATOM      2  C   UNL     1       2.455   7.337  18.178  0.00  0.00    +0.000 A 
ATOM      3  C   UNL     1       2.988   6.098  17.822  0.00  0.00    +0.000 A 
ATOM      4  C   UNL     1       3.156   5.116  18.795  0.00  0.00    +0.000 A 
ATOM      5  C   UNL     1       2.765   5.355  20.114  0.00  0.00    +0.000 A 
ATOM      6  C   UNL     1       2.238   6.608  20.463  0.00  0.00    +0.000 A 
ENDROOT
BRANCH   1   9
ATOM      7  C   UNL     1       0.499   9.012  20.830  0.00  0.00    +0.000 C 
ATOM      8  O   UNL     1      -0.057   8.122  21.461  0.00  0.00    +0.000 OA
ATOM      9  N   UNL     1       1.519   8.850  19.901  0.00  0.00    +0.000 N 
ATOM     10  H   UNL     1       1.992   9.685  19.579  0.00  0.00    +0.000 HD
BRANCH   7  13
ATOM     11  C   UNL     1       0.259  12.752  20.528  0.00  0.00    +0.000 A 
ATOM     12  C   UNL     1       0.641  11.417  20.351  0.00  0.00    +0.000 A 
ATOM     13  C   UNL     1       0.130  10.408  21.166  0.00  0.00    +0.000 A 
ATOM     14  C   UNL     1      -0.682  10.747  22.243  0.00  0.00    +0.000 A 
ATOM     15  C   UNL     1      -1.003  12.094  22.495  0.00  0.00    +0.000 A 
ATOM     16  C   UNL     1      -0.543  13.118  21.630  0.00  0.00    +0.000 A 
BRANCH  11  18
ATOM     17  C   UNL     1      -0.128  13.907  18.495  0.00  0.00    +0.000 C 
ATOM     18  O   UNL     1       0.696  13.706  19.645  0.00  0.00    +0.000 OA
ENDBRANCH  11  18
BRANCH  15  19
ATOM     19  O   UNL     1      -1.789  12.211  23.618  0.00  0.00    +0.000 OA
ATOM     20  C   UNL     1      -3.202  12.270  23.483  0.00  0.00    +0.000 C 
ENDBRANCH  15  19
BRANCH  16  21
ATOM     21  O   UNL     1      -0.911  14.395  21.955  0.00  0.00    +0.000 OA
ATOM     22  C   UNL     1      -0.063  15.223  22.734  0.00  0.00    +0.000 C 
ENDBRANCH  16  21
ENDBRANCH   7  13
ENDBRANCH   1   9
BRANCH   4  23
ATOM     23  S   UNL     1       3.859   3.542  18.324  0.00  0.00    +0.000 S 
ATOM     24  O   UNL     1       3.187   2.503  19.074  0.00  0.00    +0.000 OA
ATOM     25  O   UNL     1       3.909   3.514  16.875  0.00  0.00    +0.000 OA
BRANCH  23  26
ATOM     26  N   UNL     1       5.461   3.683  18.860  0.00  0.00    +0.000 N 
ATOM     27  C   UNL     1       6.243   4.671  18.273  0.00  0.00    +0.000 A 
ATOM     28  C   UNL     1       6.275   6.036  18.617  0.00  0.00    +0.000 A 
ATOM     29  C   UNL     1       7.223   6.568  17.777  0.00  0.00    +0.000 A 
ATOM     30  C   UNL     1       7.796   7.911  17.580  0.00  0.00    +0.000 C 
ATOM     31  O   UNL     1       7.719   5.579  16.982  0.00  0.00    +0.000 OA
ATOM     32  N   UNL     1       7.133   4.374  17.327  0.00  0.00    +0.000 NA
ATOM     33  H   UNL     1       5.896   2.764  18.791  0.00  0.00    +0.000 HD
ENDBRANCH  23  26
ENDBRANCH   4  23
TORSDOF 7
ENDMDL
MODEL 6
REMARK VINA RESULT:      -7.7      2.484      3.447
REMARK  Name = 
REMARK  11 active torsions:
REMARK  status: ('A' for Active; 'I' for Inactive)
REMARK    1  A    between atoms: C_1  and  O_2
REMARK    2  A    between atoms: O_2  and  C_3
REMARK    3  A    between atoms: C_5  and  C_6
REMARK    4  A    between atoms: N_8  and  C_9
REMARK    5  A    between atoms: C_12  and  S_13
REMARK    6  A    between atoms: S_13  and  N_16
REMARK    7  A    between atoms: C_19  and  C_20
REMARK    8  A    between atoms: C_26  and  O_27
REMARK    9  A    between atoms: O_27  and  C_28
REMARK   10  A    between atoms: C_29  and  O_30
REMARK   11  A    between atoms: O_30  and  C_31
REMARK                            x       y       z     vdW  Elec       q    Type
REMARK                         _______ _______ _______ _____ _____    ______ ____
ROOT
ATOM      1  C   UNL     1       2.379   7.855  18.648  0.00  0.00    +0.000 A 
ATOM      2  C   UNL     1       3.206   7.897  17.520  0.00  0.00    +0.000 A 
ATOM      3  C   UNL     1       4.213   6.949  17.328  0.00  0.00    +0.000 A 
ATOM      4  C   UNL     1       4.409   5.952  18.279  0.00  0.00    +0.000 A 
ATOM      5  C   UNL     1       3.586   5.877  19.405  0.00  0.00    +0.000 A 
ATOM      6  C   UNL     1       2.582   6.840  19.593  0.00  0.00    +0.000 A 
ENDROOT
BRANCH   1   9
ATOM      7  C   UNL     1       0.931   9.248  20.126  0.00  0.00    +0.000 C 
ATOM      8  O   UNL     1       1.416   8.941  21.208  0.00  0.00    +0.000 OA
ATOM      9  N   UNL     1       1.340   8.791  18.880  0.00  0.00    +0.000 N 
ATOM     10  H   UNL     1       0.955   9.253  18.066  0.00  0.00    +0.000 HD
BRANCH   7  13
ATOM     11  C   UNL     1      -1.834  11.456  18.855  0.00  0.00    +0.000 A 
ATOM     12  C   UNL     1      -0.757  10.566  18.921  0.00  0.00    +0.000 A 
ATOM     13  C   UNL     1      -0.122  10.292  20.133  0.00  0.00    +0.000 A 
ATOM     14  C   UNL     1      -0.491  11.001  21.270  0.00  0.00    +0.000 A 
ATOM     15  C   UNL     1      -1.509  11.970  21.206  0.00  0.00    +0.000 A 
ATOM     16  C   UNL     1      -2.205  12.203  19.994  0.00  0.00    +0.000 A 
BRANCH  11  18
ATOM     17  C   UNL     1      -3.538  10.671  17.405  0.00  0.00    +0.000 C 
ATOM     18  O   UNL     1      -2.505  11.624  17.670  0.00  0.00    +0.000 OA
ENDBRANCH  11  18
BRANCH  15  19
ATOM     19  O   UNL     1      -1.696  12.571  22.429  0.00  0.00    +0.000 OA
ATOM     20  C   UNL     1      -2.556  11.967  23.384  0.00  0.00    +0.000 C 
ENDBRANCH  15  19
BRANCH  16  21
ATOM     21  O   UNL     1      -3.182  13.161  20.031  0.00  0.00    +0.000 OA
ATOM     22  C   UNL     1      -4.528  12.820  20.323  0.00  0.00    +0.000 C 
ENDBRANCH  16  21
ENDBRANCH   7  13
ENDBRANCH   1   9
BRANCH   4  23
ATOM     23  S   UNL     1       5.716   4.760  18.027  0.00  0.00    +0.000 S 
ATOM     24  O   UNL     1       6.741   5.377  17.212  0.00  0.00    +0.000 OA
ATOM     25  O   UNL     1       6.027   4.187  19.323  0.00  0.00    +0.000 OA
BRANCH  23  26
ATOM     26  N   UNL     1       4.938   3.546  17.136  0.00  0.00    +0.000 N 
ATOM     27  C   UNL     1       3.836   2.934  17.724  0.00  0.00    +0.000 A 
ATOM     28  C   UNL     1       2.514   3.417  17.742  0.00  0.00    +0.000 A 
ATOM     29  C   UNL     1       1.812   2.439  18.404  0.00  0.00    +0.000 A 
ATOM     30  C   UNL     1       0.399   2.248  18.775  0.00  0.00    +0.000 C 
ATOM     31  O   UNL     1       2.667   1.441  18.760  0.00  0.00    +0.000 OA
ATOM     32  N   UNL     1       3.936   1.733  18.290  0.00  0.00    +0.000 NA
ATOM     33  H   UNL     1       5.641   2.867  16.851  0.00  0.00    +0.000 HD
ENDBRANCH  23  26
ENDBRANCH   4  23
TORSDOF 7
ENDMDL
MODEL 7
REMARK VINA RESULT:      -7.7      2.534      3.115
REMARK  Name = 
REMARK  11 active torsions:
REMARK  status: ('A' for Active; 'I' for Inactive)
REMARK    1  A    between atoms: C_1  and  O_2
REMARK    2  A    between atoms: O_2  and  C_3
REMARK    3  A    between atoms: C_5  and  C_6
REMARK    4  A    between atoms: N_8  and  C_9
REMARK    5  A    between atoms: C_12  and  S_13
REMARK    6  A    between atoms: S_13  and  N_16
REMARK    7  A    between atoms: C_19  and  C_20
REMARK    8  A    between atoms: C_26  and  O_27
REMARK    9  A    between atoms: O_27  and  C_28
REMARK   10  A    between atoms: C_29  and  O_30
REMARK   11  A    between atoms: O_30  and  C_31
REMARK                            x       y       z     vdW  Elec       q    Type
REMARK                         _______ _______ _______ _____ _____    ______ ____
ROOT
ATOM      1  C   UNL     1       2.095   7.559  19.429  0.00  0.00    +0.000 A 
ATOM      2  C   UNL     1       2.207   6.524  20.365  0.00  0.00    +0.000 A 
ATOM      3  C   UNL     1       2.763   5.293  20.015  0.00  0.00    +0.000 A 
ATOM      4  C   UNL     1       3.203   5.082  18.711  0.00  0.00    +0.000 A 
ATOM      5  C   UNL     1       3.119   6.104  17.763  0.00  0.00    +0.000 A 
ATOM      6  C   UNL     1       2.551   7.336  18.123  0.00  0.00    +0.000 A 
ENDROOT
BRANCH   1   9
ATOM      7  C   UNL     1       0.593   9.073  20.724  0.00  0.00    +0.000 C 
ATOM      8  O   UNL     1       0.104   8.246  21.484  0.00  0.00    +0.000 OA
ATOM      9  N   UNL     1       1.546   8.828  19.743  0.00  0.00    +0.000 N 
ATOM     10  H   UNL     1       1.975   9.631  19.301  0.00  0.00    +0.000 HD
BRANCH   7  13
ATOM     11  C   UNL     1       0.223  12.751  20.039  0.00  0.00    +0.000 A 
ATOM     12  C   UNL     1       0.624  11.412  19.974  0.00  0.00    +0.000 A 
ATOM     13  C   UNL     1       0.218  10.491  20.940  0.00  0.00    +0.000 A 
ATOM     14  C   UNL     1      -0.499  10.934  22.045  0.00  0.00    +0.000 A 
ATOM     15  C   UNL     1      -0.832  12.295  22.179  0.00  0.00    +0.000 A 
ATOM     16  C   UNL     1      -0.483  13.223  21.167  0.00  0.00    +0.000 A 
BRANCH  11  18
ATOM     17  C   UNL     1       1.812  14.267  19.148  0.00  0.00    +0.000 C 
ATOM     18  O   UNL     1       0.550  13.609  19.020  0.00  0.00    +0.000 OA
ENDBRANCH  11  18
BRANCH  15  19
ATOM     19  O   UNL     1      -1.513  12.523  23.352  0.00  0.00    +0.000 OA
ATOM     20  C   UNL     1      -2.919  12.324  23.398  0.00  0.00    +0.000 C 
ENDBRANCH  15  19
BRANCH  16  21
ATOM     21  O   UNL     1      -0.854  14.523  21.384  0.00  0.00    +0.000 OA
ATOM     22  C   UNL     1      -2.082  15.025  20.881  0.00  0.00    +0.000 C 
ENDBRANCH  16  21
ENDBRANCH   7  13
ENDBRANCH   1   9
BRANCH   4  23
ATOM     23  S   UNL     1       3.893   3.492  18.276  0.00  0.00    +0.000 S 
ATOM     24  O   UNL     1       3.209   2.475  19.047  0.00  0.00    +0.000 OA
ATOM     25  O   UNL     1       3.945   3.432  16.828  0.00  0.00    +0.000 OA
BRANCH  23  26
ATOM     26  N   UNL     1       5.495   3.629  18.812  0.00  0.00    +0.000 N 
ATOM     27  C   UNL     1       6.268   4.638  18.251  0.00  0.00    +0.000 A 
ATOM     28  C   UNL     1       6.292   5.993  18.632  0.00  0.00    +0.000 A 
ATOM     29  C   UNL     1       7.234   6.555  17.805  0.00  0.00    +0.000 A 
ATOM     30  C   UNL     1       7.798   7.906  17.643  0.00  0.00    +0.000 C 
ATOM     31  O   UNL     1       7.735   5.592  16.982  0.00  0.00    +0.000 OA
ATOM     32  N   UNL     1       7.158   4.374  17.295  0.00  0.00    +0.000 NA
ATOM     33  H   UNL     1       5.936   2.716  18.718  0.00  0.00    +0.000 HD
ENDBRANCH  23  26
ENDBRANCH   4  23
TORSDOF 7
ENDMDL
MODEL 8
REMARK VINA RESULT:      -7.6      2.522      3.461
REMARK  Name = 
REMARK  11 active torsions:
REMARK  status: ('A' for Active; 'I' for Inactive)
REMARK    1  A    between atoms: C_1  and  O_2
REMARK    2  A    between atoms: O_2  and  C_3
REMARK    3  A    between atoms: C_5  and  C_6
REMARK    4  A    between atoms: N_8  and  C_9
REMARK    5  A    between atoms: C_12  and  S_13
REMARK    6  A    between atoms: S_13  and  N_16
REMARK    7  A    between atoms: C_19  and  C_20
REMARK    8  A    between atoms: C_26  and  O_27
REMARK    9  A    between atoms: O_27  and  C_28
REMARK   10  A    between atoms: C_29  and  O_30
REMARK   11  A    between atoms: O_30  and  C_31
REMARK                            x       y       z     vdW  Elec       q    Type
REMARK                         _______ _______ _______ _____ _____    ______ ____
ROOT
ATOM      1  C   UNL     1       2.118   7.473  19.373  0.00  0.00    +0.000 A 
ATOM      2  C   UNL     1       2.285   6.463  20.326  0.00  0.00    +0.000 A 
ATOM      3  C   UNL     1       2.867   5.240  19.988  0.00  0.00    +0.000 A 
ATOM      4  C   UNL     1       3.278   5.014  18.677  0.00  0.00    +0.000 A 
ATOM      5  C   UNL     1       3.139   6.012  17.710  0.00  0.00    +0.000 A 
ATOM      6  C   UNL     1       2.545   7.234  18.059  0.00  0.00    +0.000 A 
ENDROOT
BRANCH   1   9
ATOM      7  C   UNL     1       1.056   9.119  20.917  0.00  0.00    +0.000 C 
ATOM      8  O   UNL     1       1.079   8.454  21.945  0.00  0.00    +0.000 OA
ATOM      9  N   UNL     1       1.540   8.733  19.674  0.00  0.00    +0.000 N 
ATOM     10  H   UNL     1       1.601   9.444  18.956  0.00  0.00    +0.000 HD
BRANCH   7  13
ATOM     11  C   UNL     1      -0.681  12.128  22.354  0.00  0.00    +0.000 A 
ATOM     12  C   UNL     1      -0.263  10.816  22.108  0.00  0.00    +0.000 A 
ATOM     13  C   UNL     1       0.568  10.515  21.029  0.00  0.00    +0.000 A 
ATOM     14  C   UNL     1       0.891  11.515  20.119  0.00  0.00    +0.000 A 
ATOM     15  C   UNL     1       0.404  12.823  20.295  0.00  0.00    +0.000 A 
ATOM     16  C   UNL     1      -0.384  13.150  21.427  0.00  0.00    +0.000 A 
BRANCH  11  18
ATOM     17  C   UNL     1      -2.813  12.146  23.390  0.00  0.00    +0.000 C 
ATOM     18  O   UNL     1      -1.411  12.409  23.481  0.00  0.00    +0.000 OA
ENDBRANCH  11  18
BRANCH  15  19
ATOM     19  O   UNL     1       0.815  13.645  19.272  0.00  0.00    +0.000 OA
ATOM     20  C   UNL     1       1.926  13.267  18.472  0.00  0.00    +0.000 C 
ENDBRANCH  15  19
BRANCH  16  21
ATOM     21  O   UNL     1      -0.808  14.449  21.514  0.00  0.00    +0.000 OA
ATOM     22  C   UNL     1      -0.064  15.413  22.241  0.00  0.00    +0.000 C 
ENDBRANCH  16  21
ENDBRANCH   7  13
ENDBRANCH   1   9
BRANCH   4  23
ATOM     23  S   UNL     1       4.002   3.435  18.258  0.00  0.00    +0.000 S 
ATOM     24  O   UNL     1       3.347   2.412  19.045  0.00  0.00    +0.000 OA
ATOM     25  O   UNL     1       4.049   3.358  16.810  0.00  0.00    +0.000 OA
BRANCH  23  26
ATOM     26  N   UNL     1       5.603   3.615  18.783  0.00  0.00    +0.000 N 
ATOM     27  C   UNL     1       6.347   4.643  18.215  0.00  0.00    +0.000 A 
ATOM     28  C   UNL     1       6.337   5.999  18.592  0.00  0.00    +0.000 A 
ATOM     29  C   UNL     1       7.259   6.583  17.758  0.00  0.00    +0.000 A 
ATOM     30  C   UNL     1       7.786   7.948  17.589  0.00  0.00    +0.000 C 
ATOM     31  O   UNL     1       7.780   5.631  16.935  0.00  0.00    +0.000 OA
ATOM     32  N   UNL     1       7.237   4.399  17.254  0.00  0.00    +0.000 NA
ATOM     33  H   UNL     1       6.068   2.714  18.688  0.00  0.00    +0.000 HD
ENDBRANCH  23  26
ENDBRANCH   4  23
TORSDOF 7
ENDMDL
MODEL 9
REMARK VINA RESULT:      -7.6      0.461      2.523
REMARK  Name = 
REMARK  11 active torsions:
REMARK  status: ('A' for Active; 'I' for Inactive)
REMARK    1  A    between atoms: C_1  and  O_2
REMARK    2  A    between atoms: O_2  and  C_3
REMARK    3  A    between atoms: C_5  and  C_6
REMARK    4  A    between atoms: N_8  and  C_9
REMARK    5  A    between atoms: C_12  and  S_13
REMARK    6  A    between atoms: S_13  and  N_16
REMARK    7  A    between atoms: C_19  and  C_20
REMARK    8  A    between atoms: C_26  and  O_27
REMARK    9  A    between atoms: O_27  and  C_28
REMARK   10  A    between atoms: C_29  and  O_30
REMARK   11  A    between atoms: O_30  and  C_31
REMARK                            x       y       z     vdW  Elec       q    Type
REMARK                         _______ _______ _______ _____ _____    ______ ____
ROOT
ATOM      1  C   UNL     1       1.025   8.824  19.782  0.00  0.00    +0.000 A 
ATOM      2  C   UNL     1       1.429   7.724  20.547  0.00  0.00    +0.000 A 
ATOM      3  C   UNL     1       2.394   6.833  20.077  0.00  0.00    +0.000 A 
ATOM      4  C   UNL     1       2.958   7.032  18.820  0.00  0.00    +0.000 A 
ATOM      5  C   UNL     1       2.586   8.132  18.043  0.00  0.00    +0.000 A 
ATOM      6  C   UNL     1       1.609   9.017  18.523  0.00  0.00    +0.000 A 
ENDROOT
BRANCH   1   9
ATOM      7  C   UNL     1       0.304  10.850  21.047  0.00  0.00    +0.000 C 
ATOM      8  O   UNL     1       1.393  11.190  21.493  0.00  0.00    +0.000 OA
ATOM      9  N   UNL     1       0.055   9.759  20.224  0.00  0.00    +0.000 N 
ATOM     10  H   UNL     1      -0.863   9.694  19.803  0.00  0.00    +0.000 HD
BRANCH   7  13
ATOM     11  C   UNL     1      -1.850  13.354  22.843  0.00  0.00    +0.000 A 
ATOM     12  C   UNL     1      -0.864  12.407  22.547  0.00  0.00    +0.000 A 
ATOM     13  C   UNL     1      -0.845  11.748  21.318  0.00  0.00    +0.000 A 
ATOM     14  C   UNL     1      -1.886  11.951  20.419  0.00  0.00    +0.000 A 
ATOM     15  C   UNL     1      -2.938  12.830  20.736  0.00  0.00    +0.000 A 
ATOM     16  C   UNL     1      -2.928  13.555  21.954  0.00  0.00    +0.000 A 
BRANCH  11  18
ATOM     17  C   UNL     1      -0.968  15.237  23.982  0.00  0.00    +0.000 C 
ATOM     18  O   UNL     1      -1.782  14.062  24.016  0.00  0.00    +0.000 OA
ENDBRANCH  11  18
BRANCH  15  19
ATOM     19  O   UNL     1      -3.874  12.863  19.729  0.00  0.00    +0.000 OA
ATOM     20  C   UNL     1      -3.921  11.807  18.780  0.00  0.00    +0.000 C 
ENDBRANCH  15  19
BRANCH  16  21
ATOM     21  O   UNL     1      -3.992  14.388  22.172  0.00  0.00    +0.000 OA
ATOM     22  C   UNL     1      -3.944  15.751  21.781  0.00  0.00    +0.000 C 
ENDBRANCH  16  21
ENDBRANCH   7  13
ENDBRANCH   1   9
BRANCH   4  23
ATOM     23  S   UNL     1       4.178   5.868  18.225  0.00  0.00    +0.000 S 
ATOM     24  O   UNL     1       5.100   5.587  19.304  0.00  0.00    +0.000 OA
ATOM     25  O   UNL     1       3.459   4.804  17.551  0.00  0.00    +0.000 OA
BRANCH  23  26
ATOM     26  N   UNL     1       4.971   6.755  17.017  0.00  0.00    +0.000 N 
ATOM     27  C   UNL     1       5.768   6.044  16.127  0.00  0.00    +0.000 A 
ATOM     28  C   UNL     1       5.339   5.348  14.982  0.00  0.00    +0.000 A 
ATOM     29  C   UNL     1       6.500   4.857  14.437  0.00  0.00    +0.000 A 
ATOM     30  C   UNL     1       6.829   4.063  13.240  0.00  0.00    +0.000 C 
ATOM     31  O   UNL     1       7.552   5.236  15.214  0.00  0.00    +0.000 OA
ATOM     32  N   UNL     1       7.093   6.023  16.256  0.00  0.00    +0.000 NA
ATOM     33  H   UNL     1       5.486   7.509  17.469  0.00  0.00    +0.000 HD
ENDBRANCH  23  26
ENDBRANCH   4  23
TORSDOF 7
ENDMDL
