MODEL 1
REMARK VINA RESULT:      -8.9      0.000      0.000
REMARK  Name = 
REMARK  8 active torsions:
REMARK  status: ('A' for Active; 'I' for Inactive)
REMARK    1  A    between atoms: C_1  and  C_2
REMARK    2  A    between atoms: C_5  and  C_6
REMARK    3  A    between atoms: C_9  and  O_10
REMARK    4  A    between atoms: C_11  and  C_12
REMARK    5  A    between atoms: C_12  and  C_13
REMARK    6  A    between atoms: C_12  and  N_25
REMARK    7  A    between atoms: N_17  and  C_18
REMARK    8  A    between atoms: C_18  and  C_19
REMARK                            x       y       z     vdW  Elec       q    Type
REMARK                         _______ _______ _______ _____ _____    ______ ____
ROOT
ATOM      1  C   UNL     1       0.728  10.337  19.897  0.00  0.00    +0.000 C 
ENDROOT
BRANCH   1  11
ATOM      2  C   UNL     1       1.443   5.057  20.795  0.00  0.00    +0.000 C 
ATOM      3  C   UNL     1       2.362   5.524  19.685  0.00  0.00    +0.000 A 
ATOM      4  C   UNL     1       3.158   4.568  19.052  0.00  0.00    +0.000 A 
ATOM      5  C   UNL     1       3.977   4.933  17.988  0.00  0.00    +0.000 A 
ATOM      6  C   UNL     1       3.926   6.238  17.482  0.00  0.00    +0.000 A 
ATOM      7  C   UNL     1       4.841   6.613  16.345  0.00  0.00    +0.000 C 
ATOM      8  C   UNL     1       3.077   7.208  18.049  0.00  0.00    +0.000 A 
ATOM      9  N   UNL     1       2.983   8.440  17.504  0.00  0.00    +0.000 NA
ATOM     10  C   UNL     1       2.191   9.350  18.108  0.00  0.00    +0.000 A 
ATOM     11  C   UNL     1       1.586   9.211  19.347  0.00  0.00    +0.000 A 
ATOM     12  C   UNL     1       1.653   7.920  19.876  0.00  0.00    +0.000 A 
ATOM     13  C   UNL     1       2.351   6.872  19.221  0.00  0.00    +0.000 A 
BRANCH  10  14
ATOM     14  O   UNL     1       1.887  10.448  17.354  0.00  0.00    +0.000 OA
ATOM     15  H   UNL     1       0.971  10.656  17.583  0.00  0.00    +0.000 HD
ENDBRANCH  10  14
ENDBRANCH   1  11
BRANCH   1  16
ATOM     16  N   UNL     1       0.877  11.768  19.412  0.00  0.00    +0.000 NA
ATOM     17  C   UNL     1       1.870  12.367  20.360  0.00  0.00    +0.000 C 
ATOM     18  C   UNL     1       2.191  13.765  19.937  0.00  0.00    +0.000 C 
ATOM     19  C   UNL     1       1.016  14.516  20.418  0.00  0.00    +0.000 A 
ATOM     20  C   UNL     1       1.150  15.501  21.392  0.00  0.00    +0.000 A 
ATOM     21  C   UNL     1       0.103  16.368  21.598  0.00  0.00    +0.000 A 
ATOM     22  C   UNL     1      -1.043  16.232  20.810  0.00  0.00    +0.000 A 
ATOM     23  C   UNL     1      -1.232  15.089  19.992  0.00  0.00    +0.000 A 
ATOM     24  C   UNL     1      -0.222  14.127  19.896  0.00  0.00    +0.000 A 
ATOM     25  C   UNL     1      -0.374  12.657  19.364  0.00  0.00    +0.000 C 
ENDBRANCH   1  16
BRANCH   1  26
ATOM     26  C   UNL     1       0.728  10.254  21.429  0.00  0.00    +0.000 A 
ATOM     27  N   UNL     1       1.584   9.530  22.131  0.00  0.00    +0.000 NA
ATOM     28  N   UNL     1       1.107   9.481  23.410  0.00  0.00    +0.000 NA
ATOM     29  N   UNL     1      -0.024  10.156  23.522  0.00  0.00    +0.000 NA
ATOM     30  N   UNL     1      -0.255  10.691  22.303  0.00  0.00    +0.000 N 
BRANCH  30  31
ATOM     31  C   UNL     1      -1.561  11.270  22.025  0.00  0.00    +0.000 C 
BRANCH  31  32
ATOM     32  C   UNL     1      -2.028  12.333  22.994  0.00  0.00    +0.000 A 
ATOM     33  C   UNL     1      -1.227  13.430  23.339  0.00  0.00    +0.000 A 
ATOM     34  C   UNL     1      -1.747  14.473  24.107  0.00  0.00    +0.000 A 
ATOM     35  C   UNL     1      -3.073  14.439  24.535  0.00  0.00    +0.000 A 
ATOM     36  C   UNL     1      -3.873  13.344  24.226  0.00  0.00    +0.000 A 
ATOM     37  C   UNL     1      -3.354  12.296  23.462  0.00  0.00    +0.000 A 
ENDBRANCH  31  32
ENDBRANCH  30  31
ENDBRANCH   1  26
TORSDOF 6
ENDMDL
MODEL 2
REMARK VINA RESULT:      -8.1      1.756      3.310
REMARK  Name = 
REMARK  8 active torsions:
REMARK  status: ('A' for Active; 'I' for Inactive)
REMARK    1  A    between atoms: C_1  and  C_2
REMARK    2  A    between atoms: C_5  and  C_6
REMARK    3  A    between atoms: C_9  and  O_10
REMARK    4  A    between atoms: C_11  and  C_12
REMARK    5  A    between atoms: C_12  and  C_13
REMARK    6  A    between atoms: C_12  and  N_25
REMARK    7  A    between atoms: N_17  and  C_18
REMARK    8  A    between atoms: C_18  and  C_19
REMARK                            x       y       z     vdW  Elec       q    Type
REMARK                         _______ _______ _______ _____ _____    ______ ____
ROOT
ATOM      1  C   UNL     1       0.752  10.551  19.716  0.00  0.00    +0.000 C 
ENDROOT
BRANCH   1  11
ATOM      2  C   UNL     1       1.406   5.297  20.795  0.00  0.00    +0.000 C 
ATOM      3  C   UNL     1       2.357   5.724  19.695  0.00  0.00    +0.000 A 
ATOM      4  C   UNL     1       3.162   4.743  19.113  0.00  0.00    +0.000 A 
ATOM      5  C   UNL     1       4.010   5.069  18.059  0.00  0.00    +0.000 A 
ATOM      6  C   UNL     1       3.981   6.358  17.512  0.00  0.00    +0.000 A 
ATOM      7  C   UNL     1       4.927   6.692  16.387  0.00  0.00    +0.000 C 
ATOM      8  C   UNL     1       3.125   7.351  18.026  0.00  0.00    +0.000 A 
ATOM      9  N   UNL     1       3.053   8.566  17.440  0.00  0.00    +0.000 NA
ATOM     10  C   UNL     1       2.253   9.500  17.996  0.00  0.00    +0.000 A 
ATOM     11  C   UNL     1       1.615   9.403  19.223  0.00  0.00    +0.000 A 
ATOM     12  C   UNL     1       1.660   8.129  19.793  0.00  0.00    +0.000 A 
ATOM     13  C   UNL     1       2.367   7.057  19.189  0.00  0.00    +0.000 A 
BRANCH  10  14
ATOM     14  O   UNL     1       1.976  10.575  17.200  0.00  0.00    +0.000 OA
ATOM     15  H   UNL     1       2.707  10.607  16.568  0.00  0.00    +0.000 HD
ENDBRANCH  10  14
ENDBRANCH   1  11
BRANCH   1  16
ATOM     16  N   UNL     1       0.561  10.833  21.195  0.00  0.00    +0.000 NA
ATOM     17  C   UNL     1      -0.720  10.134  21.532  0.00  0.00    +0.000 C 
ATOM     18  C   UNL     1      -0.985  10.244  22.999  0.00  0.00    +0.000 C 
ATOM     19  C   UNL     1      -1.500  11.621  23.122  0.00  0.00    +0.000 A 
ATOM     20  C   UNL     1      -2.801  11.858  23.555  0.00  0.00    +0.000 A 
ATOM     21  C   UNL     1      -3.145  13.134  23.934  0.00  0.00    +0.000 A 
ATOM     22  C   UNL     1      -2.169  14.133  23.882  0.00  0.00    +0.000 A 
ATOM     23  C   UNL     1      -0.932  13.907  23.228  0.00  0.00    +0.000 A 
ATOM     24  C   UNL     1      -0.639  12.643  22.708  0.00  0.00    +0.000 A 
ATOM     25  C   UNL     1       0.473  12.295  21.656  0.00  0.00    +0.000 C 
ENDBRANCH   1  16
BRANCH   1  26
ATOM     26  C   UNL     1      -0.586  10.519  18.967  0.00  0.00    +0.000 A 
ATOM     27  N   UNL     1      -0.962   9.538  18.163  0.00  0.00    +0.000 NA
ATOM     28  N   UNL     1      -2.055   9.983  17.475  0.00  0.00    +0.000 NA
ATOM     29  N   UNL     1      -2.369  11.217  17.831  0.00  0.00    +0.000 NA
ATOM     30  N   UNL     1      -1.492  11.555  18.801  0.00  0.00    +0.000 N 
BRANCH  30  31
ATOM     31  C   UNL     1      -1.403  12.948  19.215  0.00  0.00    +0.000 C 
BRANCH  31  32
ATOM     32  C   UNL     1      -2.598  13.488  19.967  0.00  0.00    +0.000 A 
ATOM     33  C   UNL     1      -2.691  14.831  20.354  0.00  0.00    +0.000 A 
ATOM     34  C   UNL     1      -3.873  15.331  20.902  0.00  0.00    +0.000 A 
ATOM     35  C   UNL     1      -4.980  14.500  21.065  0.00  0.00    +0.000 A 
ATOM     36  C   UNL     1      -4.895  13.156  20.714  0.00  0.00    +0.000 A 
ATOM     37  C   UNL     1      -3.712  12.652  20.170  0.00  0.00    +0.000 A 
ENDBRANCH  31  32
ENDBRANCH  30  31
ENDBRANCH   1  26
TORSDOF 6
ENDMDL
MODEL 3
REMARK VINA RESULT:      -8.1      3.832      7.819
REMARK  Name = 
REMARK  8 active torsions:
REMARK  status: ('A' for Active; 'I' for Inactive)
REMARK    1  A    between atoms: C_1  and  C_2
REMARK    2  A    between atoms: C_5  and  C_6
REMARK    3  A    between atoms: C_9  and  O_10
REMARK    4  A    between atoms: C_11  and  C_12
REMARK    5  A    between atoms: C_12  and  C_13
REMARK    6  A    between atoms: C_12  and  N_25
REMARK    7  A    between atoms: N_17  and  C_18
REMARK    8  A    between atoms: C_18  and  C_19
REMARK                            x       y       z     vdW  Elec       q    Type
REMARK                         _______ _______ _______ _____ _____    ______ ____
ROOT
ATOM      1  C   UNL     1      -0.478  13.310  21.858  0.00  0.00    +0.000 C 
ENDROOT
BRANCH   1  11
ATOM      2  C   UNL     1      -5.796  12.494  21.358  0.00  0.00    +0.000 C 
ATOM      3  C   UNL     1      -5.536  13.695  22.244  0.00  0.00    +0.000 A 
ATOM      4  C   UNL     1      -6.637  14.332  22.819  0.00  0.00    +0.000 A 
ATOM      5  C   UNL     1      -6.451  15.403  23.687  0.00  0.00    +0.000 A 
ATOM      6  C   UNL     1      -5.157  15.778  24.068  0.00  0.00    +0.000 A 
ATOM      7  C   UNL     1      -4.982  16.957  24.990  0.00  0.00    +0.000 C 
ATOM      8  C   UNL     1      -4.025  15.108  23.565  0.00  0.00    +0.000 A 
ATOM      9  N   UNL     1      -2.787  15.430  23.999  0.00  0.00    +0.000 NA
ATOM     10  C   UNL     1      -1.730  14.792  23.455  0.00  0.00    +0.000 A 
ATOM     11  C   UNL     1      -1.763  13.946  22.358  0.00  0.00    +0.000 A 
ATOM     12  C   UNL     1      -3.050  13.586  21.951  0.00  0.00    +0.000 A 
ATOM     13  C   UNL     1      -4.212  14.111  22.572  0.00  0.00    +0.000 A 
BRANCH  10  14
ATOM     14  O   UNL     1      -0.556  14.922  24.143  0.00  0.00    +0.000 OA
ATOM     15  H   UNL     1       0.091  15.187  23.475  0.00  0.00    +0.000 HD
ENDBRANCH  10  14
ENDBRANCH   1  11
BRANCH   1  16
ATOM     16  N   UNL     1       0.164  13.723  20.546  0.00  0.00    +0.000 NA
ATOM     17  C   UNL     1       1.395  14.465  20.966  0.00  0.00    +0.000 C 
ATOM     18  C   UNL     1       2.188  14.853  19.760  0.00  0.00    +0.000 C 
ATOM     19  C   UNL     1       1.443  16.021  19.256  0.00  0.00    +0.000 A 
ATOM     20  C   UNL     1       2.036  17.280  19.214  0.00  0.00    +0.000 A 
ATOM     21  C   UNL     1       1.428  18.269  18.478  0.00  0.00    +0.000 A 
ATOM     22  C   UNL     1       0.250  17.963  17.791  0.00  0.00    +0.000 A 
ATOM     23  C   UNL     1      -0.440  16.749  18.037  0.00  0.00    +0.000 A 
ATOM     24  C   UNL     1       0.107  15.799  18.905  0.00  0.00    +0.000 A 
ATOM     25  C   UNL     1      -0.647  14.599  19.580  0.00  0.00    +0.000 C 
ENDBRANCH   1  16
BRANCH   1  26
ATOM     26  C   UNL     1      -0.606  11.786  21.972  0.00  0.00    +0.000 A 
ATOM     27  N   UNL     1      -0.563  11.122  23.115  0.00  0.00    +0.000 NA
ATOM     28  N   UNL     1      -0.427   9.799  22.803  0.00  0.00    +0.000 NA
ATOM     29  N   UNL     1      -0.384   9.623  21.494  0.00  0.00    +0.000 NA
ATOM     30  N   UNL     1      -0.544  10.850  20.952  0.00  0.00    +0.000 N 
BRANCH  30  31
ATOM     31  C   UNL     1      -0.277  11.032  19.532  0.00  0.00    +0.000 C 
BRANCH  31  32
ATOM     32  C   UNL     1      -1.479  10.938  18.620  0.00  0.00    +0.000 A 
ATOM     33  C   UNL     1      -1.532  10.037  17.547  0.00  0.00    +0.000 A 
ATOM     34  C   UNL     1      -2.714   9.862  16.827  0.00  0.00    +0.000 A 
ATOM     35  C   UNL     1      -3.860  10.577  17.170  0.00  0.00    +0.000 A 
ATOM     36  C   UNL     1      -3.817  11.497  18.212  0.00  0.00    +0.000 A 
ATOM     37  C   UNL     1      -2.634  11.678  18.932  0.00  0.00    +0.000 A 
ENDBRANCH  31  32
ENDBRANCH  30  31
ENDBRANCH   1  26
TORSDOF 6
ENDMDL
MODEL 4
REMARK VINA RESULT:      -7.9      2.758      4.437
REMARK  Name = 
REMARK  8 active torsions:
REMARK  status: ('A' for Active; 'I' for Inactive)
REMARK    1  A    between atoms: C_1  and  C_2
REMARK    2  A    between atoms: C_5  and  C_6
REMARK    3  A    between atoms: C_9  and  O_10
REMARK    4  A    between atoms: C_11  and  C_12
REMARK    5  A    between atoms: C_12  and  C_13
REMARK    6  A    between atoms: C_12  and  N_25
REMARK    7  A    between atoms: N_17  and  C_18
REMARK    8  A    between atoms: C_18  and  C_19
REMARK                            x       y       z     vdW  Elec       q    Type
REMARK                         _______ _______ _______ _____ _____    ______ ____
ROOT
ATOM      1  C   UNL     1      -1.592  13.746  20.267  0.00  0.00    +0.000 C 
ENDROOT
BRANCH   1  11
ATOM      2  C   UNL     1      -0.008   9.494  23.200  0.00  0.00    +0.000 C 
ATOM      3  C   UNL     1       0.527   9.378  21.788  0.00  0.00    +0.000 A 
ATOM      4  C   UNL     1       1.247   8.230  21.455  0.00  0.00    +0.000 A 
ATOM      5  C   UNL     1       1.710   8.046  20.156  0.00  0.00    +0.000 A 
ATOM      6  C   UNL     1       1.366   8.963  19.155  0.00  0.00    +0.000 A 
ATOM      7  C   UNL     1       1.900   8.753  17.762  0.00  0.00    +0.000 C 
ATOM      8  C   UNL     1       0.576  10.093  19.440  0.00  0.00    +0.000 A 
ATOM      9  N   UNL     1       0.189  10.927  18.451  0.00  0.00    +0.000 NA
ATOM     10  C   UNL     1      -0.527  12.022  18.779  0.00  0.00    +0.000 A 
ATOM     11  C   UNL     1      -0.770  12.485  20.063  0.00  0.00    +0.000 A 
ATOM     12  C   UNL     1      -0.405  11.592  21.072  0.00  0.00    +0.000 A 
ATOM     13  C   UNL     1       0.226  10.353  20.791  0.00  0.00    +0.000 A 
BRANCH  10  14
ATOM     14  O   UNL     1      -1.153  12.642  17.734  0.00  0.00    +0.000 OA
ATOM     15  H   UNL     1      -2.041  12.837  18.061  0.00  0.00    +0.000 HD
ENDBRANCH  10  14
ENDBRANCH   1  11
BRANCH   1  16
ATOM     16  N   UNL     1      -0.951  15.122  20.307  0.00  0.00    +0.000 NA
ATOM     17  C   UNL     1      -1.998  16.023  19.728  0.00  0.00    +0.000 C 
ATOM     18  C   UNL     1      -1.536  17.443  19.797  0.00  0.00    +0.000 C 
ATOM     19  C   UNL     1      -0.594  17.522  18.665  0.00  0.00    +0.000 A 
ATOM     20  C   UNL     1      -0.844  18.365  17.587  0.00  0.00    +0.000 A 
ATOM     21  C   UNL     1       0.179  18.631  16.708  0.00  0.00    +0.000 A 
ATOM     22  C   UNL     1       1.430  18.054  16.945  0.00  0.00    +0.000 A 
ATOM     23  C   UNL     1       1.588  17.032  17.914  0.00  0.00    +0.000 A 
ATOM     24  C   UNL     1       0.503  16.655  18.713  0.00  0.00    +0.000 A 
ATOM     25  C   UNL     1       0.370  15.336  19.554  0.00  0.00    +0.000 C 
ENDBRANCH   1  16
BRANCH   1  26
ATOM     26  C   UNL     1      -2.544  13.528  21.448  0.00  0.00    +0.000 A 
ATOM     27  N   UNL     1      -3.850  13.363  21.326  0.00  0.00    +0.000 NA
ATOM     28  N   UNL     1      -4.386  13.481  22.577  0.00  0.00    +0.000 NA
ATOM     29  N   UNL     1      -3.445  13.716  23.476  0.00  0.00    +0.000 NA
ATOM     30  N   UNL     1      -2.277  13.701  22.797  0.00  0.00    +0.000 N 
BRANCH  30  31
ATOM     31  C   UNL     1      -1.075  14.193  23.456  0.00  0.00    +0.000 C 
BRANCH  31  32
ATOM     32  C   UNL     1      -1.207  15.528  24.153  0.00  0.00    +0.000 A 
ATOM     33  C   UNL     1      -1.503  16.707  23.456  0.00  0.00    +0.000 A 
ATOM     34  C   UNL     1      -1.778  17.888  24.146  0.00  0.00    +0.000 A 
ATOM     35  C   UNL     1      -1.766  17.909  25.539  0.00  0.00    +0.000 A 
ATOM     36  C   UNL     1      -1.445  16.755  26.247  0.00  0.00    +0.000 A 
ATOM     37  C   UNL     1      -1.165  15.572  25.559  0.00  0.00    +0.000 A 
ENDBRANCH  31  32
ENDBRANCH  30  31
ENDBRANCH   1  26
TORSDOF 6
ENDMDL
MODEL 5
REMARK VINA RESULT:      -7.9      2.568      7.427
REMARK  Name = 
REMARK  8 active torsions:
REMARK  status: ('A' for Active; 'I' for Inactive)
REMARK    1  A    between atoms: C_1  and  C_2
REMARK    2  A    between atoms: C_5  and  C_6
REMARK    3  A    between atoms: C_9  and  O_10
REMARK    4  A    between atoms: C_11  and  C_12
REMARK    5  A    between atoms: C_12  and  C_13
REMARK    6  A    between atoms: C_12  and  N_25
REMARK    7  A    between atoms: N_17  and  C_18
REMARK    8  A    between atoms: C_18  and  C_19
REMARK                            x       y       z     vdW  Elec       q    Type
REMARK                         _______ _______ _______ _____ _____    ______ ____
ROOT
ATOM      1  C   UNL     1      -0.604  12.816  21.179  0.00  0.00    +0.000 C 
ENDROOT
BRANCH   1  11
ATOM      2  C   UNL     1      -2.201  17.528  19.069  0.00  0.00    +0.000 C 
ATOM      3  C   UNL     1      -0.770  17.237  18.666  0.00  0.00    +0.000 A 
ATOM      4  C   UNL     1      -0.095  18.200  17.914  0.00  0.00    +0.000 A 
ATOM      5  C   UNL     1       1.239  18.010  17.568  0.00  0.00    +0.000 A 
ATOM      6  C   UNL     1       1.938  16.901  18.061  0.00  0.00    +0.000 A 
ATOM      7  C   UNL     1       3.375  16.706  17.651  0.00  0.00    +0.000 C 
ATOM      8  C   UNL     1       1.308  15.949  18.886  0.00  0.00    +0.000 A 
ATOM      9  N   UNL     1       2.014  14.926  19.415  0.00  0.00    +0.000 NA
ATOM     10  C   UNL     1       1.358  14.013  20.161  0.00  0.00    +0.000 A 
ATOM     11  C   UNL     1      -0.017  13.912  20.307  0.00  0.00    +0.000 A 
ATOM     12  C   UNL     1      -0.728  15.000  19.794  0.00  0.00    +0.000 A 
ATOM     13  C   UNL     1      -0.086  16.070  19.120  0.00  0.00    +0.000 A 
BRANCH  10  14
ATOM     14  O   UNL     1       2.154  13.202  20.920  0.00  0.00    +0.000 OA
ATOM     15  H   UNL     1       1.546  12.566  21.320  0.00  0.00    +0.000 HD
ENDBRANCH  10  14
ENDBRANCH   1  11
BRANCH   1  16
ATOM     16  N   UNL     1      -0.796  11.401  20.666  0.00  0.00    +0.000 NA
ATOM     17  C   UNL     1      -0.083  10.553  21.673  0.00  0.00    +0.000 C 
ATOM     18  C   UNL     1      -0.274   9.108  21.344  0.00  0.00    +0.000 C 
ATOM     19  C   UNL     1       0.682   8.908  20.240  0.00  0.00    +0.000 A 
ATOM     20  C   UNL     1       1.758   8.036  20.378  0.00  0.00    +0.000 A 
ATOM     21  C   UNL     1       2.445   7.655  19.250  0.00  0.00    +0.000 A 
ATOM     22  C   UNL     1       2.024   8.149  18.012  0.00  0.00    +0.000 A 
ATOM     23  C   UNL     1       1.077   9.201  17.933  0.00  0.00    +0.000 A 
ATOM     24  C   UNL     1       0.482   9.693  19.099  0.00  0.00    +0.000 A 
ATOM     25  C   UNL     1      -0.280  11.056  19.261  0.00  0.00    +0.000 C 
ENDBRANCH   1  16
BRANCH   1  26
ATOM     26  C   UNL     1      -1.871  13.352  21.857  0.00  0.00    +0.000 A 
ATOM     27  N   UNL     1      -3.089  13.224  21.357  0.00  0.00    +0.000 NA
ATOM     28  N   UNL     1      -3.903  14.052  22.077  0.00  0.00    +0.000 NA
ATOM     29  N   UNL     1      -3.222  14.692  23.012  0.00  0.00    +0.000 NA
ATOM     30  N   UNL     1      -1.956  14.231  22.925  0.00  0.00    +0.000 N 
BRANCH  30  31
ATOM     31  C   UNL     1      -0.901  14.934  23.642  0.00  0.00    +0.000 C 
BRANCH  31  32
ATOM     32  C   UNL     1      -0.378  16.187  22.978  0.00  0.00    +0.000 A 
ATOM     33  C   UNL     1      -1.208  17.276  22.681  0.00  0.00    +0.000 A 
ATOM     34  C   UNL     1      -0.666  18.476  22.218  0.00  0.00    +0.000 A 
ATOM     35  C   UNL     1       0.711  18.608  22.050  0.00  0.00    +0.000 A 
ATOM     36  C   UNL     1       1.548  17.527  22.311  0.00  0.00    +0.000 A 
ATOM     37  C   UNL     1       1.008  16.324  22.770  0.00  0.00    +0.000 A 
ENDBRANCH  31  32
ENDBRANCH  30  31
ENDBRANCH   1  26
TORSDOF 6
ENDMDL
MODEL 6
REMARK VINA RESULT:      -7.9      6.011      9.255
REMARK  Name = 
REMARK  8 active torsions:
REMARK  status: ('A' for Active; 'I' for Inactive)
REMARK    1  A    between atoms: C_1  and  C_2
REMARK    2  A    between atoms: C_5  and  C_6
REMARK    3  A    between atoms: C_9  and  O_10
REMARK    4  A    between atoms: C_11  and  C_12
REMARK    5  A    between atoms: C_12  and  C_13
REMARK    6  A    between atoms: C_12  and  N_25
REMARK    7  A    between atoms: N_17  and  C_18
REMARK    8  A    between atoms: C_18  and  C_19
REMARK                            x       y       z     vdW  Elec       q    Type
REMARK                         _______ _______ _______ _____ _____    ______ ____
ROOT
ATOM      1  C   UNL     1       5.339  16.169  20.192  0.00  0.00    +0.000 C 
ENDROOT
BRANCH   1  11
ATOM      2  C   UNL     1       9.959  13.726  21.567  0.00  0.00    +0.000 C 
ATOM      3  C   UNL     1       8.795  13.080  22.290  0.00  0.00    +0.000 A 
ATOM      4  C   UNL     1       9.077  12.059  23.199  0.00  0.00    +0.000 A 
ATOM      5  C   UNL     1       8.051  11.472  23.933  0.00  0.00    +0.000 A 
ATOM      6  C   UNL     1       6.748  11.975  23.839  0.00  0.00    +0.000 A 
ATOM      7  C   UNL     1       5.651  11.306  24.626  0.00  0.00    +0.000 C 
ATOM      8  C   UNL     1       6.442  13.055  22.988  0.00  0.00    +0.000 A 
ATOM      9  N   UNL     1       5.197  13.578  22.963  0.00  0.00    +0.000 NA
ATOM     10  C   UNL     1       4.939  14.581  22.099  0.00  0.00    +0.000 A 
ATOM     11  C   UNL     1       5.781  15.029  21.093  0.00  0.00    +0.000 A 
ATOM     12  C   UNL     1       7.078  14.513  21.160  0.00  0.00    +0.000 A 
ATOM     13  C   UNL     1       7.460  13.557  22.136  0.00  0.00    +0.000 A 
BRANCH  10  14
ATOM     14  O   UNL     1       3.785  15.272  22.338  0.00  0.00    +0.000 OA
ATOM     15  H   UNL     1       3.213  15.061  21.588  0.00  0.00    +0.000 HD
ENDBRANCH  10  14
ENDBRANCH   1  11
BRANCH   1  16
ATOM     16  N   UNL     1       4.320  15.965  19.085  0.00  0.00    +0.000 NA
ATOM     17  C   UNL     1       3.150  16.793  19.518  0.00  0.00    +0.000 C 
ATOM     18  C   UNL     1       2.093  16.766  18.462  0.00  0.00    +0.000 C 
ATOM     19  C   UNL     1       1.465  15.450  18.679  0.00  0.00    +0.000 A 
ATOM     20  C   UNL     1       0.131  15.352  19.063  0.00  0.00    +0.000 A 
ATOM     21  C   UNL     1      -0.492  14.129  18.970  0.00  0.00    +0.000 A 
ATOM     22  C   UNL     1       0.238  13.042  18.481  0.00  0.00    +0.000 A 
ATOM     23  C   UNL     1       1.644  13.126  18.315  0.00  0.00    +0.000 A 
ATOM     24  C   UNL     1       2.303  14.337  18.553  0.00  0.00    +0.000 A 
ATOM     25  C   UNL     1       3.843  14.537  18.784  0.00  0.00    +0.000 C 
ENDBRANCH   1  16
BRANCH   1  26
ATOM     26  C   UNL     1       6.584  16.911  19.689  0.00  0.00    +0.000 A 
ATOM     27  N   UNL     1       6.901  18.146  20.037  0.00  0.00    +0.000 NA
ATOM     28  N   UNL     1       7.891  18.557  19.190  0.00  0.00    +0.000 NA
ATOM     29  N   UNL     1       8.199  17.607  18.324  0.00  0.00    +0.000 NA
ATOM     30  N   UNL     1       7.426  16.548  18.649  0.00  0.00    +0.000 N 
BRANCH  30  31
ATOM     31  C   UNL     1       7.334  15.432  17.719  0.00  0.00    +0.000 C 
BRANCH  31  32
ATOM     32  C   UNL     1       8.366  14.341  17.896  0.00  0.00    +0.000 A 
ATOM     33  C   UNL     1       8.026  12.982  17.867  0.00  0.00    +0.000 A 
ATOM     34  C   UNL     1       9.021  12.003  17.871  0.00  0.00    +0.000 A 
ATOM     35  C   UNL     1      10.366  12.366  17.900  0.00  0.00    +0.000 A 
ATOM     36  C   UNL     1      10.720  13.710  17.959  0.00  0.00    +0.000 A 
ATOM     37  C   UNL     1       9.727  14.692  17.959  0.00  0.00    +0.000 A 
ENDBRANCH  31  32
ENDBRANCH  30  31
ENDBRANCH   1  26
TORSDOF 6
ENDMDL
MODEL 7
REMARK VINA RESULT:      -7.8      2.889      5.368
REMARK  Name = 
REMARK  8 active torsions:
REMARK  status: ('A' for Active; 'I' for Inactive)
REMARK    1  A    between atoms: C_1  and  C_2
REMARK    2  A    between atoms: C_5  and  C_6
REMARK    3  A    between atoms: C_9  and  O_10
REMARK    4  A    between atoms: C_11  and  C_12
REMARK    5  A    between atoms: C_12  and  C_13
REMARK    6  A    between atoms: C_12  and  N_25
REMARK    7  A    between atoms: N_17  and  C_18
REMARK    8  A    between atoms: C_18  and  C_19
REMARK                            x       y       z     vdW  Elec       q    Type
REMARK                         _______ _______ _______ _____ _____    ______ ____
ROOT
ATOM      1  C   UNL     1      -1.746  13.882  20.774  0.00  0.00    +0.000 C 
ENDROOT
BRANCH   1  11
ATOM      2  C   UNL     1      -0.006   9.447  23.324  0.00  0.00    +0.000 C 
ATOM      3  C   UNL     1       0.478   9.444  21.888  0.00  0.00    +0.000 A 
ATOM      4  C   UNL     1       1.198   8.333  21.445  0.00  0.00    +0.000 A 
ATOM      5  C   UNL     1       1.614   8.252  20.120  0.00  0.00    +0.000 A 
ATOM      6  C   UNL     1       1.223   9.236  19.203  0.00  0.00    +0.000 A 
ATOM      7  C   UNL     1       1.708   9.137  17.780  0.00  0.00    +0.000 C 
ATOM      8  C   UNL     1       0.432  10.331  19.600  0.00  0.00    +0.000 A 
ATOM      9  N   UNL     1      -0.001  11.231  18.691  0.00  0.00    +0.000 NA
ATOM     10  C   UNL     1      -0.718  12.288  19.125  0.00  0.00    +0.000 A 
ATOM     11  C   UNL     1      -0.918  12.651  20.447  0.00  0.00    +0.000 A 
ATOM     12  C   UNL     1      -0.506  11.690  21.374  0.00  0.00    +0.000 A 
ATOM     13  C   UNL     1       0.129  10.485  20.978  0.00  0.00    +0.000 A 
BRANCH  10  14
ATOM     14  O   UNL     1      -1.388  12.975  18.152  0.00  0.00    +0.000 OA
ATOM     15  H   UNL     1      -2.298  12.652  18.207  0.00  0.00    +0.000 HD
ENDBRANCH  10  14
ENDBRANCH   1  11
BRANCH   1  16
ATOM     16  N   UNL     1      -3.173  14.041  20.283  0.00  0.00    +0.000 NA
ATOM     17  C   UNL     1      -3.759  15.065  21.205  0.00  0.00    +0.000 C 
ATOM     18  C   UNL     1      -5.151  15.398  20.773  0.00  0.00    +0.000 C 
ATOM     19  C   UNL     1      -5.920  14.247  21.281  0.00  0.00    +0.000 A 
ATOM     20  C   UNL     1      -6.904  14.419  22.250  0.00  0.00    +0.000 A 
ATOM     21  C   UNL     1      -7.788  13.391  22.480  0.00  0.00    +0.000 A 
ATOM     22  C   UNL     1      -7.669  12.224  21.720  0.00  0.00    +0.000 A 
ATOM     23  C   UNL     1      -6.528  11.998  20.909  0.00  0.00    +0.000 A 
ATOM     24  C   UNL     1      -5.549  12.990  20.790  0.00  0.00    +0.000 A 
ATOM     25  C   UNL     1      -4.082  12.803  20.264  0.00  0.00    +0.000 C 
ENDBRANCH   1  16
BRANCH   1  26
ATOM     26  C   UNL     1      -0.904  15.132  20.488  0.00  0.00    +0.000 A 
ATOM     27  N   UNL     1      -0.545  15.522  19.277  0.00  0.00    +0.000 NA
ATOM     28  N   UNL     1       0.409  16.486  19.436  0.00  0.00    +0.000 NA
ATOM     29  N   UNL     1       0.653  16.706  20.717  0.00  0.00    +0.000 NA
ATOM     30  N   UNL     1      -0.195  15.903  21.396  0.00  0.00    +0.000 N 
BRANCH  30  31
ATOM     31  C   UNL     1       0.009  15.713  22.825  0.00  0.00    +0.000 C 
BRANCH  31  32
ATOM     32  C   UNL     1      -1.212  15.911  23.694  0.00  0.00    +0.000 A 
ATOM     33  C   UNL     1      -1.916  17.122  23.726  0.00  0.00    +0.000 A 
ATOM     34  C   UNL     1      -3.127  17.220  24.412  0.00  0.00    +0.000 A 
ATOM     35  C   UNL     1      -3.655  16.111  25.071  0.00  0.00    +0.000 A 
ATOM     36  C   UNL     1      -2.954  14.909  25.075  0.00  0.00    +0.000 A 
ATOM     37  C   UNL     1      -1.740  14.809  24.393  0.00  0.00    +0.000 A 
ENDBRANCH  31  32
ENDBRANCH  30  31
ENDBRANCH   1  26
TORSDOF 6
ENDMDL
MODEL 8
REMARK VINA RESULT:      -7.8      3.149      4.752
REMARK  Name = 
REMARK  8 active torsions:
REMARK  status: ('A' for Active; 'I' for Inactive)
REMARK    1  A    between atoms: C_1  and  C_2
REMARK    2  A    between atoms: C_5  and  C_6
REMARK    3  A    between atoms: C_9  and  O_10
REMARK    4  A    between atoms: C_11  and  C_12
REMARK    5  A    between atoms: C_12  and  C_13
REMARK    6  A    between atoms: C_12  and  N_25
REMARK    7  A    between atoms: N_17  and  C_18
REMARK    8  A    between atoms: C_18  and  C_19
REMARK                            x       y       z     vdW  Elec       q    Type
REMARK                         _______ _______ _______ _____ _____    ______ ____
ROOT
ATOM      1  C   UNL     1      -1.218  14.322  20.680  0.00  0.00    +0.000 C 
ENDROOT
BRANCH   1  11
ATOM      2  C   UNL     1      -0.052   9.748  23.310  0.00  0.00    +0.000 C 
ATOM      3  C   UNL     1       0.453   9.670  21.884  0.00  0.00    +0.000 A 
ATOM      4  C   UNL     1       1.047   8.477  21.467  0.00  0.00    +0.000 A 
ATOM      5  C   UNL     1       1.474   8.332  20.151  0.00  0.00    +0.000 A 
ATOM      6  C   UNL     1       1.216   9.342  19.216  0.00  0.00    +0.000 A 
ATOM      7  C   UNL     1       1.712   9.170  17.803  0.00  0.00    +0.000 C 
ATOM      8  C   UNL     1       0.551  10.527  19.586  0.00  0.00    +0.000 A 
ATOM      9  N   UNL     1       0.242  11.459  18.659  0.00  0.00    +0.000 NA
ATOM     10  C   UNL     1      -0.354  12.598  19.068  0.00  0.00    +0.000 A 
ATOM     11  C   UNL     1      -0.534  12.999  20.383  0.00  0.00    +0.000 A 
ATOM     12  C   UNL     1      -0.253  12.009  21.327  0.00  0.00    +0.000 A 
ATOM     13  C   UNL     1       0.244  10.733  20.957  0.00  0.00    +0.000 A 
BRANCH  10  14
ATOM     14  O   UNL     1      -0.923  13.345  18.075  0.00  0.00    +0.000 OA
ATOM     15  H   UNL     1      -0.338  13.227  17.314  0.00  0.00    +0.000 HD
ENDBRANCH  10  14
ENDBRANCH   1  11
BRANCH   1  16
ATOM     16  N   UNL     1      -0.512  15.651  20.484  0.00  0.00    +0.000 NA
ATOM     17  C   UNL     1      -1.511  16.482  19.740  0.00  0.00    +0.000 C 
ATOM     18  C   UNL     1      -0.982  17.869  19.561  0.00  0.00    +0.000 C 
ATOM     19  C   UNL     1      -0.031  17.701  18.447  0.00  0.00    +0.000 A 
ATOM     20  C   UNL     1      -0.236  18.349  17.232  0.00  0.00    +0.000 A 
ATOM     21  C   UNL     1       0.803  18.406  16.334  0.00  0.00    +0.000 A 
ATOM     22  C   UNL     1       2.024  17.823  16.686  0.00  0.00    +0.000 A 
ATOM     23  C   UNL     1       2.127  16.983  17.824  0.00  0.00    +0.000 A 
ATOM     24  C   UNL     1       1.022  16.806  18.662  0.00  0.00    +0.000 A 
ATOM     25  C   UNL     1       0.821  15.665  19.722  0.00  0.00    +0.000 C 
ENDBRANCH   1  16
BRANCH   1  26
ATOM     26  C   UNL     1      -1.887  14.232  22.057  0.00  0.00    +0.000 A 
ATOM     27  N   UNL     1      -1.315  14.616  23.186  0.00  0.00    +0.000 NA
ATOM     28  N   UNL     1      -2.082  14.131  24.207  0.00  0.00    +0.000 NA
ATOM     29  N   UNL     1      -3.118  13.454  23.742  0.00  0.00    +0.000 NA
ATOM     30  N   UNL     1      -3.043  13.546  22.396  0.00  0.00    +0.000 N 
BRANCH  30  31
ATOM     31  C   UNL     1      -3.889  12.682  21.584  0.00  0.00    +0.000 C 
BRANCH  31  32
ATOM     32  C   UNL     1      -5.252  13.235  21.237  0.00  0.00    +0.000 A 
ATOM     33  C   UNL     1      -5.638  14.538  21.582  0.00  0.00    +0.000 A 
ATOM     34  C   UNL     1      -6.837  15.071  21.107  0.00  0.00    +0.000 A 
ATOM     35  C   UNL     1      -7.664  14.315  20.279  0.00  0.00    +0.000 A 
ATOM     36  C   UNL     1      -7.312  13.009  19.952  0.00  0.00    +0.000 A 
ATOM     37  C   UNL     1      -6.115  12.472  20.429  0.00  0.00    +0.000 A 
ENDBRANCH  31  32
ENDBRANCH  30  31
ENDBRANCH   1  26
TORSDOF 6
ENDMDL
MODEL 9
REMARK VINA RESULT:      -7.7      3.164      5.883
REMARK  Name = 
REMARK  8 active torsions:
REMARK  status: ('A' for Active; 'I' for Inactive)
REMARK    1  A    between atoms: C_1  and  C_2
REMARK    2  A    between atoms: C_5  and  C_6
REMARK    3  A    between atoms: C_9  and  O_10
REMARK    4  A    between atoms: C_11  and  C_12
REMARK    5  A    between atoms: C_12  and  C_13
REMARK    6  A    between atoms: C_12  and  N_25
REMARK    7  A    between atoms: N_17  and  C_18
REMARK    8  A    between atoms: C_18  and  C_19
REMARK                            x       y       z     vdW  Elec       q    Type
REMARK                         _______ _______ _______ _____ _____    ______ ____
ROOT
ATOM      1  C   UNL     1      -1.364  12.297  21.355  0.00  0.00    +0.000 C 
ENDROOT
BRANCH   1  11
ATOM      2  C   UNL     1       2.187  11.025  17.487  0.00  0.00    +0.000 C 
ATOM      3  C   UNL     1       1.910   9.815  18.354  0.00  0.00    +0.000 A 
ATOM      4  C   UNL     1       2.619   8.643  18.086  0.00  0.00    +0.000 A 
ATOM      5  C   UNL     1       2.446   7.521  18.890  0.00  0.00    +0.000 A 
ATOM      6  C   UNL     1       1.639   7.596  20.031  0.00  0.00    +0.000 A 
ATOM      7  C   UNL     1       1.448   6.359  20.870  0.00  0.00    +0.000 C 
ATOM      8  C   UNL     1       0.968   8.786  20.374  0.00  0.00    +0.000 A 
ATOM      9  N   UNL     1       0.254   8.867  21.518  0.00  0.00    +0.000 NA
ATOM     10  C   UNL     1      -0.408  10.012  21.781  0.00  0.00    +0.000 A 
ATOM     11  C   UNL     1      -0.580  11.075  20.909  0.00  0.00    +0.000 A 
ATOM     12  C   UNL     1       0.200  10.999  19.753  0.00  0.00    +0.000 A 
ATOM     13  C   UNL     1       1.033   9.884  19.477  0.00  0.00    +0.000 A 
BRANCH  10  14
ATOM     14  O   UNL     1      -0.838  10.151  23.071  0.00  0.00    +0.000 OA
ATOM     15  H   UNL     1      -1.627   9.595  23.128  0.00  0.00    +0.000 HD
ENDBRANCH  10  14
ENDBRANCH   1  11
BRANCH   1  16
ATOM     16  N   UNL     1      -2.533  12.836  20.549  0.00  0.00    +0.000 NA
ATOM     17  C   UNL     1      -3.641  12.942  21.551  0.00  0.00    +0.000 C 
ATOM     18  C   UNL     1      -4.843  13.560  20.912  0.00  0.00    +0.000 C 
ATOM     19  C   UNL     1      -5.406  12.432  20.147  0.00  0.00    +0.000 A 
ATOM     20  C   UNL     1      -6.667  11.926  20.449  0.00  0.00    +0.000 A 
ATOM     21  C   UNL     1      -7.273  11.087  19.544  0.00  0.00    +0.000 A 
ATOM     22  C   UNL     1      -6.603  10.793  18.353  0.00  0.00    +0.000 A 
ATOM     23  C   UNL     1      -5.240  11.140  18.180  0.00  0.00    +0.000 A 
ATOM     24  C   UNL     1      -4.576  11.870  19.171  0.00  0.00    +0.000 A 
ATOM     25  C   UNL     1      -3.023  12.027  19.340  0.00  0.00    +0.000 C 
ENDBRANCH   1  16
BRANCH   1  26
ATOM     26  C   UNL     1      -0.376  13.406  21.735  0.00  0.00    +0.000 A 
ATOM     27  N   UNL     1      -0.186  13.838  22.970  0.00  0.00    +0.000 NA
ATOM     28  N   UNL     1       0.537  14.993  22.882  0.00  0.00    +0.000 NA
ATOM     29  N   UNL     1       0.802  15.292  21.621  0.00  0.00    +0.000 NA
ATOM     30  N   UNL     1       0.281  14.284  20.887  0.00  0.00    +0.000 N 
BRANCH  30  31
ATOM     31  C   UNL     1       0.171  14.449  19.445  0.00  0.00    +0.000 C 
BRANCH  31  32
ATOM     32  C   UNL     1       1.270  15.255  18.790  0.00  0.00    +0.000 A 
ATOM     33  C   UNL     1       2.460  14.666  18.341  0.00  0.00    +0.000 A 
ATOM     34  C   UNL     1       3.380  15.407  17.598  0.00  0.00    +0.000 A 
ATOM     35  C   UNL     1       3.125  16.742  17.289  0.00  0.00    +0.000 A 
ATOM     36  C   UNL     1       1.963  17.351  17.753  0.00  0.00    +0.000 A 
ATOM     37  C   UNL     1       1.042  16.613  18.500  0.00  0.00    +0.000 A 
ENDBRANCH  31  32
ENDBRANCH  30  31
ENDBRANCH   1  26
TORSDOF 6
ENDMDL
