MODEL 1
REMARK VINA RESULT:      -8.0      0.000      0.000
REMARK  Name = 
REMARK  7 active torsions:
REMARK  status: ('A' for Active; 'I' for Inactive)
REMARK    1  A    between atoms: C_1  and  O_2
REMARK    2  A    between atoms: O_2  and  C_3
REMARK    3  A    between atoms: C_6  and  N_7
REMARK    4  A    between atoms: C_11  and  C_13
REMARK    5  A    between atoms: C_17  and  O_18
REMARK    6  A    between atoms: O_18  and  C_19
REMARK    7  A    between atoms: C_19  and  C_20
REMARK                            x       y       z     vdW  Elec       q    Type
REMARK                         _______ _______ _______ _____ _____    ______ ____
ROOT
ATOM      1  C   UNL     1       1.692   7.892  20.293  0.00  0.00    +0.000 A 
ATOM      2  C   UNL     1       2.246   8.148  19.094  0.00  0.00    +0.000 A 
ATOM      3  C   UNL     1       2.878   7.030  18.338  0.00  0.00    +0.000 A 
ATOM      4  O   UNL     1       3.399   7.245  17.248  0.00  0.00    +0.000 OA
ATOM      5  C   UNL     1       2.831   5.650  18.953  0.00  0.00    +0.000 A 
ATOM      6  C   UNL     1       2.271   5.565  20.163  0.00  0.00    +0.000 A 
ATOM      7  N   UNL     1       1.758   6.629  20.843  0.00  0.00    +0.000 N 
ATOM      8  H   UNL     1       1.687   6.564  21.852  0.00  0.00    +0.000 HD
ENDROOT
BRANCH   1  13
ATOM      9  N   UNL     1       1.056  12.984  19.562  0.00  0.00    +0.000 N 
ATOM     10  C   UNL     1       0.798  12.689  20.978  0.00  0.00    +0.000 C 
ATOM     11  C   UNL     1       0.095  11.319  21.073  0.00  0.00    +0.000 C 
ATOM     12  N   UNL     1       0.840  10.255  20.367  0.00  0.00    +0.000 N 
ATOM     13  C   UNL     1       1.020   9.038  21.014  0.00  0.00    +0.000 C 
ATOM     14  O   UNL     1       0.655   8.867  22.189  0.00  0.00    +0.000 OA
ATOM     15  C   UNL     1       1.234  10.625  18.991  0.00  0.00    +0.000 C 
ATOM     16  C   UNL     1       1.899  11.997  18.890  0.00  0.00    +0.000 C 
BRANCH   9  20
ATOM     17  C   UNL     1       0.812  16.960  18.222  0.00  0.00    +0.000 A 
ATOM     18  C   UNL     1       2.055  16.341  18.347  0.00  0.00    +0.000 A 
ATOM     19  C   UNL     1       2.147  15.006  18.752  0.00  0.00    +0.000 A 
ATOM     20  C   UNL     1       1.004  14.266  19.056  0.00  0.00    +0.000 A 
ATOM     21  C   UNL     1      -0.240  14.899  18.901  0.00  0.00    +0.000 A 
ATOM     22  C   UNL     1      -0.340  16.234  18.499  0.00  0.00    +0.000 A 
BRANCH  17  24
ATOM     23  C   UNL     1       0.102  18.631  16.715  0.00  0.00    +0.000 C 
ATOM     24  O   UNL     1       0.851  18.280  17.871  0.00  0.00    +0.000 OA
ENDBRANCH  17  24
ENDBRANCH   9  20
ENDBRANCH   1  13
BRANCH   5  25
ATOM     25  O   UNL     1       3.326   4.511  18.350  0.00  0.00    +0.000 OA
BRANCH  25  26
ATOM     26  C   UNL     1       4.715   4.265  18.562  0.00  0.00    +0.000 C 
BRANCH  26  27
ATOM     27  C   UNL     1       5.437   4.459  17.246  0.00  0.00    +0.000 A 
ATOM     28  C   UNL     1       6.773   4.889  17.216  0.00  0.00    +0.000 A 
ATOM     29  C   UNL     1       7.437   5.063  15.997  0.00  0.00    +0.000 A 
ATOM     30  C   UNL     1       6.769   4.805  14.803  0.00  0.00    +0.000 A 
ATOM     31 CL   UNL     1       7.585   5.017  13.302  0.00  0.00    +0.000 Cl
ATOM     32  C   UNL     1       5.444   4.376  14.814  0.00  0.00    +0.000 A 
ATOM     33  C   UNL     1       4.782   4.201  16.032  0.00  0.00    +0.000 A 
ENDBRANCH  26  27
ENDBRANCH  25  26
ENDBRANCH   5  25
TORSDOF 6
ENDMDL
MODEL 2
REMARK VINA RESULT:      -7.9      5.093     11.452
REMARK  Name = 
REMARK  7 active torsions:
REMARK  status: ('A' for Active; 'I' for Inactive)
REMARK    1  A    between atoms: C_1  and  O_2
REMARK    2  A    between atoms: O_2  and  C_3
REMARK    3  A    between atoms: C_6  and  N_7
REMARK    4  A    between atoms: C_11  and  C_13
REMARK    5  A    between atoms: C_17  and  O_18
REMARK    6  A    between atoms: O_18  and  C_19
REMARK    7  A    between atoms: C_19  and  C_20
REMARK                            x       y       z     vdW  Elec       q    Type
REMARK                         _______ _______ _______ _____ _____    ______ ____
ROOT
ATOM      1  C   UNL     1       0.704  12.649  19.764  0.00  0.00    +0.000 A 
ATOM      2  C   UNL     1       1.480  13.308  20.644  0.00  0.00    +0.000 A 
ATOM      3  C   UNL     1       0.831  14.118  21.713  0.00  0.00    +0.000 A 
ATOM      4  O   UNL     1       1.522  14.736  22.518  0.00  0.00    +0.000 OA
ATOM      5  C   UNL     1      -0.679  14.127  21.770  0.00  0.00    +0.000 A 
ATOM      6  C   UNL     1      -1.308  13.446  20.808  0.00  0.00    +0.000 A 
ATOM      7  N   UNL     1      -0.670  12.767  19.812  0.00  0.00    +0.000 N 
ATOM      8  H   UNL     1      -1.176  12.591  18.953  0.00  0.00    +0.000 HD
ENDROOT
BRANCH   1  13
ATOM      9  N   UNL     1       2.059   7.677  19.206  0.00  0.00    +0.000 N 
ATOM     10  C   UNL     1       2.845   8.475  18.255  0.00  0.00    +0.000 C 
ATOM     11  C   UNL     1       1.956   9.620  17.725  0.00  0.00    +0.000 C 
ATOM     12  N   UNL     1       1.352  10.414  18.816  0.00  0.00    +0.000 N 
ATOM     13  C   UNL     1       1.391  11.801  18.720  0.00  0.00    +0.000 C 
ATOM     14  O   UNL     1       1.998  12.370  17.798  0.00  0.00    +0.000 OA
ATOM     15  C   UNL     1       0.699   9.588  19.854  0.00  0.00    +0.000 C 
ATOM     16  C   UNL     1       1.565   8.433  20.356  0.00  0.00    +0.000 C 
BRANCH   9  20
ATOM     17  C   UNL     1       2.314   3.500  19.591  0.00  0.00    +0.000 A 
ATOM     18  C   UNL     1       2.755   4.122  18.424  0.00  0.00    +0.000 A 
ATOM     19  C   UNL     1       2.715   5.513  18.299  0.00  0.00    +0.000 A 
ATOM     20  C   UNL     1       2.218   6.313  19.329  0.00  0.00    +0.000 A 
ATOM     21  C   UNL     1       1.800   5.670  20.506  0.00  0.00    +0.000 A 
ATOM     22  C   UNL     1       1.836   4.279  20.637  0.00  0.00    +0.000 A 
BRANCH  17  24
ATOM     23  C   UNL     1       3.289   1.558  18.672  0.00  0.00    +0.000 C 
ATOM     24  O   UNL     1       2.353   2.134  19.574  0.00  0.00    +0.000 OA
ENDBRANCH  17  24
ENDBRANCH   9  20
ENDBRANCH   1  13
BRANCH   5  25
ATOM     25  O   UNL     1      -1.419  14.786  22.732  0.00  0.00    +0.000 OA
BRANCH  25  26
ATOM     26  C   UNL     1      -1.751  14.009  23.881  0.00  0.00    +0.000 C 
BRANCH  26  27
ATOM     27  C   UNL     1      -3.256  13.852  23.928  0.00  0.00    +0.000 A 
ATOM     28  C   UNL     1      -4.101  14.914  23.570  0.00  0.00    +0.000 A 
ATOM     29  C   UNL     1      -5.490  14.763  23.612  0.00  0.00    +0.000 A 
ATOM     30  C   UNL     1      -6.042  13.547  24.008  0.00  0.00    +0.000 A 
ATOM     31 CL   UNL     1      -7.752  13.359  24.058  0.00  0.00    +0.000 Cl
ATOM     32  C   UNL     1      -5.219  12.482  24.365  0.00  0.00    +0.000 A 
ATOM     33  C   UNL     1      -3.831  12.633  24.323  0.00  0.00    +0.000 A 
ENDBRANCH  26  27
ENDBRANCH  25  26
ENDBRANCH   5  25
TORSDOF 6
ENDMDL
MODEL 3
REMARK VINA RESULT:      -7.7      0.844      1.274
REMARK  Name = 
REMARK  7 active torsions:
REMARK  status: ('A' for Active; 'I' for Inactive)
REMARK    1  A    between atoms: C_1  and  O_2
REMARK    2  A    between atoms: O_2  and  C_3
REMARK    3  A    between atoms: C_6  and  N_7
REMARK    4  A    between atoms: C_11  and  C_13
REMARK    5  A    between atoms: C_17  and  O_18
REMARK    6  A    between atoms: O_18  and  C_19
REMARK    7  A    between atoms: C_19  and  C_20
REMARK                            x       y       z     vdW  Elec       q    Type
REMARK                         _______ _______ _______ _____ _____    ______ ____
ROOT
ATOM      1  C   UNL     1       1.737   7.575  20.064  0.00  0.00    +0.000 A 
ATOM      2  C   UNL     1       1.765   6.357  20.634  0.00  0.00    +0.000 A 
ATOM      3  C   UNL     1       2.294   5.206  19.850  0.00  0.00    +0.000 A 
ATOM      4  O   UNL     1       2.317   4.084  20.349  0.00  0.00    +0.000 OA
ATOM      5  C   UNL     1       2.804   5.480  18.454  0.00  0.00    +0.000 A 
ATOM      6  C   UNL     1       2.680   6.738  18.020  0.00  0.00    +0.000 A 
ATOM      7  N   UNL     1       2.134   7.748  18.754  0.00  0.00    +0.000 N 
ATOM      8  H   UNL     1       1.753   8.546  18.260  0.00  0.00    +0.000 HD
ENDROOT
BRANCH   1  13
ATOM      9  N   UNL     1       1.137  12.692  19.494  0.00  0.00    +0.000 N 
ATOM     10  C   UNL     1       1.124  12.387  20.931  0.00  0.00    +0.000 C 
ATOM     11  C   UNL     1       0.407  11.037  21.138  0.00  0.00    +0.000 C 
ATOM     12  N   UNL     1       0.984   9.961  20.304  0.00  0.00    +0.000 N 
ATOM     13  C   UNL     1       1.237   8.730  20.900  0.00  0.00    +0.000 C 
ATOM     14  O   UNL     1       1.080   8.556  22.120  0.00  0.00    +0.000 OA
ATOM     15  C   UNL     1       1.140  10.337  18.883  0.00  0.00    +0.000 C 
ATOM     16  C   UNL     1       1.819  11.691  18.677  0.00  0.00    +0.000 C 
BRANCH   9  20
ATOM     17  C   UNL     1       0.768  16.688  18.245  0.00  0.00    +0.000 A 
ATOM     18  C   UNL     1       2.012  16.060  18.217  0.00  0.00    +0.000 A 
ATOM     19  C   UNL     1       2.142  14.720  18.590  0.00  0.00    +0.000 A 
ATOM     20  C   UNL     1       1.036  13.981  19.015  0.00  0.00    +0.000 A 
ATOM     21  C   UNL     1      -0.212  14.624  19.014  0.00  0.00    +0.000 A 
ATOM     22  C   UNL     1      -0.349  15.965  18.644  0.00  0.00    +0.000 A 
BRANCH  17  24
ATOM     23  C   UNL     1      -0.502  18.627  17.804  0.00  0.00    +0.000 C 
ATOM     24  O   UNL     1       0.776  18.013  17.910  0.00  0.00    +0.000 OA
ENDBRANCH  17  24
ENDBRANCH   9  20
ENDBRANCH   1  13
BRANCH   5  25
ATOM     25  O   UNL     1       3.369   4.528  17.629  0.00  0.00    +0.000 OA
BRANCH  25  26
ATOM     26  C   UNL     1       4.739   4.230  17.894  0.00  0.00    +0.000 C 
BRANCH  26  27
ATOM     27  C   UNL     1       5.525   4.444  16.618  0.00  0.00    +0.000 A 
ATOM     28  C   UNL     1       6.809   5.011  16.652  0.00  0.00    +0.000 A 
ATOM     29  C   UNL     1       7.533   5.202  15.470  0.00  0.00    +0.000 A 
ATOM     30  C   UNL     1       6.977   4.824  14.250  0.00  0.00    +0.000 A 
ATOM     31 CL   UNL     1       7.868   5.057  12.796  0.00  0.00    +0.000 Cl
ATOM     32  C   UNL     1       5.706   4.258  14.199  0.00  0.00    +0.000 A 
ATOM     33  C   UNL     1       4.984   4.067  15.379  0.00  0.00    +0.000 A 
ENDBRANCH  26  27
ENDBRANCH  25  26
ENDBRANCH   5  25
TORSDOF 6
ENDMDL
MODEL 4
REMARK VINA RESULT:      -7.5      2.920      9.483
REMARK  Name = 
REMARK  7 active torsions:
REMARK  status: ('A' for Active; 'I' for Inactive)
REMARK    1  A    between atoms: C_1  and  O_2
REMARK    2  A    between atoms: O_2  and  C_3
REMARK    3  A    between atoms: C_6  and  N_7
REMARK    4  A    between atoms: C_11  and  C_13
REMARK    5  A    between atoms: C_17  and  O_18
REMARK    6  A    between atoms: O_18  and  C_19
REMARK    7  A    between atoms: C_19  and  C_20
REMARK                            x       y       z     vdW  Elec       q    Type
REMARK                         _______ _______ _______ _____ _____    ______ ____
ROOT
ATOM      1  C   UNL     1      -0.223  10.185  20.833  0.00  0.00    +0.000 A 
ATOM      2  C   UNL     1      -0.655  10.520  19.604  0.00  0.00    +0.000 A 
ATOM      3  C   UNL     1      -0.987  11.945  19.320  0.00  0.00    +0.000 A 
ATOM      4  O   UNL     1      -1.394  12.269  18.208  0.00  0.00    +0.000 OA
ATOM      5  C   UNL     1      -0.787  12.949  20.432  0.00  0.00    +0.000 A 
ATOM      6  C   UNL     1      -0.380  12.454  21.604  0.00  0.00    +0.000 A 
ATOM      7  N   UNL     1      -0.145  11.131  21.834  0.00  0.00    +0.000 N 
ATOM      8  H   UNL     1      -0.193  10.795  22.788  0.00  0.00    +0.000 HD
ENDROOT
BRANCH   1  13
ATOM      9  N   UNL     1       2.748   6.598  18.560  0.00  0.00    +0.000 N 
ATOM     10  C   UNL     1       1.802   5.911  19.450  0.00  0.00    +0.000 C 
ATOM     11  C   UNL     1       1.594   6.781  20.707  0.00  0.00    +0.000 C 
ATOM     12  N   UNL     1       1.202   8.166  20.373  0.00  0.00    +0.000 N 
ATOM     13  C   UNL     1       0.149   8.740  21.076  0.00  0.00    +0.000 C 
ATOM     14  O   UNL     1      -0.516   8.086  21.897  0.00  0.00    +0.000 OA
ATOM     15  C   UNL     1       2.070   8.795  19.354  0.00  0.00    +0.000 C 
ATOM     16  C   UNL     1       2.306   7.921  18.124  0.00  0.00    +0.000 C 
BRANCH   9  20
ATOM     17  C   UNL     1       5.334   4.435  16.048  0.00  0.00    +0.000 A 
ATOM     18  C   UNL     1       5.434   5.824  16.125  0.00  0.00    +0.000 A 
ATOM     19  C   UNL     1       4.608   6.551  16.987  0.00  0.00    +0.000 A 
ATOM     20  C   UNL     1       3.654   5.911  17.779  0.00  0.00    +0.000 A 
ATOM     21  C   UNL     1       3.583   4.510  17.705  0.00  0.00    +0.000 A 
ATOM     22  C   UNL     1       4.404   3.776  16.844  0.00  0.00    +0.000 A 
BRANCH  17  24
ATOM     23  C   UNL     1       6.906   4.729  14.315  0.00  0.00    +0.000 C 
ATOM     24  O   UNL     1       6.155   3.841  15.132  0.00  0.00    +0.000 OA
ENDBRANCH  17  24
ENDBRANCH   9  20
ENDBRANCH   1  13
BRANCH   5  25
ATOM     25  O   UNL     1      -1.001  14.307  20.303  0.00  0.00    +0.000 OA
BRANCH  25  26
ATOM     26  C   UNL     1      -0.039  15.137  20.952  0.00  0.00    +0.000 C 
BRANCH  26  27
ATOM     27  C   UNL     1       1.251  15.073  20.162  0.00  0.00    +0.000 A 
ATOM     28  C   UNL     1       1.298  15.503  18.826  0.00  0.00    +0.000 A 
ATOM     29  C   UNL     1       2.493  15.445  18.103  0.00  0.00    +0.000 A 
ATOM     30  C   UNL     1       3.648  14.960  18.712  0.00  0.00    +0.000 A 
ATOM     31 CL   UNL     1       5.120  14.890  17.823  0.00  0.00    +0.000 Cl
ATOM     32  C   UNL     1       3.620  14.532  20.037  0.00  0.00    +0.000 A 
ATOM     33  C   UNL     1       2.426  14.590  20.760  0.00  0.00    +0.000 A 
ENDBRANCH  26  27
ENDBRANCH  25  26
ENDBRANCH   5  25
TORSDOF 6
ENDMDL
MODEL 5
REMARK VINA RESULT:      -7.5      4.524     10.740
REMARK  Name = 
REMARK  7 active torsions:
REMARK  status: ('A' for Active; 'I' for Inactive)
REMARK    1  A    between atoms: C_1  and  O_2
REMARK    2  A    between atoms: O_2  and  C_3
REMARK    3  A    between atoms: C_6  and  N_7
REMARK    4  A    between atoms: C_11  and  C_13
REMARK    5  A    between atoms: C_17  and  O_18
REMARK    6  A    between atoms: O_18  and  C_19
REMARK    7  A    between atoms: C_19  and  C_20
REMARK                            x       y       z     vdW  Elec       q    Type
REMARK                         _______ _______ _______ _____ _____    ______ ____
ROOT
ATOM      1  C   UNL     1      -0.211  10.267  20.809  0.00  0.00    +0.000 A 
ATOM      2  C   UNL     1      -1.020  10.386  19.740  0.00  0.00    +0.000 A 
ATOM      3  C   UNL     1      -1.533  11.736  19.371  0.00  0.00    +0.000 A 
ATOM      4  O   UNL     1      -2.282  11.864  18.406  0.00  0.00    +0.000 OA
ATOM      5  C   UNL     1      -1.086  12.912  20.208  0.00  0.00    +0.000 A 
ATOM      6  C   UNL     1      -0.305  12.625  21.254  0.00  0.00    +0.000 A 
ATOM      7  N   UNL     1       0.091  11.365  21.588  0.00  0.00    +0.000 N 
ATOM      8  H   UNL     1       0.360  11.185  22.548  0.00  0.00    +0.000 HD
ENDROOT
BRANCH   1  13
ATOM      9  N   UNL     1       2.814   6.746  18.503  0.00  0.00    +0.000 N 
ATOM     10  C   UNL     1       2.053   6.071  19.564  0.00  0.00    +0.000 C 
ATOM     11  C   UNL     1       1.909   7.041  20.755  0.00  0.00    +0.000 C 
ATOM     12  N   UNL     1       1.343   8.346  20.352  0.00  0.00    +0.000 N 
ATOM     13  C   UNL     1       0.329   8.893  21.130  0.00  0.00    +0.000 C 
ATOM     14  O   UNL     1      -0.166   8.268  22.083  0.00  0.00    +0.000 OA
ATOM     15  C   UNL     1       2.018   8.943  19.180  0.00  0.00    +0.000 C 
ATOM     16  C   UNL     1       2.194   7.974  18.011  0.00  0.00    +0.000 C 
BRANCH   9  20
ATOM     17  C   UNL     1       5.288   4.596  15.872  0.00  0.00    +0.000 A 
ATOM     18  C   UNL     1       5.337   5.989  15.896  0.00  0.00    +0.000 A 
ATOM     19  C   UNL     1       4.550   6.714  16.795  0.00  0.00    +0.000 A 
ATOM     20  C   UNL     1       3.685   6.067  17.678  0.00  0.00    +0.000 A 
ATOM     21  C   UNL     1       3.666   4.663  17.656  0.00  0.00    +0.000 A 
ATOM     22  C   UNL     1       4.449   3.931  16.758  0.00  0.00    +0.000 A 
BRANCH  17  24
ATOM     23  C   UNL     1       7.074   4.821  14.348  0.00  0.00    +0.000 C 
ATOM     24  O   UNL     1       6.061   4.001  14.916  0.00  0.00    +0.000 OA
ENDBRANCH  17  24
ENDBRANCH   9  20
ENDBRANCH   1  13
BRANCH   5  25
ATOM     25  O   UNL     1      -1.435  14.224  19.958  0.00  0.00    +0.000 OA
BRANCH  25  26
ATOM     26  C   UNL     1      -1.974  14.932  21.074  0.00  0.00    +0.000 C 
BRANCH  26  27
ATOM     27  C   UNL     1      -3.284  14.280  21.461  0.00  0.00    +0.000 A 
ATOM     28  C   UNL     1      -3.515  13.861  22.781  0.00  0.00    +0.000 A 
ATOM     29  C   UNL     1      -4.729  13.262  23.134  0.00  0.00    +0.000 A 
ATOM     30  C   UNL     1      -5.719  13.084  22.170  0.00  0.00    +0.000 A 
ATOM     31 CL   UNL     1      -7.213  12.349  22.605  0.00  0.00    +0.000 Cl
ATOM     32  C   UNL     1      -5.507  13.496  20.858  0.00  0.00    +0.000 A 
ATOM     33  C   UNL     1      -4.295  14.094  20.505  0.00  0.00    +0.000 A 
ENDBRANCH  26  27
ENDBRANCH  25  26
ENDBRANCH   5  25
TORSDOF 6
ENDMDL
MODEL 6
REMARK VINA RESULT:      -7.5      3.798      4.739
REMARK  Name = 
REMARK  7 active torsions:
REMARK  status: ('A' for Active; 'I' for Inactive)
REMARK    1  A    between atoms: C_1  and  O_2
REMARK    2  A    between atoms: O_2  and  C_3
REMARK    3  A    between atoms: C_6  and  N_7
REMARK    4  A    between atoms: C_11  and  C_13
REMARK    5  A    between atoms: C_17  and  O_18
REMARK    6  A    between atoms: O_18  and  C_19
REMARK    7  A    between atoms: C_19  and  C_20
REMARK                            x       y       z     vdW  Elec       q    Type
REMARK                         _______ _______ _______ _____ _____    ______ ____
ROOT
ATOM      1  C   UNL     1      -0.353  10.395  19.259  0.00  0.00    +0.000 A 
ATOM      2  C   UNL     1       0.008   9.671  20.335  0.00  0.00    +0.000 A 
ATOM      3  C   UNL     1       1.145   8.716  20.212  0.00  0.00    +0.000 A 
ATOM      4  O   UNL     1       1.482   8.037  21.178  0.00  0.00    +0.000 OA
ATOM      5  C   UNL     1       1.857   8.637  18.881  0.00  0.00    +0.000 A 
ATOM      6  C   UNL     1       1.361   9.399  17.903  0.00  0.00    +0.000 A 
ATOM      7  N   UNL     1       0.279  10.215  18.046  0.00  0.00    +0.000 N 
ATOM      8  H   UNL     1      -0.243  10.470  17.216  0.00  0.00    +0.000 HD
ENDROOT
BRANCH   1  13
ATOM      9  N   UNL     1      -1.569  14.238  22.519  0.00  0.00    +0.000 N 
ATOM     10  C   UNL     1      -2.792  13.831  21.814  0.00  0.00    +0.000 C 
ATOM     11  C   UNL     1      -2.422  13.462  20.363  0.00  0.00    +0.000 C 
ATOM     12  N   UNL     1      -1.334  12.463  20.297  0.00  0.00    +0.000 N 
ATOM     13  C   UNL     1      -1.480  11.387  19.428  0.00  0.00    +0.000 C 
ATOM     14  O   UNL     1      -2.531  11.206  18.791  0.00  0.00    +0.000 OA
ATOM     15  C   UNL     1      -0.167  12.807  21.138  0.00  0.00    +0.000 C 
ATOM     16  C   UNL     1      -0.535  13.205  22.566  0.00  0.00    +0.000 C 
BRANCH   9  20
ATOM     17  C   UNL     1      -1.423  17.102  25.591  0.00  0.00    +0.000 A 
ATOM     18  C   UNL     1      -0.951  17.419  24.318  0.00  0.00    +0.000 A 
ATOM     19  C   UNL     1      -1.032  16.490  23.277  0.00  0.00    +0.000 A 
ATOM     20  C   UNL     1      -1.569  15.219  23.487  0.00  0.00    +0.000 A 
ATOM     21  C   UNL     1      -2.061  14.926  24.770  0.00  0.00    +0.000 A 
ATOM     22  C   UNL     1      -1.981  15.850  25.817  0.00  0.00    +0.000 A 
BRANCH  17  24
ATOM     23  C   UNL     1       0.064  18.630  26.600  0.00  0.00    +0.000 C 
ATOM     24  O   UNL     1      -1.241  18.070  26.538  0.00  0.00    +0.000 OA
ENDBRANCH  17  24
ENDBRANCH   9  20
ENDBRANCH   1  13
BRANCH   5  25
ATOM     25  O   UNL     1       2.957   7.840  18.632  0.00  0.00    +0.000 OA
BRANCH  25  26
ATOM     26  C   UNL     1       2.691   6.440  18.571  0.00  0.00    +0.000 C 
BRANCH  26  27
ATOM     27  C   UNL     1       3.639   5.822  17.564  0.00  0.00    +0.000 A 
ATOM     28  C   UNL     1       4.513   6.623  16.813  0.00  0.00    +0.000 A 
ATOM     29  C   UNL     1       5.389   6.047  15.888  0.00  0.00    +0.000 A 
ATOM     30  C   UNL     1       5.398   4.665  15.713  0.00  0.00    +0.000 A 
ATOM     31 CL   UNL     1       6.477   3.954  14.575  0.00  0.00    +0.000 Cl
ATOM     32  C   UNL     1       4.540   3.855  16.451  0.00  0.00    +0.000 A 
ATOM     33  C   UNL     1       3.665   4.431  17.375  0.00  0.00    +0.000 A 
ENDBRANCH  26  27
ENDBRANCH  25  26
ENDBRANCH   5  25
TORSDOF 6
ENDMDL
MODEL 7
REMARK VINA RESULT:      -7.5      2.907      3.531
REMARK  Name = 
REMARK  7 active torsions:
REMARK  status: ('A' for Active; 'I' for Inactive)
REMARK    1  A    between atoms: C_1  and  O_2
REMARK    2  A    between atoms: O_2  and  C_3
REMARK    3  A    between atoms: C_6  and  N_7
REMARK    4  A    between atoms: C_11  and  C_13
REMARK    5  A    between atoms: C_17  and  O_18
REMARK    6  A    between atoms: O_18  and  C_19
REMARK    7  A    between atoms: C_19  and  C_20
REMARK                            x       y       z     vdW  Elec       q    Type
REMARK                         _______ _______ _______ _____ _____    ______ ____
ROOT
ATOM      1  C   UNL     1       1.421   8.553  20.859  0.00  0.00    +0.000 A 
ATOM      2  C   UNL     1       1.556   9.141  19.656  0.00  0.00    +0.000 A 
ATOM      3  C   UNL     1       2.046   8.329  18.507  0.00  0.00    +0.000 A 
ATOM      4  O   UNL     1       2.187   8.851  17.405  0.00  0.00    +0.000 OA
ATOM      5  C   UNL     1       2.337   6.867  18.752  0.00  0.00    +0.000 A 
ATOM      6  C   UNL     1       2.182   6.439  20.008  0.00  0.00    +0.000 A 
ATOM      7  N   UNL     1       1.787   7.235  21.042  0.00  0.00    +0.000 N 
ATOM      8  H   UNL     1       2.032   6.954  21.984  0.00  0.00    +0.000 HD
ENDROOT
BRANCH   1  13
ATOM      9  N   UNL     1      -1.965  12.437  21.424  0.00  0.00    +0.000 N 
ATOM     10  C   UNL     1      -1.107  12.400  22.617  0.00  0.00    +0.000 C 
ATOM     11  C   UNL     1      -0.793  10.926  22.949  0.00  0.00    +0.000 C 
ATOM     12  N   UNL     1      -0.237  10.195  21.790  0.00  0.00    +0.000 N 
ATOM     13  C   UNL     1       0.879   9.391  21.993  0.00  0.00    +0.000 C 
ATOM     14  O   UNL     1       1.461   9.354  23.090  0.00  0.00    +0.000 OA
ATOM     15  C   UNL     1      -1.025  10.369  20.552  0.00  0.00    +0.000 C 
ATOM     16  C   UNL     1      -1.367  11.825  20.239  0.00  0.00    +0.000 C 
BRANCH   9  20
ATOM     17  C   UNL     1      -4.891  15.363  20.689  0.00  0.00    +0.000 A 
ATOM     18  C   UNL     1      -5.270  14.055  20.987  0.00  0.00    +0.000 A 
ATOM     19  C   UNL     1      -4.309  13.082  21.274  0.00  0.00    +0.000 A 
ATOM     20  C   UNL     1      -2.948  13.388  21.255  0.00  0.00    +0.000 A 
ATOM     21  C   UNL     1      -2.585  14.716  20.976  0.00  0.00    +0.000 A 
ATOM     22  C   UNL     1      -3.541  15.694  20.686  0.00  0.00    +0.000 A 
BRANCH  17  24
ATOM     23  C   UNL     1      -5.808  17.526  20.901  0.00  0.00    +0.000 C 
ATOM     24  O   UNL     1      -5.915  16.210  20.374  0.00  0.00    +0.000 OA
ENDBRANCH  17  24
ENDBRANCH   9  20
ENDBRANCH   1  13
BRANCH   5  25
ATOM     25  O   UNL     1       2.747   5.980  17.777  0.00  0.00    +0.000 OA
BRANCH  25  26
ATOM     26  C   UNL     1       3.898   5.204  18.105  0.00  0.00    +0.000 C 
BRANCH  26  27
ATOM     27  C   UNL     1       4.757   5.082  16.864  0.00  0.00    +0.000 A 
ATOM     28  C   UNL     1       5.223   3.830  16.433  0.00  0.00    +0.000 A 
ATOM     29  C   UNL     1       6.013   3.722  15.284  0.00  0.00    +0.000 A 
ATOM     30  C   UNL     1       6.336   4.866  14.558  0.00  0.00    +0.000 A 
ATOM     31 CL   UNL     1       7.307   4.735  13.142  0.00  0.00    +0.000 Cl
ATOM     32  C   UNL     1       5.881   6.115  14.970  0.00  0.00    +0.000 A 
ATOM     33  C   UNL     1       5.091   6.223  16.118  0.00  0.00    +0.000 A 
ENDBRANCH  26  27
ENDBRANCH  25  26
ENDBRANCH   5  25
TORSDOF 6
ENDMDL
MODEL 8
REMARK VINA RESULT:      -7.4      3.173      9.742
REMARK  Name = 
REMARK  7 active torsions:
REMARK  status: ('A' for Active; 'I' for Inactive)
REMARK    1  A    between atoms: C_1  and  O_2
REMARK    2  A    between atoms: O_2  and  C_3
REMARK    3  A    between atoms: C_6  and  N_7
REMARK    4  A    between atoms: C_11  and  C_13
REMARK    5  A    between atoms: C_17  and  O_18
REMARK    6  A    between atoms: O_18  and  C_19
REMARK    7  A    between atoms: C_19  and  C_20
REMARK                            x       y       z     vdW  Elec       q    Type
REMARK                         _______ _______ _______ _____ _____    ______ ____
ROOT
ATOM      1  C   UNL     1      -0.020  10.351  20.666  0.00  0.00    +0.000 A 
ATOM      2  C   UNL     1      -0.761  10.551  19.561  0.00  0.00    +0.000 A 
ATOM      3  C   UNL     1      -1.175  11.938  19.211  0.00  0.00    +0.000 A 
ATOM      4  O   UNL     1      -1.862  12.140  18.213  0.00  0.00    +0.000 OA
ATOM      5  C   UNL     1      -0.708  13.060  20.110  0.00  0.00    +0.000 A 
ATOM      6  C   UNL     1      -0.002  12.696  21.185  0.00  0.00    +0.000 A 
ATOM      7  N   UNL     1       0.302  11.405  21.496  0.00  0.00    +0.000 N 
ATOM      8  H   UNL     1       0.508  11.181  22.462  0.00  0.00    +0.000 HD
ENDROOT
BRANCH   1  13
ATOM      9  N   UNL     1       2.795   6.675  18.334  0.00  0.00    +0.000 N 
ATOM     10  C   UNL     1       1.976   6.035  19.373  0.00  0.00    +0.000 C 
ATOM     11  C   UNL     1       1.880   6.991  20.580  0.00  0.00    +0.000 C 
ATOM     12  N   UNL     1       1.409   8.338  20.193  0.00  0.00    +0.000 N 
ATOM     13  C   UNL     1       0.423   8.938  20.968  0.00  0.00    +0.000 C 
ATOM     14  O   UNL     1      -0.126   8.332  21.904  0.00  0.00    +0.000 OA
ATOM     15  C   UNL     1       2.139   8.909  19.041  0.00  0.00    +0.000 C 
ATOM     16  C   UNL     1       2.265   7.951  17.857  0.00  0.00    +0.000 C 
BRANCH   9  20
ATOM     17  C   UNL     1       5.519   4.553  15.938  0.00  0.00    +0.000 A 
ATOM     18  C   UNL     1       4.581   3.865  16.707  0.00  0.00    +0.000 A 
ATOM     19  C   UNL     1       3.643   4.559  17.476  0.00  0.00    +0.000 A 
ATOM     20  C   UNL     1       3.630   5.954  17.508  0.00  0.00    +0.000 A 
ATOM     21  C   UNL     1       4.566   6.630  16.709  0.00  0.00    +0.000 A 
ATOM     22  C   UNL     1       5.509   5.943  15.939  0.00  0.00    +0.000 A 
BRANCH  17  24
ATOM     23  C   UNL     1       6.433   3.917  13.858  0.00  0.00    +0.000 C 
ATOM     24  O   UNL     1       6.417   3.768  15.272  0.00  0.00    +0.000 OA
ENDBRANCH  17  24
ENDBRANCH   9  20
ENDBRANCH   1  13
BRANCH   5  25
ATOM     25  O   UNL     1      -0.967  14.397  19.886  0.00  0.00    +0.000 OA
BRANCH  25  26
ATOM     26  C   UNL     1      -0.299  14.965  18.760  0.00  0.00    +0.000 C 
BRANCH  26  27
ATOM     27  C   UNL     1       1.128  15.272  19.161  0.00  0.00    +0.000 A 
ATOM     28  C   UNL     1       2.207  14.677  18.488  0.00  0.00    +0.000 A 
ATOM     29  C   UNL     1       3.524  14.967  18.860  0.00  0.00    +0.000 A 
ATOM     30  C   UNL     1       3.768  15.857  19.904  0.00  0.00    +0.000 A 
ATOM     31 CL   UNL     1       5.388  16.216  20.361  0.00  0.00    +0.000 Cl
ATOM     32  C   UNL     1       2.710  16.457  20.580  0.00  0.00    +0.000 A 
ATOM     33  C   UNL     1       1.394  16.168  20.209  0.00  0.00    +0.000 A 
ENDBRANCH  26  27
ENDBRANCH  25  26
ENDBRANCH   5  25
TORSDOF 6
ENDMDL
MODEL 9
REMARK VINA RESULT:      -7.4      1.083      1.723
REMARK  Name = 
REMARK  7 active torsions:
REMARK  status: ('A' for Active; 'I' for Inactive)
REMARK    1  A    between atoms: C_1  and  O_2
REMARK    2  A    between atoms: O_2  and  C_3
REMARK    3  A    between atoms: C_6  and  N_7
REMARK    4  A    between atoms: C_11  and  C_13
REMARK    5  A    between atoms: C_17  and  O_18
REMARK    6  A    between atoms: O_18  and  C_19
REMARK    7  A    between atoms: C_19  and  C_20
REMARK                            x       y       z     vdW  Elec       q    Type
REMARK                         _______ _______ _______ _____ _____    ______ ____
ROOT
ATOM      1  C   UNL     1       1.147   8.109  20.472  0.00  0.00    +0.000 A 
ATOM      2  C   UNL     1       1.214   6.947  21.148  0.00  0.00    +0.000 A 
ATOM      3  C   UNL     1       2.119   5.874  20.649  0.00  0.00    +0.000 A 
ATOM      4  O   UNL     1       2.185   4.802  21.245  0.00  0.00    +0.000 OA
ATOM      5  C   UNL     1       2.945   6.166  19.418  0.00  0.00    +0.000 A 
ATOM      6  C   UNL     1       2.744   7.356  18.844  0.00  0.00    +0.000 A 
ATOM      7  N   UNL     1       1.859   8.284  19.303  0.00  0.00    +0.000 N 
ATOM      8  H   UNL     1       1.505   8.973  18.650  0.00  0.00    +0.000 HD
ENDROOT
BRANCH   1  13
ATOM      9  N   UNL     1       0.547  13.219  19.849  0.00  0.00    +0.000 N 
ATOM     10  C   UNL     1      -0.090  12.835  21.116  0.00  0.00    +0.000 C 
ATOM     11  C   UNL     1      -0.738  11.446  20.936  0.00  0.00    +0.000 C 
ATOM     12  N   UNL     1       0.218  10.443  20.419  0.00  0.00    +0.000 N 
ATOM     13  C   UNL     1       0.254   9.193  21.028  0.00  0.00    +0.000 C 
ATOM     14  O   UNL     1      -0.423   8.945  22.039  0.00  0.00    +0.000 OA
ATOM     15  C   UNL     1       0.972  10.904  19.234  0.00  0.00    +0.000 C 
ATOM     16  C   UNL     1       1.584  12.294  19.397  0.00  0.00    +0.000 C 
BRANCH   9  20
ATOM     17  C   UNL     1       0.739  17.129  18.317  0.00  0.00    +0.000 A 
ATOM     18  C   UNL     1      -0.475  16.616  18.772  0.00  0.00    +0.000 A 
ATOM     19  C   UNL     1      -0.545  15.333  19.322  0.00  0.00    +0.000 A 
ATOM     20  C   UNL     1       0.591  14.527  19.415  0.00  0.00    +0.000 A 
ATOM     21  C   UNL     1       1.809  15.070  18.973  0.00  0.00    +0.000 A 
ATOM     22  C   UNL     1       1.886  16.352  18.420  0.00  0.00    +0.000 A 
BRANCH  17  24
ATOM     23  C   UNL     1       0.957  18.429  16.361  0.00  0.00    +0.000 C 
ATOM     24  O   UNL     1       0.672  18.371  17.752  0.00  0.00    +0.000 OA
ENDBRANCH  17  24
ENDBRANCH   9  20
ENDBRANCH   1  13
BRANCH   5  25
ATOM     25  O   UNL     1       3.864   5.292  18.871  0.00  0.00    +0.000 OA
BRANCH  25  26
ATOM     26  C   UNL     1       3.426   4.605  17.699  0.00  0.00    +0.000 C 
BRANCH  26  27
ATOM     27  C   UNL     1       4.499   4.744  16.640  0.00  0.00    +0.000 A 
ATOM     28  C   UNL     1       4.893   6.010  16.178  0.00  0.00    +0.000 A 
ATOM     29  C   UNL     1       5.888   6.133  15.202  0.00  0.00    +0.000 A 
ATOM     30  C   UNL     1       6.496   4.990  14.687  0.00  0.00    +0.000 A 
ATOM     31 CL   UNL     1       7.721   5.140  13.487  0.00  0.00    +0.000 Cl
ATOM     32  C   UNL     1       6.119   3.727  15.135  0.00  0.00    +0.000 A 
ATOM     33  C   UNL     1       5.125   3.605  16.110  0.00  0.00    +0.000 A 
ENDBRANCH  26  27
ENDBRANCH  25  26
ENDBRANCH   5  25
TORSDOF 6
ENDMDL
