MODEL 1
REMARK VINA RESULT:      -7.4      0.000      0.000
REMARK  Name = 
REMARK  6 active torsions:
REMARK  status: ('A' for Active; 'I' for Inactive)
REMARK    1  A    between atoms: C_1  and  C_2
REMARK    2  A    between atoms: C_2  and  C_3
REMARK    3  A    between atoms: C_2  and  C_4
REMARK    4  A    between atoms: C_8  and  N_9
REMARK    5  A    between atoms: C_13  and  C_14
REMARK    6  A    between atoms: C_28  and  C_29
REMARK                            x       y       z     vdW  Elec       q    Type
REMARK                         _______ _______ _______ _____ _____    ______ ____
ROOT
ATOM      1  N   UNL     1      -0.799  12.004  22.757  0.00  0.00    +0.000 N 
ATOM      2  C   UNL     1      -1.167  10.625  23.075  0.00  0.00    +0.000 C 
ATOM      3  C   UNL     1      -0.408   9.696  22.123  0.00  0.00    +0.000 C 
ATOM      4  C   UNL     1       0.166  10.648  21.143  0.00  0.00    +0.000 A 
ATOM      5  C   UNL     1       0.951  10.467  20.037  0.00  0.00    +0.000 A 
ATOM      6  N   UNL     1       1.403  11.542  19.360  0.00  0.00    +0.000 NA
ATOM      7  C   UNL     1       1.104  12.791  19.774  0.00  0.00    +0.000 A 
ATOM      8  N   UNL     1       1.748  13.846  19.158  0.00  0.00    +0.000 N 
ATOM      9  C   UNL     1       2.627  13.496  18.021  0.00  0.00    +0.000 C 
ATOM     10  C   UNL     1       3.741  14.544  17.905  0.00  0.00    +0.000 C 
ATOM     11  O   UNL     1       3.195  15.858  17.729  0.00  0.00    +0.000 OA
ATOM     12  C   UNL     1       2.371  16.202  18.855  0.00  0.00    +0.000 C 
ATOM     13  C   UNL     1       1.186  15.213  19.043  0.00  0.00    +0.000 C 
ATOM     14  C   UNL     1       0.350  15.708  20.219  0.00  0.00    +0.000 C 
ATOM     15  N   UNL     1       0.327  13.013  20.844  0.00  0.00    +0.000 NA
ATOM     16  C   UNL     1      -0.102  11.945  21.517  0.00  0.00    +0.000 A 
ENDROOT
BRANCH   5  17
ATOM     17  C   UNL     1       1.466   9.177  19.557  0.00  0.00    +0.000 A 
ATOM     18  C   UNL     1       1.667   8.057  20.337  0.00  0.00    +0.000 A 
ATOM     19  N   UNL     1       2.220   6.897  19.906  0.00  0.00    +0.000 NA
ATOM     20  C   UNL     1       2.579   6.849  18.626  0.00  0.00    +0.000 A 
ATOM     21  N   UNL     1       3.181   5.694  18.178  0.00  0.00    +0.000 N 
ATOM     22  N   UNL     1       2.374   7.831  17.748  0.00  0.00    +0.000 NA
ATOM     23  C   UNL     1       1.827   8.971  18.236  0.00  0.00    +0.000 A 
ATOM     24  H   UNL     1       2.942   4.924  18.786  0.00  0.00    +0.000 HD
ATOM     25  H   UNL     1       3.022   5.581  17.188  0.00  0.00    +0.000 HD
ENDBRANCH   5  17
BRANCH   1  30
ATOM     26  C   UNL     1      -4.255  13.028  21.356  0.00  0.00    +0.000 C 
ATOM     27  O   UNL     1      -3.997  13.143  20.158  0.00  0.00    +0.000 OA
ATOM     28  N   UNL     1      -3.392  13.462  22.336  0.00  0.00    +0.000 N 
ATOM     29  C   UNL     1      -2.086  14.071  22.143  0.00  0.00    +0.000 C 
ATOM     30  C   UNL     1      -1.547  13.133  23.246  0.00  0.00    +0.000 C 
ATOM     31  C   UNL     1      -3.016  12.794  23.581  0.00  0.00    +0.000 C 
BRANCH  26  33
ATOM     32  C   UNL     1      -6.384  13.586  22.544  0.00  0.00    +0.000 C 
ATOM     33  C   UNL     1      -5.585  12.470  21.867  0.00  0.00    +0.000 C 
ATOM     34  C   UNL     1      -6.415  11.878  20.726  0.00  0.00    +0.000 C 
ENDBRANCH  26  33
ENDBRANCH   1  30
TORSDOF 3
ENDMDL
MODEL 2
REMARK VINA RESULT:      -7.3      5.687      8.012
REMARK  Name = 
REMARK  6 active torsions:
REMARK  status: ('A' for Active; 'I' for Inactive)
REMARK    1  A    between atoms: C_1  and  C_2
REMARK    2  A    between atoms: C_2  and  C_3
REMARK    3  A    between atoms: C_2  and  C_4
REMARK    4  A    between atoms: C_8  and  N_9
REMARK    5  A    between atoms: C_13  and  C_14
REMARK    6  A    between atoms: C_28  and  C_29
REMARK                            x       y       z     vdW  Elec       q    Type
REMARK                         _______ _______ _______ _____ _____    ______ ____
ROOT
ATOM      1  N   UNL     1       4.428  15.166  19.481  0.00  0.00    +0.000 N 
ATOM      2  C   UNL     1       4.698  15.461  18.074  0.00  0.00    +0.000 C 
ATOM      3  C   UNL     1       6.145  15.061  17.772  0.00  0.00    +0.000 C 
ATOM      4  C   UNL     1       6.687  14.788  19.124  0.00  0.00    +0.000 A 
ATOM      5  C   UNL     1       7.922  14.388  19.557  0.00  0.00    +0.000 A 
ATOM      6  N   UNL     1       8.118  14.134  20.866  0.00  0.00    +0.000 NA
ATOM      7  C   UNL     1       7.104  14.253  21.748  0.00  0.00    +0.000 A 
ATOM      8  N   UNL     1       7.313  13.798  23.036  0.00  0.00    +0.000 N 
ATOM      9  C   UNL     1       8.679  13.324  23.343  0.00  0.00    +0.000 C 
ATOM     10  C   UNL     1       8.608  12.268  24.454  0.00  0.00    +0.000 C 
ATOM     11  O   UNL     1       7.987  12.801  25.631  0.00  0.00    +0.000 OA
ATOM     12  C   UNL     1       6.648  13.227  25.330  0.00  0.00    +0.000 C 
ATOM     13  C   UNL     1       6.611  14.325  24.231  0.00  0.00    +0.000 C 
ATOM     14  C   UNL     1       5.157  14.743  24.038  0.00  0.00    +0.000 C 
ATOM     15  N   UNL     1       5.882  14.654  21.371  0.00  0.00    +0.000 NA
ATOM     16  C   UNL     1       5.693  14.887  20.071  0.00  0.00    +0.000 A 
ENDROOT
BRANCH   5  17
ATOM     17  C   UNL     1       9.073  14.086  18.693  0.00  0.00    +0.000 A 
ATOM     18  C   UNL     1       9.915  15.022  18.128  0.00  0.00    +0.000 A 
ATOM     19  N   UNL     1      10.923  14.744  17.267  0.00  0.00    +0.000 NA
ATOM     20  C   UNL     1      11.107  13.462  16.962  0.00  0.00    +0.000 A 
ATOM     21  N   UNL     1      12.099  13.161  16.056  0.00  0.00    +0.000 N 
ATOM     22  N   UNL     1      10.414  12.454  17.492  0.00  0.00    +0.000 NA
ATOM     23  C   UNL     1       9.413  12.791  18.341  0.00  0.00    +0.000 A 
ATOM     24  H   UNL     1      12.774  13.910  16.024  0.00  0.00    +0.000 HD
ATOM     25  H   UNL     1      12.440  12.224  16.213  0.00  0.00    +0.000 HD
ENDBRANCH   5  17
BRANCH   1  30
ATOM     26  C   UNL     1       0.979  13.417  19.498  0.00  0.00    +0.000 C 
ATOM     27  O   UNL     1       0.768  13.303  18.291  0.00  0.00    +0.000 OA
ATOM     28  N   UNL     1       1.541  14.549  20.041  0.00  0.00    +0.000 N 
ATOM     29  C   UNL     1       1.987  15.733  19.323  0.00  0.00    +0.000 C 
ATOM     30  C   UNL     1       3.278  15.692  20.170  0.00  0.00    +0.000 C 
ATOM     31  C   UNL     1       2.575  14.651  21.069  0.00  0.00    +0.000 C 
BRANCH  26  33
ATOM     32  C   UNL     1      -0.914  12.522  20.867  0.00  0.00    +0.000 C 
ATOM     33  C   UNL     1       0.565  12.351  20.515  0.00  0.00    +0.000 C 
ATOM     34  C   UNL     1       0.791  10.941  19.966  0.00  0.00    +0.000 C 
ENDBRANCH  26  33
ENDBRANCH   1  30
TORSDOF 3
ENDMDL
MODEL 3
REMARK VINA RESULT:      -7.2      1.404      1.842
REMARK  Name = 
REMARK  6 active torsions:
REMARK  status: ('A' for Active; 'I' for Inactive)
REMARK    1  A    between atoms: C_1  and  C_2
REMARK    2  A    between atoms: C_2  and  C_3
REMARK    3  A    between atoms: C_2  and  C_4
REMARK    4  A    between atoms: C_8  and  N_9
REMARK    5  A    between atoms: C_13  and  C_14
REMARK    6  A    between atoms: C_28  and  C_29
REMARK                            x       y       z     vdW  Elec       q    Type
REMARK                         _______ _______ _______ _____ _____    ______ ____
ROOT
ATOM      1  N   UNL     1      -1.892  13.674  22.902  0.00  0.00    +0.000 N 
ATOM      2  C   UNL     1      -2.329  12.382  23.431  0.00  0.00    +0.000 C 
ATOM      3  C   UNL     1      -1.483  11.286  22.777  0.00  0.00    +0.000 C 
ATOM      4  C   UNL     1      -0.771  12.030  21.711  0.00  0.00    +0.000 A 
ATOM      5  C   UNL     1       0.139  11.639  20.767  0.00  0.00    +0.000 A 
ATOM      6  N   UNL     1       0.696  12.561  19.957  0.00  0.00    +0.000 NA
ATOM      7  C   UNL     1       0.379  13.867  20.083  0.00  0.00    +0.000 A 
ATOM      8  N   UNL     1       1.119  14.782  19.360  0.00  0.00    +0.000 N 
ATOM      9  C   UNL     1       2.120  14.219  18.430  0.00  0.00    +0.000 C 
ATOM     10  C   UNL     1       3.265  15.224  18.253  0.00  0.00    +0.000 C 
ATOM     11  O   UNL     1       2.776  16.479  17.761  0.00  0.00    +0.000 OA
ATOM     12  C   UNL     1       1.830  17.035  18.688  0.00  0.00    +0.000 C 
ATOM     13  C   UNL     1       0.608  16.102  18.915  0.00  0.00    +0.000 C 
ATOM     14  C   UNL     1      -0.353  16.815  19.860  0.00  0.00    +0.000 C 
ATOM     15  N   UNL     1      -0.517  14.293  20.984  0.00  0.00    +0.000 NA
ATOM     16  C   UNL     1      -1.050  13.376  21.793  0.00  0.00    +0.000 A 
ENDROOT
BRANCH   5  17
ATOM     17  C   UNL     1       0.677  10.280  20.611  0.00  0.00    +0.000 A 
ATOM     18  C   UNL     1       0.881   9.379  21.637  0.00  0.00    +0.000 A 
ATOM     19  N   UNL     1       1.454   8.159  21.499  0.00  0.00    +0.000 NA
ATOM     20  C   UNL     1       1.833   7.815  20.271  0.00  0.00    +0.000 A 
ATOM     21  N   UNL     1       2.456   6.597  20.117  0.00  0.00    +0.000 N 
ATOM     22  N   UNL     1       1.629   8.559  19.184  0.00  0.00    +0.000 NA
ATOM     23  C   UNL     1       1.060   9.772  19.381  0.00  0.00    +0.000 A 
ATOM     24  H   UNL     1       2.218   5.989  20.886  0.00  0.00    +0.000 HD
ATOM     25  H   UNL     1       2.313   6.250  19.179  0.00  0.00    +0.000 HD
ENDBRANCH   5  17
BRANCH   1  30
ATOM     26  C   UNL     1      -5.748  13.766  22.640  0.00  0.00    +0.000 C 
ATOM     27  O   UNL     1      -5.920  13.270  21.527  0.00  0.00    +0.000 OA
ATOM     28  N   UNL     1      -4.731  14.656  22.897  0.00  0.00    +0.000 N 
ATOM     29  C   UNL     1      -3.718  15.118  21.962  0.00  0.00    +0.000 C 
ATOM     30  C   UNL     1      -2.666  14.876  23.067  0.00  0.00    +0.000 C 
ATOM     31  C   UNL     1      -3.842  14.714  24.056  0.00  0.00    +0.000 C 
BRANCH  26  33
ATOM     32  C   UNL     1      -7.703  14.651  23.925  0.00  0.00    +0.000 C 
ATOM     33  C   UNL     1      -6.693  13.508  23.816  0.00  0.00    +0.000 C 
ATOM     34  C   UNL     1      -7.445  12.187  23.645  0.00  0.00    +0.000 C 
ENDBRANCH  26  33
ENDBRANCH   1  30
TORSDOF 3
ENDMDL
MODEL 4
REMARK VINA RESULT:      -6.9      6.444      9.115
REMARK  Name = 
REMARK  6 active torsions:
REMARK  status: ('A' for Active; 'I' for Inactive)
REMARK    1  A    between atoms: C_1  and  C_2
REMARK    2  A    between atoms: C_2  and  C_3
REMARK    3  A    between atoms: C_2  and  C_4
REMARK    4  A    between atoms: C_8  and  N_9
REMARK    5  A    between atoms: C_13  and  C_14
REMARK    6  A    between atoms: C_28  and  C_29
REMARK                            x       y       z     vdW  Elec       q    Type
REMARK                         _______ _______ _______ _____ _____    ______ ____
ROOT
ATOM      1  N   UNL     1       5.993  15.836  20.009  0.00  0.00    +0.000 N 
ATOM      2  C   UNL     1       5.219  16.320  21.152  0.00  0.00    +0.000 C 
ATOM      3  C   UNL     1       5.907  15.840  22.433  0.00  0.00    +0.000 C 
ATOM      4  C   UNL     1       6.914  14.885  21.912  0.00  0.00    +0.000 A 
ATOM      5  C   UNL     1       7.855  14.111  22.535  0.00  0.00    +0.000 A 
ATOM      6  N   UNL     1       8.711  13.379  21.793  0.00  0.00    +0.000 NA
ATOM      7  C   UNL     1       8.658  13.419  20.445  0.00  0.00    +0.000 A 
ATOM      8  N   UNL     1       9.675  12.802  19.743  0.00  0.00    +0.000 N 
ATOM      9  C   UNL     1      10.667  12.061  20.551  0.00  0.00    +0.000 C 
ATOM     10  C   UNL     1      12.010  12.048  19.811  0.00  0.00    +0.000 C 
ATOM     11  O   UNL     1      11.877  11.451  18.513  0.00  0.00    +0.000 OA
ATOM     12  C   UNL     1      10.938  12.198  17.724  0.00  0.00    +0.000 C 
ATOM     13  C   UNL     1       9.527  12.247  18.375  0.00  0.00    +0.000 C 
ATOM     14  C   UNL     1       8.603  13.006  17.428  0.00  0.00    +0.000 C 
ATOM     15  N   UNL     1       7.745  14.152  19.795  0.00  0.00    +0.000 NA
ATOM     16  C   UNL     1       6.913  14.886  20.536  0.00  0.00    +0.000 A 
ENDROOT
BRANCH   5  17
ATOM     17  C   UNL     1       8.114  14.079  23.981  0.00  0.00    +0.000 A 
ATOM     18  C   UNL     1       8.836  15.021  24.685  0.00  0.00    +0.000 A 
ATOM     19  N   UNL     1       9.142  14.944  26.003  0.00  0.00    +0.000 NA
ATOM     20  C   UNL     1       8.693  13.875  26.655  0.00  0.00    +0.000 A 
ATOM     21  N   UNL     1       9.028  13.756  27.985  0.00  0.00    +0.000 N 
ATOM     22  N   UNL     1       7.923  12.930  26.114  0.00  0.00    +0.000 NA
ATOM     23  C   UNL     1       7.657  13.053  24.792  0.00  0.00    +0.000 A 
ATOM     24  H   UNL     1       9.261  14.662  28.364  0.00  0.00    +0.000 HD
ATOM     25  H   UNL     1       8.334  13.205  28.470  0.00  0.00    +0.000 HD
ENDBRANCH   5  17
BRANCH   1  30
ATOM     26  C   UNL     1       2.486  14.494  19.088  0.00  0.00    +0.000 C 
ATOM     27  O   UNL     1       2.546  13.351  19.541  0.00  0.00    +0.000 OA
ATOM     28  N   UNL     1       3.547  15.080  18.437  0.00  0.00    +0.000 N 
ATOM     29  C   UNL     1       4.861  14.501  18.210  0.00  0.00    +0.000 C 
ATOM     30  C   UNL     1       5.471  15.844  18.667  0.00  0.00    +0.000 C 
ATOM     31  C   UNL     1       4.053  16.446  18.566  0.00  0.00    +0.000 C 
BRANCH  26  33
ATOM     32  C   UNL     1       0.015  14.480  18.701  0.00  0.00    +0.000 C 
ATOM     33  C   UNL     1       1.209  15.335  19.130  0.00  0.00    +0.000 C 
ATOM     34  C   UNL     1       0.953  15.888  20.534  0.00  0.00    +0.000 C 
ENDBRANCH  26  33
ENDBRANCH   1  30
TORSDOF 3
ENDMDL
MODEL 5
REMARK VINA RESULT:      -6.8      5.783      8.163
REMARK  Name = 
REMARK  6 active torsions:
REMARK  status: ('A' for Active; 'I' for Inactive)
REMARK    1  A    between atoms: C_1  and  C_2
REMARK    2  A    between atoms: C_2  and  C_3
REMARK    3  A    between atoms: C_2  and  C_4
REMARK    4  A    between atoms: C_8  and  N_9
REMARK    5  A    between atoms: C_13  and  C_14
REMARK    6  A    between atoms: C_28  and  C_29
REMARK                            x       y       z     vdW  Elec       q    Type
REMARK                         _______ _______ _______ _____ _____    ______ ____
ROOT
ATOM      1  N   UNL     1       4.659  16.035  20.145  0.00  0.00    +0.000 N 
ATOM      2  C   UNL     1       4.961  16.504  18.793  0.00  0.00    +0.000 C 
ATOM      3  C   UNL     1       6.302  15.900  18.366  0.00  0.00    +0.000 C 
ATOM      4  C   UNL     1       6.801  15.312  19.632  0.00  0.00    +0.000 A 
ATOM      5  C   UNL     1       7.944  14.624  19.939  0.00  0.00    +0.000 A 
ATOM      6  N   UNL     1       8.106  14.124  21.180  0.00  0.00    +0.000 NA
ATOM      7  C   UNL     1       7.145  14.280  22.114  0.00  0.00    +0.000 A 
ATOM      8  N   UNL     1       7.282  13.587  23.301  0.00  0.00    +0.000 N 
ATOM      9  C   UNL     1       8.538  12.825  23.467  0.00  0.00    +0.000 C 
ATOM     10  C   UNL     1       8.283  11.631  24.396  0.00  0.00    +0.000 C 
ATOM     11  O   UNL     1       7.790  12.066  25.671  0.00  0.00    +0.000 OA
ATOM     12  C   UNL     1       6.552  12.775  25.502  0.00  0.00    +0.000 C 
ATOM     13  C   UNL     1       6.709  14.029  24.596  0.00  0.00    +0.000 C 
ATOM     14  C   UNL     1       5.358  14.733  24.538  0.00  0.00    +0.000 C 
ATOM     15  N   UNL     1       6.016  14.957  21.861  0.00  0.00    +0.000 NA
ATOM     16  C   UNL     1       5.856  15.433  20.626  0.00  0.00    +0.000 A 
ENDROOT
BRANCH   5  17
ATOM     17  C   UNL     1       9.004  14.263  18.987  0.00  0.00    +0.000 A 
ATOM     18  C   UNL     1       9.946  15.131  18.473  0.00  0.00    +0.000 A 
ATOM     19  N   UNL     1      10.868  14.812  17.533  0.00  0.00    +0.000 NA
ATOM     20  C   UNL     1      10.858  13.557  17.093  0.00  0.00    +0.000 A 
ATOM     21  N   UNL     1      11.761  13.223  16.108  0.00  0.00    +0.000 N 
ATOM     22  N   UNL     1      10.054  12.601  17.558  0.00  0.00    +0.000 NA
ATOM     23  C   UNL     1       9.145  12.979  18.489  0.00  0.00    +0.000 A 
ATOM     24  H   UNL     1      12.533  13.873  16.113  0.00  0.00    +0.000 HD
ATOM     25  H   UNL     1      11.974  12.236  16.152  0.00  0.00    +0.000 HD
ENDBRANCH   5  17
BRANCH   1  30
ATOM     26  C   UNL     1       0.887  15.849  19.315  0.00  0.00    +0.000 C 
ATOM     27  O   UNL     1       0.877  16.301  18.170  0.00  0.00    +0.000 OA
ATOM     28  N   UNL     1       1.679  16.382  20.306  0.00  0.00    +0.000 N 
ATOM     29  C   UNL     1       2.613  17.489  20.177  0.00  0.00    +0.000 C 
ATOM     30  C   UNL     1       3.639  16.642  20.960  0.00  0.00    +0.000 C 
ATOM     31  C   UNL     1       2.481  15.682  21.307  0.00  0.00    +0.000 C 
BRANCH  26  33
ATOM     32  C   UNL     1      -1.347  15.293  20.294  0.00  0.00    +0.000 C 
ATOM     33  C   UNL     1      -0.033  14.713  19.765  0.00  0.00    +0.000 C 
ATOM     34  C   UNL     1      -0.337  13.753  18.613  0.00  0.00    +0.000 C 
ENDBRANCH  26  33
ENDBRANCH   1  30
TORSDOF 3
ENDMDL
MODEL 6
REMARK VINA RESULT:      -6.8      2.344      3.253
REMARK  Name = 
REMARK  6 active torsions:
REMARK  status: ('A' for Active; 'I' for Inactive)
REMARK    1  A    between atoms: C_1  and  C_2
REMARK    2  A    between atoms: C_2  and  C_3
REMARK    3  A    between atoms: C_2  and  C_4
REMARK    4  A    between atoms: C_8  and  N_9
REMARK    5  A    between atoms: C_13  and  C_14
REMARK    6  A    between atoms: C_28  and  C_29
REMARK                            x       y       z     vdW  Elec       q    Type
REMARK                         _______ _______ _______ _____ _____    ______ ____
ROOT
ATOM      1  N   UNL     1      -3.598  11.728  18.768  0.00  0.00    +0.000 N 
ATOM      2  C   UNL     1      -3.670  10.429  18.100  0.00  0.00    +0.000 C 
ATOM      3  C   UNL     1      -2.282   9.785  18.155  0.00  0.00    +0.000 C 
ATOM      4  C   UNL     1      -1.436  10.899  18.648  0.00  0.00    +0.000 A 
ATOM      5  C   UNL     1      -0.097  10.987  18.918  0.00  0.00    +0.000 A 
ATOM      6  N   UNL     1       0.401  12.124  19.443  0.00  0.00    +0.000 NA
ATOM      7  C   UNL     1      -0.410  13.166  19.720  0.00  0.00    +0.000 A 
ATOM      8  N   UNL     1       0.122  14.226  20.428  0.00  0.00    +0.000 N 
ATOM      9  C   UNL     1       1.571  14.153  20.716  0.00  0.00    +0.000 C 
ATOM     10  C   UNL     1       1.867  14.931  22.004  0.00  0.00    +0.000 C 
ATOM     11  O   UNL     1       1.449  16.298  21.888  0.00  0.00    +0.000 OA
ATOM     12  C   UNL     1       0.034  16.359  21.644  0.00  0.00    +0.000 C 
ATOM     13  C   UNL     1      -0.370  15.622  20.336  0.00  0.00    +0.000 C 
ATOM     14  C   UNL     1      -1.873  15.803  20.145  0.00  0.00    +0.000 C 
ATOM     15  N   UNL     1      -1.724  13.128  19.459  0.00  0.00    +0.000 NA
ATOM     16  C   UNL     1      -2.212  11.993  18.956  0.00  0.00    +0.000 A 
ENDROOT
BRANCH   5  17
ATOM     17  C   UNL     1       0.872   9.889  18.796  0.00  0.00    +0.000 A 
ATOM     18  C   UNL     1       1.616   9.601  17.670  0.00  0.00    +0.000 A 
ATOM     19  N   UNL     1       2.446   8.539  17.535  0.00  0.00    +0.000 NA
ATOM     20  C   UNL     1       2.548   7.728  18.585  0.00  0.00    +0.000 A 
ATOM     21  N   UNL     1       3.354   6.619  18.454  0.00  0.00    +0.000 N 
ATOM     22  N   UNL     1       1.944   7.930  19.756  0.00  0.00    +0.000 NA
ATOM     23  C   UNL     1       1.119   9.002  19.831  0.00  0.00    +0.000 A 
ATOM     24  H   UNL     1       4.027   6.767  17.716  0.00  0.00    +0.000 HD
ATOM     25  H   UNL     1       3.701   6.333  19.359  0.00  0.00    +0.000 HD
ENDBRANCH   5  17
BRANCH   1  30
ATOM     26  C   UNL     1      -6.545  12.074  21.248  0.00  0.00    +0.000 C 
ATOM     27  O   UNL     1      -7.009  10.934  21.220  0.00  0.00    +0.000 OA
ATOM     28  N   UNL     1      -6.099  12.710  20.113  0.00  0.00    +0.000 N 
ATOM     29  C   UNL     1      -6.069  12.171  18.763  0.00  0.00    +0.000 C 
ATOM     30  C   UNL     1      -4.631  12.721  18.634  0.00  0.00    +0.000 C 
ATOM     31  C   UNL     1      -4.891  13.514  19.933  0.00  0.00    +0.000 C 
BRANCH  26  33
ATOM     32  C   UNL     1      -7.567  12.433  23.502  0.00  0.00    +0.000 C 
ATOM     33  C   UNL     1      -6.496  12.918  22.523  0.00  0.00    +0.000 C 
ATOM     34  C   UNL     1      -5.124  12.830  23.195  0.00  0.00    +0.000 C 
ENDBRANCH  26  33
ENDBRANCH   1  30
TORSDOF 3
ENDMDL
MODEL 7
REMARK VINA RESULT:      -6.8      6.321     10.441
REMARK  Name = 
REMARK  6 active torsions:
REMARK  status: ('A' for Active; 'I' for Inactive)
REMARK    1  A    between atoms: C_1  and  C_2
REMARK    2  A    between atoms: C_2  and  C_3
REMARK    3  A    between atoms: C_2  and  C_4
REMARK    4  A    between atoms: C_8  and  N_9
REMARK    5  A    between atoms: C_13  and  C_14
REMARK    6  A    between atoms: C_28  and  C_29
REMARK                            x       y       z     vdW  Elec       q    Type
REMARK                         _______ _______ _______ _____ _____    ______ ____
ROOT
ATOM      1  N   UNL     1       8.682  15.034  21.191  0.00  0.00    +0.000 N 
ATOM      2  C   UNL     1       9.535  14.802  22.356  0.00  0.00    +0.000 C 
ATOM      3  C   UNL     1       8.694  14.115  23.436  0.00  0.00    +0.000 C 
ATOM      4  C   UNL     1       7.322  14.228  22.887  0.00  0.00    +0.000 A 
ATOM      5  C   UNL     1       6.106  13.815  23.360  0.00  0.00    +0.000 A 
ATOM      6  N   UNL     1       5.005  13.983  22.600  0.00  0.00    +0.000 NA
ATOM      7  C   UNL     1       5.096  14.536  21.372  0.00  0.00    +0.000 A 
ATOM      8  N   UNL     1       3.973  14.507  20.568  0.00  0.00    +0.000 N 
ATOM      9  C   UNL     1       2.745  13.964  21.187  0.00  0.00    +0.000 C 
ATOM     10  C   UNL     1       1.856  13.359  20.094  0.00  0.00    +0.000 C 
ATOM     11  O   UNL     1       1.524  14.337  19.099  0.00  0.00    +0.000 OA
ATOM     12  C   UNL     1       2.722  14.833  18.480  0.00  0.00    +0.000 C 
ATOM     13  C   UNL     1       3.684  15.498  19.504  0.00  0.00    +0.000 C 
ATOM     14  C   UNL     1       4.883  16.039  18.732  0.00  0.00    +0.000 C 
ATOM     15  N   UNL     1       6.264  14.966  20.876  0.00  0.00    +0.000 NA
ATOM     16  C   UNL     1       7.350  14.781  21.627  0.00  0.00    +0.000 A 
ENDROOT
BRANCH   5  17
ATOM     17  C   UNL     1       5.882  13.078  24.612  0.00  0.00    +0.000 A 
ATOM     18  C   UNL     1       5.593  13.648  25.835  0.00  0.00    +0.000 A 
ATOM     19  N   UNL     1       5.470  12.970  27.001  0.00  0.00    +0.000 NA
ATOM     20  C   UNL     1       5.632  11.650  26.941  0.00  0.00    +0.000 A 
ATOM     21  N   UNL     1       5.553  10.947  28.122  0.00  0.00    +0.000 N 
ATOM     22  N   UNL     1       5.841  10.967  25.816  0.00  0.00    +0.000 NA
ATOM     23  C   UNL     1       5.964  11.697  24.681  0.00  0.00    +0.000 A 
ATOM     24  H   UNL     1       5.033  11.479  28.805  0.00  0.00    +0.000 HD
ATOM     25  H   UNL     1       5.261   9.997  27.942  0.00  0.00    +0.000 HD
ENDBRANCH   5  17
BRANCH   1  30
ATOM     26  C   UNL     1      11.367  14.156  18.551  0.00  0.00    +0.000 C 
ATOM     27  O   UNL     1      12.326  13.885  19.273  0.00  0.00    +0.000 OA
ATOM     28  N   UNL     1      10.520  15.206  18.821  0.00  0.00    +0.000 N 
ATOM     29  C   UNL     1      10.584  16.111  19.957  0.00  0.00    +0.000 C 
ATOM     30  C   UNL     1       9.060  15.922  20.124  0.00  0.00    +0.000 C 
ATOM     31  C   UNL     1       9.061  15.245  18.736  0.00  0.00    +0.000 C 
BRANCH  26  33
ATOM     32  C   UNL     1      12.333  13.377  16.379  0.00  0.00    +0.000 C 
ATOM     33  C   UNL     1      11.074  13.409  17.248  0.00  0.00    +0.000 C 
ATOM     34  C   UNL     1      10.615  11.975  17.520  0.00  0.00    +0.000 C 
ENDBRANCH  26  33
ENDBRANCH   1  30
TORSDOF 3
ENDMDL
MODEL 8
REMARK VINA RESULT:      -6.7      2.097      2.533
REMARK  Name = 
REMARK  6 active torsions:
REMARK  status: ('A' for Active; 'I' for Inactive)
REMARK    1  A    between atoms: C_1  and  C_2
REMARK    2  A    between atoms: C_2  and  C_3
REMARK    3  A    between atoms: C_2  and  C_4
REMARK    4  A    between atoms: C_8  and  N_9
REMARK    5  A    between atoms: C_13  and  C_14
REMARK    6  A    between atoms: C_28  and  C_29
REMARK                            x       y       z     vdW  Elec       q    Type
REMARK                         _______ _______ _______ _____ _____    ______ ____
ROOT
ATOM      1  N   UNL     1      -2.614  12.761  20.131  0.00  0.00    +0.000 N 
ATOM      2  C   UNL     1      -3.110  11.575  19.435  0.00  0.00    +0.000 C 
ATOM      3  C   UNL     1      -1.919  10.658  19.143  0.00  0.00    +0.000 C 
ATOM      4  C   UNL     1      -0.764  11.522  19.484  0.00  0.00    +0.000 A 
ATOM      5  C   UNL     1       0.587  11.308  19.448  0.00  0.00    +0.000 A 
ATOM      6  N   UNL     1       1.424  12.263  19.900  0.00  0.00    +0.000 NA
ATOM      7  C   UNL     1       0.940  13.417  20.404  0.00  0.00    +0.000 A 
ATOM      8  N   UNL     1       1.831  14.273  21.024  0.00  0.00    +0.000 N 
ATOM      9  C   UNL     1       3.255  13.878  20.972  0.00  0.00    +0.000 C 
ATOM     10  C   UNL     1       3.981  14.450  22.196  0.00  0.00    +0.000 C 
ATOM     11  O   UNL     1       3.860  15.879  22.244  0.00  0.00    +0.000 OA
ATOM     12  C   UNL     1       2.475  16.251  22.329  0.00  0.00    +0.000 C 
ATOM     13  C   UNL     1       1.651  15.742  21.113  0.00  0.00    +0.000 C 
ATOM     14  C   UNL     1       0.221  16.245  21.277  0.00  0.00    +0.000 C 
ATOM     15  N   UNL     1      -0.374  13.675  20.446  0.00  0.00    +0.000 NA
ATOM     16  C   UNL     1      -1.195  12.718  20.012  0.00  0.00    +0.000 A 
ENDROOT
BRANCH   5  17
ATOM     17  C   UNL     1       1.242  10.052  19.057  0.00  0.00    +0.000 A 
ATOM     18  C   UNL     1       1.365   8.932  19.854  0.00  0.00    +0.000 A 
ATOM     19  N   UNL     1       2.042   7.807  19.519  0.00  0.00    +0.000 NA
ATOM     20  C   UNL     1       2.617   7.795  18.319  0.00  0.00    +0.000 A 
ATOM     21  N   UNL     1       3.345   6.678  17.975  0.00  0.00    +0.000 N 
ATOM     22  N   UNL     1       2.514   8.778  17.424  0.00  0.00    +0.000 NA
ATOM     23  C   UNL     1       1.833   9.881  17.816  0.00  0.00    +0.000 A 
ATOM     24  H   UNL     1       3.046   5.889  18.529  0.00  0.00    +0.000 HD
ATOM     25  H   UNL     1       3.363   6.571  16.971  0.00  0.00    +0.000 HD
ENDBRANCH   5  17
BRANCH   1  30
ATOM     26  C   UNL     1      -5.788  12.934  22.333  0.00  0.00    +0.000 C 
ATOM     27  O   UNL     1      -6.450  12.010  21.862  0.00  0.00    +0.000 OA
ATOM     28  N   UNL     1      -5.059  13.791  21.540  0.00  0.00    +0.000 N 
ATOM     29  C   UNL     1      -4.925  13.742  20.093  0.00  0.00    +0.000 C 
ATOM     30  C   UNL     1      -3.406  13.954  20.283  0.00  0.00    +0.000 C 
ATOM     31  C   UNL     1      -3.708  14.305  21.756  0.00  0.00    +0.000 C 
BRANCH  26  33
ATOM     32  C   UNL     1      -7.208  13.260  24.366  0.00  0.00    +0.000 C 
ATOM     33  C   UNL     1      -5.777  13.269  23.825  0.00  0.00    +0.000 C 
ATOM     34  C   UNL     1      -4.936  12.263  24.615  0.00  0.00    +0.000 C 
ENDBRANCH  26  33
ENDBRANCH   1  30
TORSDOF 3
ENDMDL
MODEL 9
REMARK VINA RESULT:      -6.7      2.103      2.743
REMARK  Name = 
REMARK  6 active torsions:
REMARK  status: ('A' for Active; 'I' for Inactive)
REMARK    1  A    between atoms: C_1  and  C_2
REMARK    2  A    between atoms: C_2  and  C_3
REMARK    3  A    between atoms: C_2  and  C_4
REMARK    4  A    between atoms: C_8  and  N_9
REMARK    5  A    between atoms: C_13  and  C_14
REMARK    6  A    between atoms: C_28  and  C_29
REMARK                            x       y       z     vdW  Elec       q    Type
REMARK                         _______ _______ _______ _____ _____    ______ ____
ROOT
ATOM      1  N   UNL     1      -1.761  13.812  20.455  0.00  0.00    +0.000 N 
ATOM      2  C   UNL     1      -2.506  12.556  20.530  0.00  0.00    +0.000 C 
ATOM      3  C   UNL     1      -1.554  11.414  20.163  0.00  0.00    +0.000 C 
ATOM      4  C   UNL     1      -0.368  12.143  19.652  0.00  0.00    +0.000 A 
ATOM      5  C   UNL     1       0.835  11.712  19.163  0.00  0.00    +0.000 A 
ATOM      6  N   UNL     1       1.782  12.616  18.837  0.00  0.00    +0.000 NA
ATOM      7  C   UNL     1       1.558  13.935  19.006  0.00  0.00    +0.000 A 
ATOM      8  N   UNL     1       2.626  14.796  18.836  0.00  0.00    +0.000 N 
ATOM      9  C   UNL     1       3.889  14.182  18.375  0.00  0.00    +0.000 C 
ATOM     10  C   UNL     1       5.070  15.018  18.882  0.00  0.00    +0.000 C 
ATOM     11  O   UNL     1       4.976  16.373  18.422  0.00  0.00    +0.000 OA
ATOM     12  C   UNL     1       3.763  16.972  18.904  0.00  0.00    +0.000 C 
ATOM     13  C   UNL     1       2.496  16.213  18.418  0.00  0.00    +0.000 C 
ATOM     14  C   UNL     1       1.275  16.967  18.934  0.00  0.00    +0.000 C 
ATOM     15  N   UNL     1       0.390  14.401  19.469  0.00  0.00    +0.000 NA
ATOM     16  C   UNL     1      -0.534  13.500  19.805  0.00  0.00    +0.000 A 
ENDROOT
BRANCH   5  17
ATOM     17  C   UNL     1       1.262  10.310  19.058  0.00  0.00    +0.000 A 
ATOM     18  C   UNL     1       1.197   9.376  20.072  0.00  0.00    +0.000 A 
ATOM     19  N   UNL     1       1.668   8.108  19.995  0.00  0.00    +0.000 NA
ATOM     20  C   UNL     1       2.223   7.750  18.840  0.00  0.00    +0.000 A 
ATOM     21  N   UNL     1       2.746   6.479  18.755  0.00  0.00    +0.000 N 
ATOM     22  N   UNL     1       2.283   8.527  17.759  0.00  0.00    +0.000 NA
ATOM     23  C   UNL     1       1.806   9.788  17.896  0.00  0.00    +0.000 A 
ATOM     24  H   UNL     1       2.320   5.884  19.451  0.00  0.00    +0.000 HD
ATOM     25  H   UNL     1       2.738   6.163  17.796  0.00  0.00    +0.000 HD
ENDBRANCH   5  17
BRANCH   1  30
ATOM     26  C   UNL     1      -3.723  15.228  23.471  0.00  0.00    +0.000 C 
ATOM     27  O   UNL     1      -4.524  14.317  23.679  0.00  0.00    +0.000 OA
ATOM     28  N   UNL     1      -3.391  15.636  22.200  0.00  0.00    +0.000 N 
ATOM     29  C   UNL     1      -3.874  15.076  20.948  0.00  0.00    +0.000 C 
ATOM     30  C   UNL     1      -2.416  15.095  20.440  0.00  0.00    +0.000 C 
ATOM     31  C   UNL     1      -2.073  15.971  21.665  0.00  0.00    +0.000 C 
BRANCH  26  33
ATOM     32  C   UNL     1      -4.123  17.010  25.181  0.00  0.00    +0.000 C 
ATOM     33  C   UNL     1      -3.088  16.046  24.598  0.00  0.00    +0.000 C 
ATOM     34  C   UNL     1      -2.561  15.140  25.713  0.00  0.00    +0.000 C 
ENDBRANCH  26  33
ENDBRANCH   1  30
TORSDOF 3
ENDMDL
