MODEL 1
REMARK VINA RESULT:      -7.7      0.000      0.000
REMARK  Name = 
REMARK  9 active torsions:
REMARK  status: ('A' for Active; 'I' for Inactive)
REMARK    1  A    between atoms: C_1  and  C_2
REMARK    2  A    between atoms: C_2  and  C_3
REMARK    3  A    between atoms: C_4  and  C_5
REMARK    4  A    between atoms: C_5  and  N_6
REMARK    5  A    between atoms: N_11  and  C1*_12
REMARK    6  A    between atoms: C4*_14  and  C5*_15
REMARK    7  A    between atoms: C5*_15  and  O5*_16
REMARK    8  A    between atoms: C3*_17  and  O3*_18
REMARK    9  A    between atoms: C2*_19  and  O2*_20
REMARK                            x       y       z     vdW  Elec       q    Type
REMARK                         _______ _______ _______ _____ _____    ______ ____
ROOT
ATOM      1  N   UNL     1       5.565   5.185  16.848  0.00  0.00    +0.000 N 
ATOM      2  C   UNL     1       5.025   6.385  16.427  0.00  0.00    +0.000 A 
ATOM      3  O   UNL     1       5.481   7.098  15.539  0.00  0.00    +0.000 OA
ATOM      4  C   UNL     1       3.794   6.805  17.114  0.00  0.00    +0.000 A 
ATOM      5  C   UNL     1       3.338   6.092  18.138  0.00  0.00    +0.000 A 
ATOM      6  N   UNL     1       4.000   4.974  18.600  0.00  0.00    +0.000 N 
ATOM      7  C   UNL     1       5.151   4.498  17.976  0.00  0.00    +0.000 A 
ATOM      8  O   UNL     1       5.766   3.523  18.409  0.00  0.00    +0.000 OA
ENDROOT
BRANCH   6   9
ATOM      9  C1* UNL     1       3.457   4.248  19.749  0.00  0.00    +0.000 C 
ATOM     10  O4* UNL     1       3.299   2.855  19.418  0.00  0.00    +0.000 OA
ATOM     11  C4* UNL     1       2.043   2.384  19.966  0.00  0.00    +0.000 C 
ATOM     12  C3* UNL     1       1.512   3.496  20.870  0.00  0.00    +0.000 C 
ATOM     13  C2* UNL     1       2.112   4.763  20.281  0.00  0.00    +0.000 C 
BRANCH  12  14
ATOM     14  O3* UNL     1       2.015   3.360  22.218  0.00  0.00    +0.000 OA
ATOM     15  H3* UNL     1       2.684   2.651  22.235  0.00  0.00    +0.000 HD
ENDBRANCH  12  14
BRANCH  13  16
ATOM     16  O2* UNL     1       2.282   5.775  21.280  0.00  0.00    +0.000 OA
ATOM     17  H2* UNL     1       2.124   6.629  20.824  0.00  0.00    +0.000 HD
ENDBRANCH  13  16
BRANCH  11  18
ATOM     18  C5* UNL     1       1.077   2.005  18.839  0.00  0.00    +0.000 C 
BRANCH  18  19
ATOM     19  O5* UNL     1       1.789   1.891  17.607  0.00  0.00    +0.000 OA
ATOM     20  H5* UNL     1       1.560   1.011  17.252  0.00  0.00    +0.000 HD
ENDBRANCH  18  19
ENDBRANCH  11  18
ENDBRANCH   6   9
BRANCH   1  21
ATOM     21  C   UNL     1       6.696   4.652  16.101  0.00  0.00    +0.000 C 
BRANCH  21  25
ATOM     22  C   UNL     1       5.903   3.343  12.492  0.00  0.00    +0.000 C 
ATOM     23  C   UNL     1       6.543   4.126  13.607  0.00  0.00    +0.000 C 
ATOM     24  C   UNL     1       7.579   5.143  13.220  0.00  0.00    +0.000 C 
ATOM     25  C   UNL     1       6.176   3.918  14.888  0.00  0.00    +0.000 C 
ENDBRANCH  21  25
ENDBRANCH   1  21
TORSDOF 7
ENDMDL
MODEL 2
REMARK VINA RESULT:      -7.4      1.393      2.407
REMARK  Name = 
REMARK  9 active torsions:
REMARK  status: ('A' for Active; 'I' for Inactive)
REMARK    1  A    between atoms: C_1  and  C_2
REMARK    2  A    between atoms: C_2  and  C_3
REMARK    3  A    between atoms: C_4  and  C_5
REMARK    4  A    between atoms: C_5  and  N_6
REMARK    5  A    between atoms: N_11  and  C1*_12
REMARK    6  A    between atoms: C4*_14  and  C5*_15
REMARK    7  A    between atoms: C5*_15  and  O5*_16
REMARK    8  A    between atoms: C3*_17  and  O3*_18
REMARK    9  A    between atoms: C2*_19  and  O2*_20
REMARK                            x       y       z     vdW  Elec       q    Type
REMARK                         _______ _______ _______ _____ _____    ______ ____
ROOT
ATOM      1  N   UNL     1       6.043   5.083  16.167  0.00  0.00    +0.000 N 
ATOM      2  C   UNL     1       6.222   6.315  16.766  0.00  0.00    +0.000 A 
ATOM      3  O   UNL     1       7.151   7.085  16.544  0.00  0.00    +0.000 OA
ATOM      4  C   UNL     1       5.189   6.710  17.735  0.00  0.00    +0.000 A 
ATOM      5  C   UNL     1       4.227   5.850  18.054  0.00  0.00    +0.000 A 
ATOM      6  N   UNL     1       4.179   4.579  17.522  0.00  0.00    +0.000 N 
ATOM      7  C   UNL     1       5.103   4.150  16.573  0.00  0.00    +0.000 A 
ATOM      8  O   UNL     1       5.086   3.004  16.123  0.00  0.00    +0.000 OA
ENDROOT
BRANCH   6   9
ATOM      9  C1* UNL     1       3.106   3.673  17.936  0.00  0.00    +0.000 C 
ATOM     10  O4* UNL     1       2.058   4.417  18.586  0.00  0.00    +0.000 OA
ATOM     11  C4* UNL     1       1.595   3.666  19.734  0.00  0.00    +0.000 C 
ATOM     12  C3* UNL     1       2.245   2.285  19.650  0.00  0.00    +0.000 C 
ATOM     13  C2* UNL     1       3.530   2.535  18.875  0.00  0.00    +0.000 C 
BRANCH  12  14
ATOM     14  O3* UNL     1       1.436   1.372  18.875  0.00  0.00    +0.000 OA
ATOM     15  H3* UNL     1       0.536   1.738  18.797  0.00  0.00    +0.000 HD
ENDBRANCH  12  14
BRANCH  13  16
ATOM     16  O2* UNL     1       3.938   1.367  18.153  0.00  0.00    +0.000 OA
ATOM     17  H2* UNL     1       3.284   1.258  17.430  0.00  0.00    +0.000 HD
ENDBRANCH  13  16
BRANCH  11  18
ATOM     18  C5* UNL     1       1.924   4.414  21.031  0.00  0.00    +0.000 C 
BRANCH  18  19
ATOM     19  O5* UNL     1       2.190   3.480  22.076  0.00  0.00    +0.000 OA
ATOM     20  H5* UNL     1       3.107   3.177  21.930  0.00  0.00    +0.000 HD
ENDBRANCH  18  19
ENDBRANCH  11  18
ENDBRANCH   6   9
BRANCH   1  21
ATOM     21  C   UNL     1       6.953   4.711  15.093  0.00  0.00    +0.000 C 
BRANCH  21  25
ATOM     22  C   UNL     1       5.532   3.048  11.841  0.00  0.00    +0.000 C 
ATOM     23  C   UNL     1       6.397   3.889  12.741  0.00  0.00    +0.000 C 
ATOM     24  C   UNL     1       7.461   4.722  12.082  0.00  0.00    +0.000 C 
ATOM     25  C   UNL     1       6.198   3.892  14.075  0.00  0.00    +0.000 C 
ENDBRANCH  21  25
ENDBRANCH   1  21
TORSDOF 7
ENDMDL
MODEL 3
REMARK VINA RESULT:      -7.3      1.115      2.210
REMARK  Name = 
REMARK  9 active torsions:
REMARK  status: ('A' for Active; 'I' for Inactive)
REMARK    1  A    between atoms: C_1  and  C_2
REMARK    2  A    between atoms: C_2  and  C_3
REMARK    3  A    between atoms: C_4  and  C_5
REMARK    4  A    between atoms: C_5  and  N_6
REMARK    5  A    between atoms: N_11  and  C1*_12
REMARK    6  A    between atoms: C4*_14  and  C5*_15
REMARK    7  A    between atoms: C5*_15  and  O5*_16
REMARK    8  A    between atoms: C3*_17  and  O3*_18
REMARK    9  A    between atoms: C2*_19  and  O2*_20
REMARK                            x       y       z     vdW  Elec       q    Type
REMARK                         _______ _______ _______ _____ _____    ______ ____
ROOT
ATOM      1  N   UNL     1       5.353   5.055  16.832  0.00  0.00    +0.000 N 
ATOM      2  C   UNL     1       5.417   6.435  16.846  0.00  0.00    +0.000 A 
ATOM      3  O   UNL     1       6.386   7.106  16.504  0.00  0.00    +0.000 OA
ATOM      4  C   UNL     1       4.202   7.126  17.301  0.00  0.00    +0.000 A 
ATOM      5  C   UNL     1       3.177   6.416  17.761  0.00  0.00    +0.000 A 
ATOM      6  N   UNL     1       3.225   5.041  17.850  0.00  0.00    +0.000 N 
ATOM      7  C   UNL     1       4.330   4.319  17.405  0.00  0.00    +0.000 A 
ATOM      8  O   UNL     1       4.392   3.094  17.517  0.00  0.00    +0.000 OA
ENDROOT
BRANCH   6   9
ATOM      9  C1* UNL     1       2.071   4.320  18.390  0.00  0.00    +0.000 C 
ATOM     10  O4* UNL     1       1.677   4.897  19.650  0.00  0.00    +0.000 OA
ATOM     11  C4* UNL     1       1.342   3.829  20.569  0.00  0.00    +0.000 C 
ATOM     12  C3* UNL     1       1.319   2.536  19.753  0.00  0.00    +0.000 C 
ATOM     13  C2* UNL     1       2.275   2.813  18.604  0.00  0.00    +0.000 C 
BRANCH  12  14
ATOM     14  O3* UNL     1       0.010   2.299  19.187  0.00  0.00    +0.000 OA
ATOM     15  H3* UNL     1      -0.316   3.127  18.790  0.00  0.00    +0.000 HD
ENDBRANCH  12  14
BRANCH  13  16
ATOM     16  O2* UNL     1       1.928   2.054  17.441  0.00  0.00    +0.000 OA
ATOM     17  H2* UNL     1       2.026   2.669  16.682  0.00  0.00    +0.000 HD
ENDBRANCH  13  16
BRANCH  11  18
ATOM     18  C5* UNL     1       2.338   3.794  21.733  0.00  0.00    +0.000 C 
BRANCH  18  19
ATOM     19  O5* UNL     1       2.690   2.443  22.030  0.00  0.00    +0.000 OA
ATOM     20  H5* UNL     1       3.269   2.156  21.299  0.00  0.00    +0.000 HD
ENDBRANCH  18  19
ENDBRANCH  11  18
ENDBRANCH   6   9
BRANCH   1  21
ATOM     21  C   UNL     1       6.473   4.330  16.250  0.00  0.00    +0.000 C 
BRANCH  21  25
ATOM     22  C   UNL     1       5.916   3.431  12.476  0.00  0.00    +0.000 C 
ATOM     23  C   UNL     1       6.479   4.087  13.708  0.00  0.00    +0.000 C 
ATOM     24  C   UNL     1       7.525   5.146  13.502  0.00  0.00    +0.000 C 
ATOM     25  C   UNL     1       6.037   3.735  14.933  0.00  0.00    +0.000 C 
ENDBRANCH  21  25
ENDBRANCH   1  21
TORSDOF 7
ENDMDL
MODEL 4
REMARK VINA RESULT:      -7.2      1.576      2.126
REMARK  Name = 
REMARK  9 active torsions:
REMARK  status: ('A' for Active; 'I' for Inactive)
REMARK    1  A    between atoms: C_1  and  C_2
REMARK    2  A    between atoms: C_2  and  C_3
REMARK    3  A    between atoms: C_4  and  C_5
REMARK    4  A    between atoms: C_5  and  N_6
REMARK    5  A    between atoms: N_11  and  C1*_12
REMARK    6  A    between atoms: C4*_14  and  C5*_15
REMARK    7  A    between atoms: C5*_15  and  O5*_16
REMARK    8  A    between atoms: C3*_17  and  O3*_18
REMARK    9  A    between atoms: C2*_19  and  O2*_20
REMARK                            x       y       z     vdW  Elec       q    Type
REMARK                         _______ _______ _______ _____ _____    ______ ____
ROOT
ATOM      1  N   UNL     1       5.673   4.819  15.779  0.00  0.00    +0.000 N 
ATOM      2  C   UNL     1       6.961   5.315  15.844  0.00  0.00    +0.000 A 
ATOM      3  O   UNL     1       7.706   5.488  14.885  0.00  0.00    +0.000 OA
ATOM      4  C   UNL     1       7.442   5.667  17.189  0.00  0.00    +0.000 A 
ATOM      5  C   UNL     1       6.683   5.401  18.247  0.00  0.00    +0.000 A 
ATOM      6  N   UNL     1       5.459   4.777  18.128  0.00  0.00    +0.000 N 
ATOM      7  C   UNL     1       4.926   4.448  16.884  0.00  0.00    +0.000 A 
ATOM      8  O   UNL     1       3.851   3.857  16.775  0.00  0.00    +0.000 OA
ENDROOT
BRANCH   6   9
ATOM      9  C1* UNL     1       4.684   4.490  19.335  0.00  0.00    +0.000 C 
ATOM     10  O4* UNL     1       4.687   3.073  19.595  0.00  0.00    +0.000 OA
ATOM     11  C4* UNL     1       3.360   2.672  20.017  0.00  0.00    +0.000 C 
ATOM     12  C3* UNL     1       2.561   3.956  20.239  0.00  0.00    +0.000 C 
ATOM     13  C2* UNL     1       3.223   4.962  19.310  0.00  0.00    +0.000 C 
BRANCH  12  14
ATOM     14  O3* UNL     1       2.715   4.441  21.591  0.00  0.00    +0.000 OA
ATOM     15  H3* UNL     1       3.651   4.356  21.852  0.00  0.00    +0.000 HD
ENDBRANCH  12  14
BRANCH  13  16
ATOM     16  O2* UNL     1       3.082   6.299  19.803  0.00  0.00    +0.000 OA
ATOM     17  H2* UNL     1       3.930   6.750  19.599  0.00  0.00    +0.000 HD
ENDBRANCH  13  16
BRANCH  11  18
ATOM     18  C5* UNL     1       2.730   1.737  18.979  0.00  0.00    +0.000 C 
BRANCH  18  19
ATOM     19  O5* UNL     1       3.750   1.153  18.169  0.00  0.00    +0.000 OA
ATOM     20  H5* UNL     1       3.302   0.469  17.636  0.00  0.00    +0.000 HD
ENDBRANCH  18  19
ENDBRANCH  11  18
ENDBRANCH   6   9
BRANCH   1  21
ATOM     21  C   UNL     1       5.098   4.597  14.460  0.00  0.00    +0.000 C 
BRANCH  21  25
ATOM     22  C   UNL     1       6.928   2.489  11.708  0.00  0.00    +0.000 C 
ATOM     23  C   UNL     1       5.856   3.282  12.406  0.00  0.00    +0.000 C 
ATOM     24  C   UNL     1       4.541   3.428  11.695  0.00  0.00    +0.000 C 
ATOM     25  C   UNL     1       6.084   3.817  13.623  0.00  0.00    +0.000 C 
ENDBRANCH  21  25
ENDBRANCH   1  21
TORSDOF 7
ENDMDL
MODEL 5
REMARK VINA RESULT:      -7.2      1.549      2.094
REMARK  Name = 
REMARK  9 active torsions:
REMARK  status: ('A' for Active; 'I' for Inactive)
REMARK    1  A    between atoms: C_1  and  C_2
REMARK    2  A    between atoms: C_2  and  C_3
REMARK    3  A    between atoms: C_4  and  C_5
REMARK    4  A    between atoms: C_5  and  N_6
REMARK    5  A    between atoms: N_11  and  C1*_12
REMARK    6  A    between atoms: C4*_14  and  C5*_15
REMARK    7  A    between atoms: C5*_15  and  O5*_16
REMARK    8  A    between atoms: C3*_17  and  O3*_18
REMARK    9  A    between atoms: C2*_19  and  O2*_20
REMARK                            x       y       z     vdW  Elec       q    Type
REMARK                         _______ _______ _______ _____ _____    ______ ____
ROOT
ATOM      1  N   UNL     1       5.753   4.615  16.117  0.00  0.00    +0.000 N 
ATOM      2  C   UNL     1       6.318   5.876  16.139  0.00  0.00    +0.000 A 
ATOM      3  O   UNL     1       7.303   6.225  15.497  0.00  0.00    +0.000 OA
ATOM      4  C   UNL     1       5.649   6.859  17.004  0.00  0.00    +0.000 A 
ATOM      5  C   UNL     1       4.637   6.474  17.775  0.00  0.00    +0.000 A 
ATOM      6  N   UNL     1       4.206   5.166  17.810  0.00  0.00    +0.000 N 
ATOM      7  C   UNL     1       4.768   4.189  16.992  0.00  0.00    +0.000 A 
ATOM      8  O   UNL     1       4.411   3.012  17.048  0.00  0.00    +0.000 OA
ENDROOT
BRANCH   6   9
ATOM      9  C1* UNL     1       3.102   4.802  18.700  0.00  0.00    +0.000 C 
ATOM     10  O4* UNL     1       3.617   4.421  19.990  0.00  0.00    +0.000 OA
ATOM     11  C4* UNL     1       2.882   3.266  20.464  0.00  0.00    +0.000 C 
ATOM     12  C3* UNL     1       1.705   3.069  19.509  0.00  0.00    +0.000 C 
ATOM     13  C2* UNL     1       2.196   3.669  18.199  0.00  0.00    +0.000 C 
BRANCH  12  14
ATOM     14  O3* UNL     1       0.553   3.830  19.934  0.00  0.00    +0.000 OA
ATOM     15  H3* UNL     1       0.547   4.683  19.463  0.00  0.00    +0.000 HD
ENDBRANCH  12  14
BRANCH  13  16
ATOM     16  O2* UNL     1       1.106   4.161  17.411  0.00  0.00    +0.000 OA
ATOM     17  H2* UNL     1       1.455   4.244  16.497  0.00  0.00    +0.000 HD
ENDBRANCH  13  16
BRANCH  11  18
ATOM     18  C5* UNL     1       3.804   2.045  20.552  0.00  0.00    +0.000 C 
BRANCH  18  19
ATOM     19  O5* UNL     1       5.047   2.328  19.911  0.00  0.00    +0.000 OA
ATOM     20  H5* UNL     1       5.476   1.462  19.776  0.00  0.00    +0.000 HD
ENDBRANCH  18  19
ENDBRANCH  11  18
ENDBRANCH   6   9
BRANCH   1  21
ATOM     21  C   UNL     1       6.285   3.650  15.165  0.00  0.00    +0.000 C 
BRANCH  21  25
ATOM     22  C   UNL     1       4.556   3.484  11.651  0.00  0.00    +0.000 C 
ATOM     23  C   UNL     1       5.635   3.581  12.697  0.00  0.00    +0.000 C 
ATOM     24  C   UNL     1       7.045   3.757  12.210  0.00  0.00    +0.000 C 
ATOM     25  C   UNL     1       5.323   3.525  14.008  0.00  0.00    +0.000 C 
ENDBRANCH  21  25
ENDBRANCH   1  21
TORSDOF 7
ENDMDL
MODEL 6
REMARK VINA RESULT:      -7.1      3.804      6.395
REMARK  Name = 
REMARK  9 active torsions:
REMARK  status: ('A' for Active; 'I' for Inactive)
REMARK    1  A    between atoms: C_1  and  C_2
REMARK    2  A    between atoms: C_2  and  C_3
REMARK    3  A    between atoms: C_4  and  C_5
REMARK    4  A    between atoms: C_5  and  N_6
REMARK    5  A    between atoms: N_11  and  C1*_12
REMARK    6  A    between atoms: C4*_14  and  C5*_15
REMARK    7  A    between atoms: C5*_15  and  O5*_16
REMARK    8  A    between atoms: C3*_17  and  O3*_18
REMARK    9  A    between atoms: C2*_19  and  O2*_20
REMARK                            x       y       z     vdW  Elec       q    Type
REMARK                         _______ _______ _______ _____ _____    ______ ____
ROOT
ATOM      1  N   UNL     1       1.425   8.934  19.124  0.00  0.00    +0.000 N 
ATOM      2  C   UNL     1       1.068   8.790  20.451  0.00  0.00    +0.000 A 
ATOM      3  O   UNL     1       0.485   9.633  21.125  0.00  0.00    +0.000 OA
ATOM      4  C   UNL     1       1.421   7.505  21.071  0.00  0.00    +0.000 A 
ATOM      5  C   UNL     1       2.132   6.618  20.384  0.00  0.00    +0.000 A 
ATOM      6  N   UNL     1       2.578   6.875  19.105  0.00  0.00    +0.000 N 
ATOM      7  C   UNL     1       2.252   8.056  18.442  0.00  0.00    +0.000 A 
ATOM      8  O   UNL     1       2.679   8.306  17.315  0.00  0.00    +0.000 OA
ENDROOT
BRANCH   6   9
ATOM      9  C1* UNL     1       3.379   5.865  18.412  0.00  0.00    +0.000 C 
ATOM     10  O4* UNL     1       2.530   5.052  17.579  0.00  0.00    +0.000 OA
ATOM     11  C4* UNL     1       2.950   3.670  17.693  0.00  0.00    +0.000 C 
ATOM     12  C3* UNL     1       4.268   3.671  18.467  0.00  0.00    +0.000 C 
ATOM     13  C2* UNL     1       4.189   4.929  19.319  0.00  0.00    +0.000 C 
BRANCH  12  14
ATOM     14  O3* UNL     1       5.397   3.817  17.575  0.00  0.00    +0.000 OA
ATOM     15  H3* UNL     1       5.090   4.214  16.740  0.00  0.00    +0.000 HD
ENDBRANCH  12  14
BRANCH  13  16
ATOM     16  O2* UNL     1       5.492   5.450  19.602  0.00  0.00    +0.000 OA
ATOM     17  H2* UNL     1       5.351   6.204  20.215  0.00  0.00    +0.000 HD
ENDBRANCH  13  16
BRANCH  11  18
ATOM     18  C5* UNL     1       1.855   2.832  18.363  0.00  0.00    +0.000 C 
BRANCH  18  19
ATOM     19  O5* UNL     1       2.321   1.499  18.569  0.00  0.00    +0.000 OA
ATOM     20  H5* UNL     1       3.213   1.591  18.954  0.00  0.00    +0.000 HD
ENDBRANCH  18  19
ENDBRANCH  11  18
ENDBRANCH   6   9
BRANCH   1  21
ATOM     21  C   UNL     1       0.968  10.125  18.423  0.00  0.00    +0.000 C 
BRANCH  21  25
ATOM     22  C   UNL     1      -2.815   9.992  17.406  0.00  0.00    +0.000 C 
ATOM     23  C   UNL     1      -1.547  10.419  18.096  0.00  0.00    +0.000 C 
ATOM     24  C   UNL     1      -1.665  11.499  19.134  0.00  0.00    +0.000 C 
ATOM     25  C   UNL     1      -0.371   9.834  17.789  0.00  0.00    +0.000 C 
ENDBRANCH  21  25
ENDBRANCH   1  21
TORSDOF 7
ENDMDL
MODEL 7
REMARK VINA RESULT:      -7.1      4.765      7.204
REMARK  Name = 
REMARK  9 active torsions:
REMARK  status: ('A' for Active; 'I' for Inactive)
REMARK    1  A    between atoms: C_1  and  C_2
REMARK    2  A    between atoms: C_2  and  C_3
REMARK    3  A    between atoms: C_4  and  C_5
REMARK    4  A    between atoms: C_5  and  N_6
REMARK    5  A    between atoms: N_11  and  C1*_12
REMARK    6  A    between atoms: C4*_14  and  C5*_15
REMARK    7  A    between atoms: C5*_15  and  O5*_16
REMARK    8  A    between atoms: C3*_17  and  O3*_18
REMARK    9  A    between atoms: C2*_19  and  O2*_20
REMARK                            x       y       z     vdW  Elec       q    Type
REMARK                         _______ _______ _______ _____ _____    ______ ____
ROOT
ATOM      1  N   UNL     1       2.391   7.056  19.357  0.00  0.00    +0.000 N 
ATOM      2  C   UNL     1       2.957   7.463  18.165  0.00  0.00    +0.000 A 
ATOM      3  O   UNL     1       3.861   6.882  17.572  0.00  0.00    +0.000 OA
ATOM      4  C   UNL     1       2.398   8.691  17.579  0.00  0.00    +0.000 A 
ATOM      5  C   UNL     1       1.483   9.381  18.253  0.00  0.00    +0.000 A 
ATOM      6  N   UNL     1       1.055   8.995  19.505  0.00  0.00    +0.000 N 
ATOM      7  C   UNL     1       1.515   7.825  20.105  0.00  0.00    +0.000 A 
ATOM      8  O   UNL     1       1.165   7.497  21.239  0.00  0.00    +0.000 OA
ENDROOT
BRANCH   6   9
ATOM      9  C1* UNL     1       0.064   9.814  20.204  0.00  0.00    +0.000 C 
ATOM     10  O4* UNL     1      -0.818  10.437  19.250  0.00  0.00    +0.000 OA
ATOM     11  C4* UNL     1      -1.064  11.803  19.665  0.00  0.00    +0.000 C 
ATOM     12  C3* UNL     1      -0.476  11.951  21.068  0.00  0.00    +0.000 C 
ATOM     13  C2* UNL     1       0.636  10.915  21.108  0.00  0.00    +0.000 C 
BRANCH  12  14
ATOM     14  O3* UNL     1      -1.444  11.594  22.081  0.00  0.00    +0.000 OA
ATOM     15  H3* UNL     1      -1.718  12.402  22.553  0.00  0.00    +0.000 HD
ENDBRANCH  12  14
BRANCH  13  16
ATOM     16  O2* UNL     1       0.867  10.448  22.442  0.00  0.00    +0.000 OA
ATOM     17  H2* UNL     1       1.842  10.448  22.560  0.00  0.00    +0.000 HD
ENDBRANCH  13  16
BRANCH  11  18
ATOM     18  C5* UNL     1      -0.468  12.785  18.650  0.00  0.00    +0.000 C 
BRANCH  18  19
ATOM     19  O5* UNL     1      -1.166  12.684  17.410  0.00  0.00    +0.000 OA
ATOM     20  H5* UNL     1      -0.934  11.806  17.049  0.00  0.00    +0.000 HD
ENDBRANCH  18  19
ENDBRANCH  11  18
ENDBRANCH   6   9
BRANCH   1  21
ATOM     21  C   UNL     1       2.805   5.770  19.900  0.00  0.00    +0.000 C 
BRANCH  21  25
ATOM     22  C   UNL     1       0.740   2.549  19.050  0.00  0.00    +0.000 C 
ATOM     23  C   UNL     1       1.501   3.575  19.845  0.00  0.00    +0.000 C 
ATOM     24  C   UNL     1       1.694   3.299  21.310  0.00  0.00    +0.000 C 
ATOM     25  C   UNL     1       1.991   4.680  19.245  0.00  0.00    +0.000 C 
ENDBRANCH  21  25
ENDBRANCH   1  21
TORSDOF 7
ENDMDL
MODEL 8
REMARK VINA RESULT:      -7.1      3.493      6.370
REMARK  Name = 
REMARK  9 active torsions:
REMARK  status: ('A' for Active; 'I' for Inactive)
REMARK    1  A    between atoms: C_1  and  C_2
REMARK    2  A    between atoms: C_2  and  C_3
REMARK    3  A    between atoms: C_4  and  C_5
REMARK    4  A    between atoms: C_5  and  N_6
REMARK    5  A    between atoms: N_11  and  C1*_12
REMARK    6  A    between atoms: C4*_14  and  C5*_15
REMARK    7  A    between atoms: C5*_15  and  O5*_16
REMARK    8  A    between atoms: C3*_17  and  O3*_18
REMARK    9  A    between atoms: C2*_19  and  O2*_20
REMARK                            x       y       z     vdW  Elec       q    Type
REMARK                         _______ _______ _______ _____ _____    ______ ____
ROOT
ATOM      1  N   UNL     1       1.711   8.543  19.244  0.00  0.00    +0.000 N 
ATOM      2  C   UNL     1       1.264   8.259  20.520  0.00  0.00    +0.000 A 
ATOM      3  O   UNL     1       0.702   9.052  21.269  0.00  0.00    +0.000 OA
ATOM      4  C   UNL     1       1.484   6.881  20.982  0.00  0.00    +0.000 A 
ATOM      5  C   UNL     1       2.171   6.036  20.220  0.00  0.00    +0.000 A 
ATOM      6  N   UNL     1       2.712   6.419  19.012  0.00  0.00    +0.000 N 
ATOM      7  C   UNL     1       2.513   7.698  18.496  0.00  0.00    +0.000 A 
ATOM      8  O   UNL     1       3.026   8.056  17.435  0.00  0.00    +0.000 OA
ENDROOT
BRANCH   6   9
ATOM      9  C1* UNL     1       3.479   5.446  18.233  0.00  0.00    +0.000 C 
ATOM     10  O4* UNL     1       2.943   4.125  18.433  0.00  0.00    +0.000 OA
ATOM     11  C4* UNL     1       4.041   3.189  18.562  0.00  0.00    +0.000 C 
ATOM     12  C3* UNL     1       5.315   3.951  18.199  0.00  0.00    +0.000 C 
ATOM     13  C2* UNL     1       4.983   5.397  18.537  0.00  0.00    +0.000 C 
BRANCH  12  14
ATOM     14  O3* UNL     1       5.580   3.883  16.780  0.00  0.00    +0.000 OA
ATOM     15  H3* UNL     1       6.428   3.424  16.639  0.00  0.00    +0.000 HD
ENDBRANCH  12  14
BRANCH  13  16
ATOM     16  O2* UNL     1       5.727   6.308  17.720  0.00  0.00    +0.000 OA
ATOM     17  H2* UNL     1       5.463   6.112  16.795  0.00  0.00    +0.000 HD
ENDBRANCH  13  16
BRANCH  11  18
ATOM     18  C5* UNL     1       4.072   2.593  19.974  0.00  0.00    +0.000 C 
BRANCH  18  19
ATOM     19  O5* UNL     1       5.177   1.699  20.099  0.00  0.00    +0.000 OA
ATOM     20  H5* UNL     1       5.073   1.051  19.377  0.00  0.00    +0.000 HD
ENDBRANCH  18  19
ENDBRANCH  11  18
ENDBRANCH   6   9
BRANCH   1  21
ATOM     21  C   UNL     1       1.385   9.847  18.685  0.00  0.00    +0.000 C 
BRANCH  21  25
ATOM     22  C   UNL     1      -2.287  10.094  17.336  0.00  0.00    +0.000 C 
ATOM     23  C   UNL     1      -1.071  10.338  18.190  0.00  0.00    +0.000 C 
ATOM     24  C   UNL     1      -1.236  11.259  19.365  0.00  0.00    +0.000 C 
ATOM     25  C   UNL     1       0.099   9.733  17.901  0.00  0.00    +0.000 C 
ENDBRANCH  21  25
ENDBRANCH   1  21
TORSDOF 7
ENDMDL
MODEL 9
REMARK VINA RESULT:      -7.0      1.513      1.788
REMARK  Name = 
REMARK  9 active torsions:
REMARK  status: ('A' for Active; 'I' for Inactive)
REMARK    1  A    between atoms: C_1  and  C_2
REMARK    2  A    between atoms: C_2  and  C_3
REMARK    3  A    between atoms: C_4  and  C_5
REMARK    4  A    between atoms: C_5  and  N_6
REMARK    5  A    between atoms: N_11  and  C1*_12
REMARK    6  A    between atoms: C4*_14  and  C5*_15
REMARK    7  A    between atoms: C5*_15  and  O5*_16
REMARK    8  A    between atoms: C3*_17  and  O3*_18
REMARK    9  A    between atoms: C2*_19  and  O2*_20
REMARK                            x       y       z     vdW  Elec       q    Type
REMARK                         _______ _______ _______ _____ _____    ______ ____
ROOT
ATOM      1  N   UNL     1       5.816   5.809  16.696  0.00  0.00    +0.000 N 
ATOM      2  C   UNL     1       7.100   6.193  17.030  0.00  0.00    +0.000 A 
ATOM      3  O   UNL     1       7.940   6.625  16.247  0.00  0.00    +0.000 OA
ATOM      4  C   UNL     1       7.452   6.073  18.453  0.00  0.00    +0.000 A 
ATOM      5  C   UNL     1       6.587   5.522  19.298  0.00  0.00    +0.000 A 
ATOM      6  N   UNL     1       5.370   5.031  18.878  0.00  0.00    +0.000 N 
ATOM      7  C   UNL     1       4.956   5.143  17.552  0.00  0.00    +0.000 A 
ATOM      8  O   UNL     1       3.885   4.672  17.165  0.00  0.00    +0.000 OA
ENDROOT
BRANCH   6   9
ATOM      9  C1* UNL     1       4.473   4.413  19.856  0.00  0.00    +0.000 C 
ATOM     10  O4* UNL     1       4.561   2.978  19.763  0.00  0.00    +0.000 OA
ATOM     11  C4* UNL     1       3.228   2.420  19.880  0.00  0.00    +0.000 C 
ATOM     12  C3* UNL     1       2.304   3.567  20.288  0.00  0.00    +0.000 C 
ATOM     13  C2* UNL     1       2.994   4.805  19.735  0.00  0.00    +0.000 C 
BRANCH  12  14
ATOM     14  O3* UNL     1       2.244   3.704  21.726  0.00  0.00    +0.000 OA
ATOM     15  H3* UNL     1       2.984   3.207  22.121  0.00  0.00    +0.000 HD
ENDBRANCH  12  14
BRANCH  13  16
ATOM     16  O2* UNL     1       2.681   5.967  20.512  0.00  0.00    +0.000 OA
ATOM     17  H2* UNL     1       3.119   5.833  21.380  0.00  0.00    +0.000 HD
ENDBRANCH  13  16
BRANCH  11  18
ATOM     18  C5* UNL     1       2.815   1.745  18.567  0.00  0.00    +0.000 C 
BRANCH  18  19
ATOM     19  O5* UNL     1       3.938   1.663  17.690  0.00  0.00    +0.000 OA
ATOM     20  H5* UNL     1       4.564   1.050  18.122  0.00  0.00    +0.000 HD
ENDBRANCH  18  19
ENDBRANCH  11  18
ENDBRANCH   6   9
BRANCH   1  21
ATOM     21  C   UNL     1       5.370   6.049  15.331  0.00  0.00    +0.000 C 
BRANCH  21  25
ATOM     22  C   UNL     1       6.243   3.073  12.933  0.00  0.00    +0.000 C 
ATOM     23  C   UNL     1       6.346   4.393  13.650  0.00  0.00    +0.000 C 
ATOM     24  C   UNL     1       7.501   5.281  13.283  0.00  0.00    +0.000 C 
ATOM     25  C   UNL     1       5.422   4.748  14.566  0.00  0.00    +0.000 C 
ENDBRANCH  21  25
ENDBRANCH   1  21
TORSDOF 7
ENDMDL
