MODEL 1
REMARK VINA RESULT:      -7.3      0.000      0.000
REMARK  Name = 
REMARK  2 active torsions:
REMARK  status: ('A' for Active; 'I' for Inactive)
REMARK    1  A    between atoms: N_20  and  C_21
REMARK    2  A    between atoms: N_24  and  C_25
REMARK                            x       y       z     vdW  Elec       q    Type
REMARK                         _______ _______ _______ _____ _____    ______ ____
ROOT
ATOM      1  O   UNL     1      -2.817  12.338  21.703  0.00  0.00    +0.000 OA
ATOM      2  C   UNL     1      -3.746  13.124  21.592  0.00  0.00    +0.000 A 
ATOM      3  C   UNL     1      -4.722  12.968  20.404  0.00  0.00    +0.000 A 
ATOM      4  N   UNL     1      -4.467  12.271  19.226  0.00  0.00    +0.000 N 
ATOM      5  C   UNL     1      -5.402  12.408  18.094  0.00  0.00    +0.000 C 
ATOM      6  C   UNL     1      -5.470  11.040  17.436  0.00  0.00    +0.000 C 
ATOM      7  C   UNL     1      -4.026  10.700  17.563  0.00  0.00    +0.000 A 
ATOM      8  C   UNL     1      -3.310   9.874  16.712  0.00  0.00    +0.000 A 
ATOM      9  C   UNL     1      -1.934   9.854  16.862  0.00  0.00    +0.000 A 
ATOM     10  C   UNL     1      -1.331  10.606  17.887  0.00  0.00    +0.000 A 
ATOM     11  C   UNL     1      -2.092  11.376  18.804  0.00  0.00    +0.000 A 
ATOM     12  C   UNL     1      -3.460  11.450  18.630  0.00  0.00    +0.000 A 
ATOM     13  N   UNL     1      -5.899  13.552  20.482  0.00  0.00    +0.000 NA
ATOM     14  C   UNL     1      -6.239  14.371  21.553  0.00  0.00    +0.000 A 
ATOM     15  C   UNL     1      -7.531  14.933  21.570  0.00  0.00    +0.000 A 
ATOM     16  C   UNL     1      -7.914  15.862  22.537  0.00  0.00    +0.000 A 
ATOM     17  C   UNL     1      -7.007  16.211  23.528  0.00  0.00    +0.000 A 
ATOM     18  C   UNL     1      -5.740  15.634  23.536  0.00  0.00    +0.000 A 
ATOM     19  C   UNL     1      -5.322  14.743  22.530  0.00  0.00    +0.000 A 
ATOM     20  N   UNL     1      -3.999  14.220  22.453  0.00  0.00    +0.000 N 
ENDROOT
BRANCH  20  21
ATOM     21  C   UNL     1      -2.911  15.043  23.022  0.00  0.00    +0.000 C 
ATOM     22  C   UNL     1      -2.284  15.957  21.981  0.00  0.00    +0.000 C 
ATOM     23  C   UNL     1      -1.165  15.294  21.212  0.00  0.00    +0.000 C 
ATOM     24  N   UNL     1      -0.139  14.662  22.066  0.00  0.00    +0.000 NA
ATOM     25  C   UNL     1      -0.735  13.732  23.047  0.00  0.00    +0.000 C 
ATOM     26  C   UNL     1      -1.879  14.313  23.857  0.00  0.00    +0.000 C 
BRANCH  24  27
ATOM     27  C   UNL     1       0.867  13.957  21.198  0.00  0.00    +0.000 C 
ATOM     28  C   UNL     1       0.379  13.993  19.729  0.00  0.00    +0.000 C 
ATOM     29  C   UNL     1       1.226  13.273  18.688  0.00  0.00    +0.000 C 
ATOM     30  C   UNL     1       2.579  13.865  18.307  0.00  0.00    +0.000 C 
ATOM     31  C   UNL     1       2.663  15.392  18.296  0.00  0.00    +0.000 C 
ATOM     32  C   UNL     1       3.320  15.998  19.539  0.00  0.00    +0.000 C 
ATOM     33  C   UNL     1       2.512  15.926  20.835  0.00  0.00    +0.000 C 
ATOM     34  C   UNL     1       2.307  14.503  21.356  0.00  0.00    +0.000 C 
ENDBRANCH  24  27
ENDBRANCH  20  21
TORSDOF 2
ENDMDL
MODEL 2
REMARK VINA RESULT:      -7.2      2.514      7.704
REMARK  Name = 
REMARK  2 active torsions:
REMARK  status: ('A' for Active; 'I' for Inactive)
REMARK    1  A    between atoms: N_20  and  C_21
REMARK    2  A    between atoms: N_24  and  C_25
REMARK                            x       y       z     vdW  Elec       q    Type
REMARK                         _______ _______ _______ _____ _____    ______ ____
ROOT
ATOM      1  O   UNL     1       0.545  12.319  21.557  0.00  0.00    +0.000 OA
ATOM      2  C   UNL     1       1.119  13.383  21.384  0.00  0.00    +0.000 A 
ATOM      3  C   UNL     1       0.735  14.594  22.263  0.00  0.00    +0.000 A 
ATOM      4  N   UNL     1      -0.449  14.734  22.985  0.00  0.00    +0.000 N 
ATOM      5  C   UNL     1      -0.773  16.042  23.586  0.00  0.00    +0.000 C 
ATOM      6  C   UNL     1      -1.446  15.739  24.914  0.00  0.00    +0.000 C 
ATOM      7  C   UNL     1      -2.249  14.572  24.454  0.00  0.00    +0.000 A 
ATOM      8  C   UNL     1      -3.464  14.168  24.982  0.00  0.00    +0.000 A 
ATOM      9  C   UNL     1      -4.164  13.199  24.283  0.00  0.00    +0.000 A 
ATOM     10  C   UNL     1      -3.604  12.631  23.124  0.00  0.00    +0.000 A 
ATOM     11  C   UNL     1      -2.318  12.998  22.651  0.00  0.00    +0.000 A 
ATOM     12  C   UNL     1      -1.634  14.003  23.306  0.00  0.00    +0.000 A 
ATOM     13  N   UNL     1       1.576  15.603  22.340  0.00  0.00    +0.000 NA
ATOM     14  C   UNL     1       2.742  15.642  21.584  0.00  0.00    +0.000 A 
ATOM     15  C   UNL     1       3.601  16.746  21.749  0.00  0.00    +0.000 A 
ATOM     16  C   UNL     1       4.725  16.929  20.944  0.00  0.00    +0.000 A 
ATOM     17  C   UNL     1       5.021  15.975  19.980  0.00  0.00    +0.000 A 
ATOM     18  C   UNL     1       4.194  14.864  19.833  0.00  0.00    +0.000 A 
ATOM     19  C   UNL     1       3.024  14.702  20.598  0.00  0.00    +0.000 A 
ATOM     20  N   UNL     1       2.105  13.631  20.398  0.00  0.00    +0.000 N 
ENDROOT
BRANCH  20  21
ATOM     21  C   UNL     1       2.026  13.051  19.040  0.00  0.00    +0.000 C 
ATOM     22  C   UNL     1       0.917  13.683  18.214  0.00  0.00    +0.000 C 
ATOM     23  C   UNL     1      -0.421  13.008  18.408  0.00  0.00    +0.000 C 
ATOM     24  N   UNL     1      -0.385  11.541  18.236  0.00  0.00    +0.000 NA
ATOM     25  C   UNL     1       0.656  10.912  19.074  0.00  0.00    +0.000 C 
ATOM     26  C   UNL     1       2.033  11.539  18.952  0.00  0.00    +0.000 C 
BRANCH  24  27
ATOM     27  C   UNL     1      -1.742  10.969  18.544  0.00  0.00    +0.000 C 
ATOM     28  C   UNL     1      -2.724  12.131  18.834  0.00  0.00    +0.000 C 
ATOM     29  C   UNL     1      -4.147  11.765  19.235  0.00  0.00    +0.000 C 
ATOM     30  C   UNL     1      -5.077  11.174  18.180  0.00  0.00    +0.000 C 
ATOM     31  C   UNL     1      -4.900  11.706  16.757  0.00  0.00    +0.000 C 
ATOM     32  C   UNL     1      -4.099  10.785  15.833  0.00  0.00    +0.000 C 
ATOM     33  C   UNL     1      -2.600  10.679  16.116  0.00  0.00    +0.000 C 
ATOM     34  C   UNL     1      -2.268  10.009  17.450  0.00  0.00    +0.000 C 
ENDBRANCH  24  27
ENDBRANCH  20  21
TORSDOF 2
ENDMDL
MODEL 3
REMARK VINA RESULT:      -7.1      6.246     10.811
REMARK  Name = 
REMARK  2 active torsions:
REMARK  status: ('A' for Active; 'I' for Inactive)
REMARK    1  A    between atoms: N_20  and  C_21
REMARK    2  A    between atoms: N_24  and  C_25
REMARK                            x       y       z     vdW  Elec       q    Type
REMARK                         _______ _______ _______ _____ _____    ______ ____
ROOT
ATOM      1  O   UNL     1       6.281  16.603  21.380  0.00  0.00    +0.000 OA
ATOM      2  C   UNL     1       5.511  15.707  21.067  0.00  0.00    +0.000 A 
ATOM      3  C   UNL     1       5.169  14.614  22.104  0.00  0.00    +0.000 A 
ATOM      4  N   UNL     1       5.916  14.307  23.239  0.00  0.00    +0.000 N 
ATOM      5  C   UNL     1       5.590  13.088  24.004  0.00  0.00    +0.000 C 
ATOM      6  C   UNL     1       5.805  13.439  25.466  0.00  0.00    +0.000 C 
ATOM      7  C   UNL     1       7.034  14.260  25.283  0.00  0.00    +0.000 A 
ATOM      8  C   UNL     1       8.043  14.427  26.217  0.00  0.00    +0.000 A 
ATOM      9  C   UNL     1       9.205  15.044  25.785  0.00  0.00    +0.000 A 
ATOM     10  C   UNL     1       9.295  15.521  24.464  0.00  0.00    +0.000 A 
ATOM     11  C   UNL     1       8.214  15.418  23.551  0.00  0.00    +0.000 A 
ATOM     12  C   UNL     1       7.071  14.754  23.950  0.00  0.00    +0.000 A 
ATOM     13  N   UNL     1       4.091  13.885  21.912  0.00  0.00    +0.000 NA
ATOM     14  C   UNL     1       3.318  14.012  20.763  0.00  0.00    +0.000 A 
ATOM     15  C   UNL     1       2.164  13.212  20.651  0.00  0.00    +0.000 A 
ATOM     16  C   UNL     1       1.401  13.183  19.484  0.00  0.00    +0.000 A 
ATOM     17  C   UNL     1       1.772  13.994  18.421  0.00  0.00    +0.000 A 
ATOM     18  C   UNL     1       2.893  14.813  18.537  0.00  0.00    +0.000 A 
ATOM     19  C   UNL     1       3.705  14.803  19.686  0.00  0.00    +0.000 A 
ATOM     20  N   UNL     1       4.915  15.549  19.792  0.00  0.00    +0.000 N 
ENDROOT
BRANCH  20  21
ATOM     21  C   UNL     1       5.644  15.838  18.539  0.00  0.00    +0.000 C 
ATOM     22  C   UNL     1       6.203  14.578  17.900  0.00  0.00    +0.000 C 
ATOM     23  C   UNL     1       7.572  14.209  18.425  0.00  0.00    +0.000 C 
ATOM     24  N   UNL     1       8.550  15.316  18.386  0.00  0.00    +0.000 NA
ATOM     25  C   UNL     1       8.034  16.530  19.049  0.00  0.00    +0.000 C 
ATOM     26  C   UNL     1       6.654  16.966  18.592  0.00  0.00    +0.000 C 
BRANCH  24  27
ATOM     27  C   UNL     1       9.839  14.865  19.015  0.00  0.00    +0.000 C 
ATOM     28  C   UNL     1       9.548  13.674  19.961  0.00  0.00    +0.000 C 
ATOM     29  C   UNL     1      10.717  13.104  20.754  0.00  0.00    +0.000 C 
ATOM     30  C   UNL     1      11.793  12.317  20.011  0.00  0.00    +0.000 C 
ATOM     31  C   UNL     1      11.311  11.473  18.832  0.00  0.00    +0.000 C 
ATOM     32  C   UNL     1      11.548  12.109  17.460  0.00  0.00    +0.000 C 
ATOM     33  C   UNL     1      10.677  13.317  17.114  0.00  0.00    +0.000 C 
ATOM     34  C   UNL     1      10.948  14.544  17.984  0.00  0.00    +0.000 C 
ENDBRANCH  24  27
ENDBRANCH  20  21
TORSDOF 2
ENDMDL
MODEL 4
REMARK VINA RESULT:      -6.9      1.857      6.769
REMARK  Name = 
REMARK  2 active torsions:
REMARK  status: ('A' for Active; 'I' for Inactive)
REMARK    1  A    between atoms: N_20  and  C_21
REMARK    2  A    between atoms: N_24  and  C_25
REMARK                            x       y       z     vdW  Elec       q    Type
REMARK                         _______ _______ _______ _____ _____    ______ ____
ROOT
ATOM      1  O   UNL     1      -1.234  14.726  19.785  0.00  0.00    +0.000 OA
ATOM      2  C   UNL     1      -0.208  14.499  20.409  0.00  0.00    +0.000 A 
ATOM      3  C   UNL     1       0.578  13.202  20.114  0.00  0.00    +0.000 A 
ATOM      4  N   UNL     1       0.071  12.067  19.486  0.00  0.00    +0.000 N 
ATOM      5  C   UNL     1       0.871  10.828  19.486  0.00  0.00    +0.000 C 
ATOM      6  C   UNL     1       0.633  10.173  18.136  0.00  0.00    +0.000 C 
ATOM      7  C   UNL     1      -0.821  10.477  18.035  0.00  0.00    +0.000 A 
ATOM      8  C   UNL     1      -1.760   9.723  17.350  0.00  0.00    +0.000 A 
ATOM      9  C   UNL     1      -3.092  10.041  17.553  0.00  0.00    +0.000 A 
ATOM     10  C   UNL     1      -3.435  11.128  18.379  0.00  0.00    +0.000 A 
ATOM     11  C   UNL     1      -2.452  11.941  18.999  0.00  0.00    +0.000 A 
ATOM     12  C   UNL     1      -1.122  11.601  18.851  0.00  0.00    +0.000 A 
ATOM     13  N   UNL     1       1.835  13.132  20.496  0.00  0.00    +0.000 NA
ATOM     14  C   UNL     1       2.433  14.150  21.230  0.00  0.00    +0.000 A 
ATOM     15  C   UNL     1       3.792  14.007  21.573  0.00  0.00    +0.000 A 
ATOM     16  C   UNL     1       4.437  14.916  22.412  0.00  0.00    +0.000 A 
ATOM     17  C   UNL     1       3.726  16.008  22.889  0.00  0.00    +0.000 A 
ATOM     18  C   UNL     1       2.392  16.173  22.528  0.00  0.00    +0.000 A 
ATOM     19  C   UNL     1       1.715  15.230  21.733  0.00  0.00    +0.000 A 
ATOM     20  N   UNL     1       0.324  15.317  21.435  0.00  0.00    +0.000 N 
ENDROOT
BRANCH  20  21
ATOM     21  C   UNL     1      -0.537  16.011  22.417  0.00  0.00    +0.000 C 
ATOM     22  C   UNL     1      -1.223  15.037  23.362  0.00  0.00    +0.000 C 
ATOM     23  C   UNL     1      -2.533  14.514  22.820  0.00  0.00    +0.000 C 
ATOM     24  N   UNL     1      -3.460  15.569  22.363  0.00  0.00    +0.000 NA
ATOM     25  C   UNL     1      -2.817  16.491  21.405  0.00  0.00    +0.000 C 
ATOM     26  C   UNL     1      -1.484  17.055  21.863  0.00  0.00    +0.000 C 
BRANCH  24  27
ATOM     27  C   UNL     1      -4.683  14.933  21.761  0.00  0.00    +0.000 C 
ATOM     28  C   UNL     1      -4.555  13.394  21.870  0.00  0.00    +0.000 C 
ATOM     29  C   UNL     1      -5.666  12.551  21.257  0.00  0.00    +0.000 C 
ATOM     30  C   UNL     1      -7.034  12.537  21.933  0.00  0.00    +0.000 C 
ATOM     31  C   UNL     1      -7.027  12.625  23.459  0.00  0.00    +0.000 C 
ATOM     32  C   UNL     1      -7.334  14.018  24.014  0.00  0.00    +0.000 C 
ATOM     33  C   UNL     1      -6.248  15.078  23.822  0.00  0.00    +0.000 C 
ATOM     34  C   UNL     1      -6.009  15.460  22.361  0.00  0.00    +0.000 C 
ENDBRANCH  24  27
ENDBRANCH  20  21
TORSDOF 2
ENDMDL
MODEL 5
REMARK VINA RESULT:      -6.9      5.413      7.661
REMARK  Name = 
REMARK  2 active torsions:
REMARK  status: ('A' for Active; 'I' for Inactive)
REMARK    1  A    between atoms: N_20  and  C_21
REMARK    2  A    between atoms: N_24  and  C_25
REMARK                            x       y       z     vdW  Elec       q    Type
REMARK                         _______ _______ _______ _____ _____    ______ ____
ROOT
ATOM      1  O   UNL     1       2.988   7.890  18.465  0.00  0.00    +0.000 OA
ATOM      2  C   UNL     1       2.103   8.088  19.284  0.00  0.00    +0.000 A 
ATOM      3  C   UNL     1       1.680   6.936  20.224  0.00  0.00    +0.000 A 
ATOM      4  N   UNL     1       1.919   5.581  20.010  0.00  0.00    +0.000 N 
ATOM      5  C   UNL     1       1.252   4.589  20.874  0.00  0.00    +0.000 C 
ATOM      6  C   UNL     1       2.258   3.470  21.084  0.00  0.00    +0.000 C 
ATOM      7  C   UNL     1       2.807   3.449  19.700  0.00  0.00    +0.000 A 
ATOM      8  C   UNL     1       3.346   2.345  19.060  0.00  0.00    +0.000 A 
ATOM      9  C   UNL     1       3.599   2.465  17.704  0.00  0.00    +0.000 A 
ATOM     10  C   UNL     1       3.364   3.691  17.054  0.00  0.00    +0.000 A 
ATOM     11  C   UNL     1       2.896   4.835  17.750  0.00  0.00    +0.000 A 
ATOM     12  C   UNL     1       2.584   4.713  19.089  0.00  0.00    +0.000 A 
ATOM     13  N   UNL     1       1.018   7.235  21.320  0.00  0.00    +0.000 NA
ATOM     14  C   UNL     1       0.616   8.537  21.600  0.00  0.00    +0.000 A 
ATOM     15  C   UNL     1      -0.063   8.774  22.811  0.00  0.00    +0.000 A 
ATOM     16  C   UNL     1      -0.611  10.020  23.114  0.00  0.00    +0.000 A 
ATOM     17  C   UNL     1      -0.447  11.061  22.212  0.00  0.00    +0.000 A 
ATOM     18  C   UNL     1       0.252  10.843  21.027  0.00  0.00    +0.000 A 
ATOM     19  C   UNL     1       0.755   9.574  20.684  0.00  0.00    +0.000 A 
ATOM     20  N   UNL     1       1.380   9.296  19.433  0.00  0.00    +0.000 N 
ENDROOT
BRANCH  20  21
ATOM     21  C   UNL     1       0.975  10.121  18.275  0.00  0.00    +0.000 C 
ATOM     22  C   UNL     1       2.150  10.874  17.673  0.00  0.00    +0.000 C 
ATOM     23  C   UNL     1       2.396  12.210  18.336  0.00  0.00    +0.000 C 
ATOM     24  N   UNL     1       1.196  13.065  18.431  0.00  0.00    +0.000 NA
ATOM     25  C   UNL     1       0.063  12.357  19.061  0.00  0.00    +0.000 C 
ATOM     26  C   UNL     1      -0.246  10.996  18.465  0.00  0.00    +0.000 C 
BRANCH  24  27
ATOM     27  C   UNL     1       1.535  14.320  19.188  0.00  0.00    +0.000 C 
ATOM     28  C   UNL     1       2.500  15.178  18.333  0.00  0.00    +0.000 C 
ATOM     29  C   UNL     1       3.022  16.470  18.947  0.00  0.00    +0.000 C 
ATOM     30  C   UNL     1       2.059  17.640  19.126  0.00  0.00    +0.000 C 
ATOM     31  C   UNL     1       0.991  17.799  18.043  0.00  0.00    +0.000 C 
ATOM     32  C   UNL     1      -0.389  17.263  18.433  0.00  0.00    +0.000 C 
ATOM     33  C   UNL     1      -0.526  15.743  18.522  0.00  0.00    +0.000 C 
ATOM     34  C   UNL     1       0.291  15.115  19.652  0.00  0.00    +0.000 C 
ENDBRANCH  24  27
ENDBRANCH  20  21
TORSDOF 2
ENDMDL
MODEL 6
REMARK VINA RESULT:      -6.8      7.251     10.122
REMARK  Name = 
REMARK  2 active torsions:
REMARK  status: ('A' for Active; 'I' for Inactive)
REMARK    1  A    between atoms: N_20  and  C_21
REMARK    2  A    between atoms: N_24  and  C_25
REMARK                            x       y       z     vdW  Elec       q    Type
REMARK                         _______ _______ _______ _____ _____    ______ ____
ROOT
ATOM      1  O   UNL     1       5.750  13.381  22.325  0.00  0.00    +0.000 OA
ATOM      2  C   UNL     1       5.677  14.211  23.218  0.00  0.00    +0.000 A 
ATOM      3  C   UNL     1       4.734  15.422  23.042  0.00  0.00    +0.000 A 
ATOM      4  N   UNL     1       4.229  15.892  21.832  0.00  0.00    +0.000 N 
ATOM      5  C   UNL     1       3.534  17.193  21.800  0.00  0.00    +0.000 C 
ATOM      6  C   UNL     1       2.402  17.041  20.799  0.00  0.00    +0.000 C 
ATOM      7  C   UNL     1       3.147  16.229  19.796  0.00  0.00    +0.000 A 
ATOM      8  C   UNL     1       2.906  16.208  18.432  0.00  0.00    +0.000 A 
ATOM      9  C   UNL     1       3.841  15.565  17.638  0.00  0.00    +0.000 A 
ATOM     10  C   UNL     1       4.942  14.921  18.233  0.00  0.00    +0.000 A 
ATOM     11  C   UNL     1       5.119  14.881  19.640  0.00  0.00    +0.000 A 
ATOM     12  C   UNL     1       4.227  15.566  20.440  0.00  0.00    +0.000 A 
ATOM     13  N   UNL     1       4.375  16.097  24.113  0.00  0.00    +0.000 NA
ATOM     14  C   UNL     1       4.894  15.804  25.369  0.00  0.00    +0.000 A 
ATOM     15  C   UNL     1       4.434  16.557  26.467  0.00  0.00    +0.000 A 
ATOM     16  C   UNL     1       4.990  16.416  27.739  0.00  0.00    +0.000 A 
ATOM     17  C   UNL     1       5.997  15.481  27.930  0.00  0.00    +0.000 A 
ATOM     18  C   UNL     1       6.435  14.710  26.856  0.00  0.00    +0.000 A 
ATOM     19  C   UNL     1       5.924  14.888  25.557  0.00  0.00    +0.000 A 
ATOM     20  N   UNL     1       6.425  14.188  24.420  0.00  0.00    +0.000 N 
ENDROOT
BRANCH  20  21
ATOM     21  C   UNL     1       7.838  13.753  24.461  0.00  0.00    +0.000 C 
ATOM     22  C   UNL     1       8.720  14.595  23.554  0.00  0.00    +0.000 C 
ATOM     23  C   UNL     1       8.768  14.078  22.135  0.00  0.00    +0.000 C 
ATOM     24  N   UNL     1       9.094  12.641  22.027  0.00  0.00    +0.000 NA
ATOM     25  C   UNL     1       8.208  11.810  22.867  0.00  0.00    +0.000 C 
ATOM     26  C   UNL     1       8.090  12.267  24.310  0.00  0.00    +0.000 C 
BRANCH  24  27
ATOM     27  C   UNL     1       9.021  12.219  20.585  0.00  0.00    +0.000 C 
ATOM     28  C   UNL     1       8.958  13.483  19.693  0.00  0.00    +0.000 C 
ATOM     29  C   UNL     1       8.813  13.276  18.191  0.00  0.00    +0.000 C 
ATOM     30  C   UNL     1      10.000  12.721  17.409  0.00  0.00    +0.000 C 
ATOM     31  C   UNL     1      11.383  13.155  17.893  0.00  0.00    +0.000 C 
ATOM     32  C   UNL     1      12.111  12.114  18.747  0.00  0.00    +0.000 C 
ATOM     33  C   UNL     1      11.553  11.881  20.152  0.00  0.00    +0.000 C 
ATOM     34  C   UNL     1      10.158  11.256  20.167  0.00  0.00    +0.000 C 
ENDBRANCH  24  27
ENDBRANCH  20  21
TORSDOF 2
ENDMDL
MODEL 7
REMARK VINA RESULT:      -6.8      1.806      6.935
REMARK  Name = 
REMARK  2 active torsions:
REMARK  status: ('A' for Active; 'I' for Inactive)
REMARK    1  A    between atoms: N_20  and  C_21
REMARK    2  A    between atoms: N_24  and  C_25
REMARK                            x       y       z     vdW  Elec       q    Type
REMARK                         _______ _______ _______ _____ _____    ______ ____
ROOT
ATOM      1  O   UNL     1      -1.125  12.542  22.430  0.00  0.00    +0.000 OA
ATOM      2  C   UNL     1      -0.525  13.592  22.257  0.00  0.00    +0.000 A 
ATOM      3  C   UNL     1      -1.191  14.917  22.694  0.00  0.00    +0.000 A 
ATOM      4  N   UNL     1      -2.551  15.107  22.922  0.00  0.00    +0.000 N 
ATOM      5  C   UNL     1      -3.063  16.479  23.104  0.00  0.00    +0.000 C 
ATOM      6  C   UNL     1      -4.159  16.383  24.152  0.00  0.00    +0.000 C 
ATOM      7  C   UNL     1      -4.753  15.100  23.686  0.00  0.00    +0.000 A 
ATOM      8  C   UNL     1      -6.076  14.719  23.834  0.00  0.00    +0.000 A 
ATOM      9  C   UNL     1      -6.488  13.592  23.143  0.00  0.00    +0.000 A 
ATOM     10  C   UNL     1      -5.559  12.858  22.383  0.00  0.00    +0.000 A 
ATOM     11  C   UNL     1      -4.188  13.217  22.318  0.00  0.00    +0.000 A 
ATOM     12  C   UNL     1      -3.776  14.370  22.955  0.00  0.00    +0.000 A 
ATOM     13  N   UNL     1      -0.428  15.977  22.853  0.00  0.00    +0.000 NA
ATOM     14  C   UNL     1       0.928  15.953  22.551  0.00  0.00    +0.000 A 
ATOM     15  C   UNL     1       1.677  17.125  22.779  0.00  0.00    +0.000 A 
ATOM     16  C   UNL     1       3.012  17.231  22.389  0.00  0.00    +0.000 A 
ATOM     17  C   UNL     1       3.625  16.136  21.794  0.00  0.00    +0.000 A 
ATOM     18  C   UNL     1       2.900  14.964  21.596  0.00  0.00    +0.000 A 
ATOM     19  C   UNL     1       1.537  14.868  21.929  0.00  0.00    +0.000 A 
ATOM     20  N   UNL     1       0.744  13.719  21.641  0.00  0.00    +0.000 N 
ENDROOT
BRANCH  20  21
ATOM     21  C   UNL     1       1.144  12.893  20.482  0.00  0.00    +0.000 C 
ATOM     22  C   UNL     1       0.481  13.357  19.195  0.00  0.00    +0.000 C 
ATOM     23  C   UNL     1      -0.876  12.731  18.971  0.00  0.00    +0.000 C 
ATOM     24  N   UNL     1      -0.885  11.258  19.085  0.00  0.00    +0.000 NA
ATOM     25  C   UNL     1      -0.289  10.799  20.356  0.00  0.00    +0.000 C 
ATOM     26  C   UNL     1       1.073  11.391  20.668  0.00  0.00    +0.000 C 
BRANCH  24  27
ATOM     27  C   UNL     1      -2.296  10.755  18.939  0.00  0.00    +0.000 C 
ATOM     28  C   UNL     1      -3.265  11.962  18.965  0.00  0.00    +0.000 C 
ATOM     29  C   UNL     1      -4.758  11.666  18.896  0.00  0.00    +0.000 C 
ATOM     30  C   UNL     1      -5.345  11.157  17.583  0.00  0.00    +0.000 C 
ATOM     31  C   UNL     1      -4.715  11.716  16.307  0.00  0.00    +0.000 C 
ATOM     32  C   UNL     1      -3.711  10.778  15.633  0.00  0.00    +0.000 C 
ATOM     33  C   UNL     1      -2.378  10.580  16.355  0.00  0.00    +0.000 C 
ATOM     34  C   UNL     1      -2.503   9.856  17.696  0.00  0.00    +0.000 C 
ENDBRANCH  24  27
ENDBRANCH  20  21
TORSDOF 2
ENDMDL
MODEL 8
REMARK VINA RESULT:      -6.8      2.337      7.284
REMARK  Name = 
REMARK  2 active torsions:
REMARK  status: ('A' for Active; 'I' for Inactive)
REMARK    1  A    between atoms: N_20  and  C_21
REMARK    2  A    between atoms: N_24  and  C_25
REMARK                            x       y       z     vdW  Elec       q    Type
REMARK                         _______ _______ _______ _____ _____    ______ ____
ROOT
ATOM      1  O   UNL     1       0.512  15.077  22.079  0.00  0.00    +0.000 OA
ATOM      2  C   UNL     1       0.305  13.910  21.783  0.00  0.00    +0.000 A 
ATOM      3  C   UNL     1       0.939  13.337  20.496  0.00  0.00    +0.000 A 
ATOM      4  N   UNL     1       1.419  14.085  19.423  0.00  0.00    +0.000 N 
ATOM      5  C   UNL     1       1.779  13.394  18.170  0.00  0.00    +0.000 C 
ATOM      6  C   UNL     1       2.997  14.119  17.625  0.00  0.00    +0.000 C 
ATOM      7  C   UNL     1       2.561  15.501  17.967  0.00  0.00    +0.000 A 
ATOM      8  C   UNL     1       2.917  16.655  17.288  0.00  0.00    +0.000 A 
ATOM      9  C   UNL     1       2.238  17.815  17.618  0.00  0.00    +0.000 A 
ATOM     10  C   UNL     1       1.278  17.797  18.646  0.00  0.00    +0.000 A 
ATOM     11  C   UNL     1       0.993  16.622  19.389  0.00  0.00    +0.000 A 
ATOM     12  C   UNL     1       1.621  15.445  19.032  0.00  0.00    +0.000 A 
ATOM     13  N   UNL     1       1.029  12.031  20.370  0.00  0.00    +0.000 NA
ATOM     14  C   UNL     1       0.489  11.167  21.316  0.00  0.00    +0.000 A 
ATOM     15  C   UNL     1       0.657   9.782  21.118  0.00  0.00    +0.000 A 
ATOM     16  C   UNL     1       0.042   8.843  21.947  0.00  0.00    +0.000 A 
ATOM     17  C   UNL     1      -0.723   9.290  23.015  0.00  0.00    +0.000 A 
ATOM     18  C   UNL     1      -0.865  10.658  23.236  0.00  0.00    +0.000 A 
ATOM     19  C   UNL     1      -0.301  11.613  22.370  0.00  0.00    +0.000 A 
ATOM     20  N   UNL     1      -0.518  13.015  22.510  0.00  0.00    +0.000 N 
ENDROOT
BRANCH  20  21
ATOM     21  C   UNL     1      -1.782  13.445  23.145  0.00  0.00    +0.000 C 
ATOM     22  C   UNL     1      -2.816  12.331  23.170  0.00  0.00    +0.000 C 
ATOM     23  C   UNL     1      -3.652  12.275  21.913  0.00  0.00    +0.000 C 
ATOM     24  N   UNL     1      -4.258  13.568  21.535  0.00  0.00    +0.000 NA
ATOM     25  C   UNL     1      -3.252  14.647  21.459  0.00  0.00    +0.000 C 
ATOM     26  C   UNL     1      -2.356  14.766  22.678  0.00  0.00    +0.000 C 
BRANCH  24  27
ATOM     27  C   UNL     1      -4.985  13.416  20.227  0.00  0.00    +0.000 C 
ATOM     28  C   UNL     1      -4.355  12.244  19.435  0.00  0.00    +0.000 C 
ATOM     29  C   UNL     1      -4.905  11.960  18.043  0.00  0.00    +0.000 C 
ATOM     30  C   UNL     1      -6.304  11.364  17.915  0.00  0.00    +0.000 C 
ATOM     31  C   UNL     1      -6.714  10.378  19.009  0.00  0.00    +0.000 C 
ATOM     32  C   UNL     1      -7.621  10.973  20.089  0.00  0.00    +0.000 C 
ATOM     33  C   UNL     1      -6.966  11.965  21.052  0.00  0.00    +0.000 C 
ATOM     34  C   UNL     1      -6.517  13.266  20.388  0.00  0.00    +0.000 C 
ENDBRANCH  24  27
ENDBRANCH  20  21
TORSDOF 2
ENDMDL
MODEL 9
REMARK VINA RESULT:      -6.7      4.951      8.224
REMARK  Name = 
REMARK  2 active torsions:
REMARK  status: ('A' for Active; 'I' for Inactive)
REMARK    1  A    between atoms: N_20  and  C_21
REMARK    2  A    between atoms: N_24  and  C_25
REMARK                            x       y       z     vdW  Elec       q    Type
REMARK                         _______ _______ _______ _____ _____    ______ ____
ROOT
ATOM      1  O   UNL     1       2.628   8.668  18.369  0.00  0.00    +0.000 OA
ATOM      2  C   UNL     1       1.780   8.773  19.242  0.00  0.00    +0.000 A 
ATOM      3  C   UNL     1       1.588   7.613  20.245  0.00  0.00    +0.000 A 
ATOM      4  N   UNL     1       2.003   6.297  20.056  0.00  0.00    +0.000 N 
ATOM      5  C   UNL     1       1.542   5.257  20.995  0.00  0.00    +0.000 C 
ATOM      6  C   UNL     1       2.709   4.299  21.168  0.00  0.00    +0.000 C 
ATOM      7  C   UNL     1       3.162   4.299  19.750  0.00  0.00    +0.000 A 
ATOM      8  C   UNL     1       3.809   3.256  19.107  0.00  0.00    +0.000 A 
ATOM      9  C   UNL     1       3.952   3.355  17.733  0.00  0.00    +0.000 A 
ATOM     10  C   UNL     1       3.503   4.509  17.064  0.00  0.00    +0.000 A 
ATOM     11  C   UNL     1       2.924   5.604  17.756  0.00  0.00    +0.000 A 
ATOM     12  C   UNL     1       2.722   5.494  19.118  0.00  0.00    +0.000 A 
ATOM     13  N   UNL     1       0.964   7.861  21.376  0.00  0.00    +0.000 NA
ATOM     14  C   UNL     1       0.401   9.104  21.643  0.00  0.00    +0.000 A 
ATOM     15  C   UNL     1      -0.223   9.292  22.892  0.00  0.00    +0.000 A 
ATOM     16  C   UNL     1      -0.921  10.462  23.195  0.00  0.00    +0.000 A 
ATOM     17  C   UNL     1      -0.966  11.478  22.251  0.00  0.00    +0.000 A 
ATOM     18  C   UNL     1      -0.324  11.311  21.027  0.00  0.00    +0.000 A 
ATOM     19  C   UNL     1       0.330  10.112  20.688  0.00  0.00    +0.000 A 
ATOM     20  N   UNL     1       0.904   9.874  19.405  0.00  0.00    +0.000 N 
ENDROOT
BRANCH  20  21
ATOM     21  C   UNL     1       0.311  10.586  18.254  0.00  0.00    +0.000 C 
ATOM     22  C   UNL     1      -0.167  11.980  18.630  0.00  0.00    +0.000 C 
ATOM     23  C   UNL     1      -1.580  11.995  19.165  0.00  0.00    +0.000 C 
ATOM     24  N   UNL     1      -2.558  11.302  18.302  0.00  0.00    +0.000 NA
ATOM     25  C   UNL     1      -2.127   9.928  17.972  0.00  0.00    +0.000 C 
ATOM     26  C   UNL     1      -0.710   9.818  17.439  0.00  0.00    +0.000 C 
BRANCH  24  27
ATOM     27  C   UNL     1      -3.903  11.297  18.975  0.00  0.00    +0.000 C 
ATOM     28  C   UNL     1      -4.078  12.621  19.758  0.00  0.00    +0.000 C 
ATOM     29  C   UNL     1      -5.355  12.793  20.571  0.00  0.00    +0.000 C 
ATOM     30  C   UNL     1      -6.674  12.996  19.831  0.00  0.00    +0.000 C 
ATOM     31  C   UNL     1      -6.596  13.799  18.532  0.00  0.00    +0.000 C 
ATOM     32  C   UNL     1      -6.601  12.946  17.261  0.00  0.00    +0.000 C 
ATOM     33  C   UNL     1      -5.334  12.135  16.984  0.00  0.00    +0.000 C 
ATOM     34  C   UNL     1      -5.077  11.025  18.003  0.00  0.00    +0.000 C 
ENDBRANCH  24  27
ENDBRANCH  20  21
TORSDOF 2
ENDMDL
