MODEL 1
REMARK VINA RESULT:      -8.8      0.000      0.000
REMARK  Name = 
REMARK  3 active torsions:
REMARK  status: ('A' for Active; 'I' for Inactive)
REMARK    1  A    between atoms: C_1  and  C_2
REMARK    2  A    between atoms: N_10  and  C_11
REMARK    3  A    between atoms: C_16  and  C_18
REMARK                            x       y       z     vdW  Elec       q    Type
REMARK                         _______ _______ _______ _____ _____    ______ ____
ROOT
ATOM      1  C   UNL     1      -3.325  13.837  22.297  0.00  0.00    +0.000 C 
ATOM      2  C   UNL     1      -2.500  12.619  21.996  0.00  0.00    +0.000 A 
ATOM      3  C   UNL     1      -1.619  12.057  22.936  0.00  0.00    +0.000 A 
ATOM      4  C   UNL     1      -0.637  11.128  22.545  0.00  0.00    +0.000 A 
ATOM      5  C   UNL     1      -0.467  10.901  21.194  0.00  0.00    +0.000 A 
ATOM      6  C   UNL     1      -1.329  11.491  20.285  0.00  0.00    +0.000 A 
ATOM      7  C   UNL     1      -2.441  12.209  20.676  0.00  0.00    +0.000 A 
ATOM      8  C   UNL     1      -0.815  11.382  18.884  0.00  0.00    +0.000 C 
ATOM      9  C   UNL     1      -0.846  12.749  18.204  0.00  0.00    +0.000 C 
ATOM     10  N   UNL     1       0.248  13.678  18.414  0.00  0.00    +0.000 NA
ATOM     11  C   UNL     1      -0.004  14.728  19.388  0.00  0.00    +0.000 C 
ATOM     12  C   UNL     1       1.580  13.121  18.430  0.00  0.00    +0.000 C 
ATOM     13  C   UNL     1       1.788  11.678  18.905  0.00  0.00    +0.000 C 
ATOM     14  C   UNL     1       0.568  10.755  19.103  0.00  0.00    +0.000 C 
ATOM     15  N   UNL     1       0.508  10.150  20.489  0.00  0.00    +0.000 N 
ATOM     16  C   UNL     1       1.075   9.014  21.074  0.00  0.00    +0.000 C 
ATOM     17  O   UNL     1       1.092   8.839  22.268  0.00  0.00    +0.000 OA
ENDROOT
BRANCH  16  18
ATOM     18  C   UNL     1       1.682   7.918  20.227  0.00  0.00    +0.000 A 
ATOM     19  C   UNL     1       1.583   6.614  20.737  0.00  0.00    +0.000 A 
ATOM     20  C   UNL     1       1.975   5.514  19.978  0.00  0.00    +0.000 A 
ATOM     21  C   UNL     1       2.672   5.712  18.783  0.00  0.00    +0.000 A 
ATOM     22  C   UNL     1       3.165   4.642  18.036  0.00  0.00    +0.000 A 
ATOM     23  C   UNL     1       4.283   4.836  17.236  0.00  0.00    +0.000 A 
ATOM     24  C   UNL     1       4.593   6.122  16.835  0.00  0.00    +0.000 A 
ATOM     25  C   UNL     1       3.797   7.193  17.259  0.00  0.00    +0.000 A 
ATOM     26  C   UNL     1       2.897   7.015  18.320  0.00  0.00    +0.000 A 
ATOM     27  C   UNL     1       2.227   8.079  18.948  0.00  0.00    +0.000 A 
ENDBRANCH  16  18
TORSDOF 1
ENDMDL
MODEL 2
REMARK VINA RESULT:      -8.6      0.613      1.595
REMARK  Name = 
REMARK  3 active torsions:
REMARK  status: ('A' for Active; 'I' for Inactive)
REMARK    1  A    between atoms: C_1  and  C_2
REMARK    2  A    between atoms: N_10  and  C_11
REMARK    3  A    between atoms: C_16  and  C_18
REMARK                            x       y       z     vdW  Elec       q    Type
REMARK                         _______ _______ _______ _____ _____    ______ ____
ROOT
ATOM      1  C   UNL     1      -2.965  13.909  22.397  0.00  0.00    +0.000 C 
ATOM      2  C   UNL     1      -2.216  12.651  22.065  0.00  0.00    +0.000 A 
ATOM      3  C   UNL     1      -1.301  12.064  22.955  0.00  0.00    +0.000 A 
ATOM      4  C   UNL     1      -0.389  11.086  22.518  0.00  0.00    +0.000 A 
ATOM      5  C   UNL     1      -0.317  10.832  21.163  0.00  0.00    +0.000 A 
ATOM      6  C   UNL     1      -1.210  11.447  20.302  0.00  0.00    +0.000 A 
ATOM      7  C   UNL     1      -2.262  12.221  20.751  0.00  0.00    +0.000 A 
ATOM      8  C   UNL     1      -0.794  11.295  18.872  0.00  0.00    +0.000 C 
ATOM      9  C   UNL     1      -0.810  12.652  18.172  0.00  0.00    +0.000 C 
ATOM     10  N   UNL     1       0.335  13.534  18.295  0.00  0.00    +0.000 NA
ATOM     11  C   UNL     1       0.194  14.608  19.266  0.00  0.00    +0.000 C 
ATOM     12  C   UNL     1       1.640  12.918  18.234  0.00  0.00    +0.000 C 
ATOM     13  C   UNL     1       1.815  11.474  18.720  0.00  0.00    +0.000 C 
ATOM     14  C   UNL     1       0.571  10.610  19.012  0.00  0.00    +0.000 C 
ATOM     15  N   UNL     1       0.576  10.028  20.410  0.00  0.00    +0.000 N 
ATOM     16  C   UNL     1       1.129   8.877  20.975  0.00  0.00    +0.000 C 
ATOM     17  O   UNL     1       1.216   8.718  22.169  0.00  0.00    +0.000 OA
ENDROOT
BRANCH  16  18
ATOM     18  C   UNL     1       1.630   7.742  20.110  0.00  0.00    +0.000 A 
ATOM     19  C   UNL     1       2.257   8.110  18.908  0.00  0.00    +0.000 A 
ATOM     20  C   UNL     1       2.884   7.160  18.105  0.00  0.00    +0.000 A 
ATOM     21  C   UNL     1       2.710   5.801  18.379  0.00  0.00    +0.000 A 
ATOM     22  C   UNL     1       3.242   4.813  17.550  0.00  0.00    +0.000 A 
ATOM     23  C   UNL     1       2.615   3.575  17.487  0.00  0.00    +0.000 A 
ATOM     24  C   UNL     1       1.803   3.192  18.538  0.00  0.00    +0.000 A 
ATOM     25  C   UNL     1       1.613   4.059  19.622  0.00  0.00    +0.000 A 
ATOM     26  C   UNL     1       1.974   5.409  19.505  0.00  0.00    +0.000 A 
ATOM     27  C   UNL     1       1.619   6.386  20.452  0.00  0.00    +0.000 A 
ENDBRANCH  16  18
TORSDOF 1
ENDMDL
MODEL 3
REMARK VINA RESULT:      -7.9      2.680      8.318
REMARK  Name = 
REMARK  3 active torsions:
REMARK  status: ('A' for Active; 'I' for Inactive)
REMARK    1  A    between atoms: C_1  and  C_2
REMARK    2  A    between atoms: N_10  and  C_11
REMARK    3  A    between atoms: C_16  and  C_18
REMARK                            x       y       z     vdW  Elec       q    Type
REMARK                         _______ _______ _______ _____ _____    ______ ____
ROOT
ATOM      1  C   UNL     1       6.015   3.258  16.240  0.00  0.00    +0.000 C 
ATOM      2  C   UNL     1       5.124   4.442  16.485  0.00  0.00    +0.000 A 
ATOM      3  C   UNL     1       5.633   5.719  16.776  0.00  0.00    +0.000 A 
ATOM      4  C   UNL     1       4.807   6.726  17.305  0.00  0.00    +0.000 A 
ATOM      5  C   UNL     1       3.522   6.378  17.673  0.00  0.00    +0.000 A 
ATOM      6  C   UNL     1       3.053   5.103  17.404  0.00  0.00    +0.000 A 
ATOM      7  C   UNL     1       3.777   4.186  16.667  0.00  0.00    +0.000 A 
ATOM      8  C   UNL     1       1.777   4.818  18.132  0.00  0.00    +0.000 C 
ATOM      9  C   UNL     1       1.880   3.485  18.872  0.00  0.00    +0.000 C 
ATOM     10  N   UNL     1       2.507   3.439  20.180  0.00  0.00    +0.000 NA
ATOM     11  C   UNL     1       3.883   2.969  20.195  0.00  0.00    +0.000 C 
ATOM     12  C   UNL     1       2.211   4.528  21.081  0.00  0.00    +0.000 C 
ATOM     13  C   UNL     1       1.890   5.913  20.509  0.00  0.00    +0.000 C 
ATOM     14  C   UNL     1       1.621   6.073  18.999  0.00  0.00    +0.000 C 
ATOM     15  N   UNL     1       2.514   7.110  18.351  0.00  0.00    +0.000 N 
ATOM     16  C   UNL     1       2.433   8.497  18.199  0.00  0.00    +0.000 C 
ATOM     17  O   UNL     1       3.376   9.167  17.853  0.00  0.00    +0.000 OA
ENDROOT
BRANCH  16  18
ATOM     18  C   UNL     1       1.136   9.236  18.440  0.00  0.00    +0.000 A 
ATOM     19  C   UNL     1       0.952   9.761  19.729  0.00  0.00    +0.000 A 
ATOM     20  C   UNL     1      -0.134  10.583  20.022  0.00  0.00    +0.000 A 
ATOM     21  C   UNL     1      -1.168  10.718  19.091  0.00  0.00    +0.000 A 
ATOM     22  C   UNL     1      -2.318  11.455  19.376  0.00  0.00    +0.000 A 
ATOM     23  C   UNL     1      -3.508  11.120  18.743  0.00  0.00    +0.000 A 
ATOM     24  C   UNL     1      -3.449  10.419  17.554  0.00  0.00    +0.000 A 
ATOM     25  C   UNL     1      -2.206  10.043  17.030  0.00  0.00    +0.000 A 
ATOM     26  C   UNL     1      -1.063  10.092  17.842  0.00  0.00    +0.000 A 
ATOM     27  C   UNL     1       0.171   9.531  17.471  0.00  0.00    +0.000 A 
ENDBRANCH  16  18
TORSDOF 1
ENDMDL
MODEL 4
REMARK VINA RESULT:      -7.8      1.018      1.736
REMARK  Name = 
REMARK  3 active torsions:
REMARK  status: ('A' for Active; 'I' for Inactive)
REMARK    1  A    between atoms: C_1  and  C_2
REMARK    2  A    between atoms: N_10  and  C_11
REMARK    3  A    between atoms: C_16  and  C_18
REMARK                            x       y       z     vdW  Elec       q    Type
REMARK                         _______ _______ _______ _____ _____    ______ ____
ROOT
ATOM      1  C   UNL     1      -3.805  14.698  22.082  0.00  0.00    +0.000 C 
ATOM      2  C   UNL     1      -3.006  13.461  21.786  0.00  0.00    +0.000 A 
ATOM      3  C   UNL     1      -2.436  12.674  22.800  0.00  0.00    +0.000 A 
ATOM      4  C   UNL     1      -1.444  11.720  22.508  0.00  0.00    +0.000 A 
ATOM      5  C   UNL     1      -0.941  11.688  21.223  0.00  0.00    +0.000 A 
ATOM      6  C   UNL     1      -1.499  12.496  20.247  0.00  0.00    +0.000 A 
ATOM      7  C   UNL     1      -2.629  13.257  20.470  0.00  0.00    +0.000 A 
ATOM      8  C   UNL     1      -0.645  12.552  19.019  0.00  0.00    +0.000 C 
ATOM      9  C   UNL     1      -0.415  14.004  18.604  0.00  0.00    +0.000 C 
ATOM     10  N   UNL     1       0.641  14.771  19.237  0.00  0.00    +0.000 NA
ATOM     11  C   UNL     1       0.207  15.678  20.288  0.00  0.00    +0.000 C 
ATOM     12  C   UNL     1       1.886  14.084  19.484  0.00  0.00    +0.000 C 
ATOM     13  C   UNL     1       1.875  12.571  19.735  0.00  0.00    +0.000 C 
ATOM     14  C   UNL     1       0.592  11.760  19.459  0.00  0.00    +0.000 C 
ATOM     15  N   UNL     1       0.137  10.958  20.660  0.00  0.00    +0.000 N 
ATOM     16  C   UNL     1       0.462   9.693  21.157  0.00  0.00    +0.000 C 
ATOM     17  O   UNL     1       0.156   9.335  22.268  0.00  0.00    +0.000 OA
ENDROOT
BRANCH  16  18
ATOM     18  C   UNL     1       1.201   8.684  20.308  0.00  0.00    +0.000 A 
ATOM     19  C   UNL     1       1.472   9.068  18.984  0.00  0.00    +0.000 A 
ATOM     20  C   UNL     1       2.271   8.282  18.157  0.00  0.00    +0.000 A 
ATOM     21  C   UNL     1       2.635   6.997  18.568  0.00  0.00    +0.000 A 
ATOM     22  C   UNL     1       3.357   6.139  17.736  0.00  0.00    +0.000 A 
ATOM     23  C   UNL     1       3.210   4.767  17.892  0.00  0.00    +0.000 A 
ATOM     24  C   UNL     1       2.752   4.285  19.103  0.00  0.00    +0.000 A 
ATOM     25  C   UNL     1       2.427   5.181  20.130  0.00  0.00    +0.000 A 
ATOM     26  C   UNL     1       2.262   6.543  19.839  0.00  0.00    +0.000 A 
ATOM     27  C   UNL     1       1.726   7.466  20.754  0.00  0.00    +0.000 A 
ENDBRANCH  16  18
TORSDOF 1
ENDMDL
MODEL 5
REMARK VINA RESULT:      -7.8      2.389      8.175
REMARK  Name = 
REMARK  3 active torsions:
REMARK  status: ('A' for Active; 'I' for Inactive)
REMARK    1  A    between atoms: C_1  and  C_2
REMARK    2  A    between atoms: N_10  and  C_11
REMARK    3  A    between atoms: C_16  and  C_18
REMARK                            x       y       z     vdW  Elec       q    Type
REMARK                         _______ _______ _______ _____ _____    ______ ____
ROOT
ATOM      1  C   UNL     1       2.034   8.592  17.824  0.00  0.00    +0.000 C 
ATOM      2  C   UNL     1       1.458   9.417  18.939  0.00  0.00    +0.000 A 
ATOM      3  C   UNL     1       1.060   8.853  20.163  0.00  0.00    +0.000 A 
ATOM      4  C   UNL     1       0.246   9.568  21.060  0.00  0.00    +0.000 A 
ATOM      5  C   UNL     1      -0.274  10.774  20.637  0.00  0.00    +0.000 A 
ATOM      6  C   UNL     1       0.110  11.295  19.412  0.00  0.00    +0.000 A 
ATOM      7  C   UNL     1       1.093  10.716  18.635  0.00  0.00    +0.000 A 
ATOM      8  C   UNL     1      -0.770  12.431  18.994  0.00  0.00    +0.000 C 
ATOM      9  C   UNL     1      -1.262  12.217  17.564  0.00  0.00    +0.000 C 
ATOM     10  N   UNL     1      -2.421  11.378  17.323  0.00  0.00    +0.000 NA
ATOM     11  C   UNL     1      -2.129  10.024  16.880  0.00  0.00    +0.000 C 
ATOM     12  C   UNL     1      -3.520  11.506  18.252  0.00  0.00    +0.000 C 
ATOM     13  C   UNL     1      -3.236  11.906  19.704  0.00  0.00    +0.000 C 
ATOM     14  C   UNL     1      -1.837  12.426  20.095  0.00  0.00    +0.000 C 
ATOM     15  N   UNL     1      -1.219  11.646  21.236  0.00  0.00    +0.000 N 
ATOM     16  C   UNL     1      -1.304  11.737  22.627  0.00  0.00    +0.000 C 
ATOM     17  O   UNL     1      -0.914  10.861  23.360  0.00  0.00    +0.000 OA
ENDROOT
BRANCH  16  18
ATOM     18  C   UNL     1      -1.874  12.967  23.298  0.00  0.00    +0.000 A 
ATOM     19  C   UNL     1      -3.204  12.871  23.740  0.00  0.00    +0.000 A 
ATOM     20  C   UNL     1      -3.784  13.887  24.497  0.00  0.00    +0.000 A 
ATOM     21  C   UNL     1      -3.117  15.106  24.643  0.00  0.00    +0.000 A 
ATOM     22  C   UNL     1      -3.697  16.183  25.314  0.00  0.00    +0.000 A 
ATOM     23  C   UNL     1      -3.324  17.475  24.967  0.00  0.00    +0.000 A 
ATOM     24  C   UNL     1      -2.108  17.664  24.338  0.00  0.00    +0.000 A 
ATOM     25  C   UNL     1      -1.297  16.561  24.045  0.00  0.00    +0.000 A 
ATOM     26  C   UNL     1      -1.838  15.267  24.095  0.00  0.00    +0.000 A 
ATOM     27  C   UNL     1      -1.166  14.133  23.607  0.00  0.00    +0.000 A 
ENDBRANCH  16  18
TORSDOF 1
ENDMDL
MODEL 6
REMARK VINA RESULT:      -7.7      1.047      1.200
REMARK  Name = 
REMARK  3 active torsions:
REMARK  status: ('A' for Active; 'I' for Inactive)
REMARK    1  A    between atoms: C_1  and  C_2
REMARK    2  A    between atoms: N_10  and  C_11
REMARK    3  A    between atoms: C_16  and  C_18
REMARK                            x       y       z     vdW  Elec       q    Type
REMARK                         _______ _______ _______ _____ _____    ______ ____
ROOT
ATOM      1  C   UNL     1      -3.910  14.764  22.148  0.00  0.00    +0.000 C 
ATOM      2  C   UNL     1      -3.123  13.508  21.904  0.00  0.00    +0.000 A 
ATOM      3  C   UNL     1      -2.617  12.723  22.953  0.00  0.00    +0.000 A 
ATOM      4  C   UNL     1      -1.633  11.746  22.718  0.00  0.00    +0.000 A 
ATOM      5  C   UNL     1      -1.072  11.687  21.458  0.00  0.00    +0.000 A 
ATOM      6  C   UNL     1      -1.567  12.494  20.448  0.00  0.00    +0.000 A 
ATOM      7  C   UNL     1      -2.691  13.280  20.610  0.00  0.00    +0.000 A 
ATOM      8  C   UNL     1      -0.656  12.517  19.261  0.00  0.00    +0.000 C 
ATOM      9  C   UNL     1      -0.378  13.958  18.839  0.00  0.00    +0.000 C 
ATOM     10  N   UNL     1       0.663  14.713  19.511  0.00  0.00    +0.000 NA
ATOM     11  C   UNL     1       0.199  15.642  20.530  0.00  0.00    +0.000 C 
ATOM     12  C   UNL     1       1.881  14.004  19.824  0.00  0.00    +0.000 C 
ATOM     13  C   UNL     1       1.828  12.496  20.092  0.00  0.00    +0.000 C 
ATOM     14  C   UNL     1       0.543  11.707  19.767  0.00  0.00    +0.000 C 
ATOM     15  N   UNL     1       0.016  10.929  20.955  0.00  0.00    +0.000 N 
ATOM     16  C   UNL     1       0.292   9.664  21.482  0.00  0.00    +0.000 C 
ATOM     17  O   UNL     1      -0.072   9.327  22.582  0.00  0.00    +0.000 OA
ENDROOT
BRANCH  16  18
ATOM     18  C   UNL     1       1.049   8.630  20.679  0.00  0.00    +0.000 A 
ATOM     19  C   UNL     1       1.224   7.378  21.291  0.00  0.00    +0.000 A 
ATOM     20  C   UNL     1       1.776   6.308  20.590  0.00  0.00    +0.000 A 
ATOM     21  C   UNL     1       2.360   6.528  19.340  0.00  0.00    +0.000 A 
ATOM     22  C   UNL     1       3.007   5.507  18.643  0.00  0.00    +0.000 A 
ATOM     23  C   UNL     1       4.025   5.834  17.757  0.00  0.00    +0.000 A 
ATOM     24  C   UNL     1       4.067   7.115  17.243  0.00  0.00    +0.000 A 
ATOM     25  C   UNL     1       3.106   8.055  17.639  0.00  0.00    +0.000 A 
ATOM     26  C   UNL     1       2.312   7.806  18.768  0.00  0.00    +0.000 A 
ATOM     27  C   UNL     1       1.487   8.779  19.359  0.00  0.00    +0.000 A 
ENDBRANCH  16  18
TORSDOF 1
ENDMDL
MODEL 7
REMARK VINA RESULT:      -7.7      2.435      8.408
REMARK  Name = 
REMARK  3 active torsions:
REMARK  status: ('A' for Active; 'I' for Inactive)
REMARK    1  A    between atoms: C_1  and  C_2
REMARK    2  A    between atoms: N_10  and  C_11
REMARK    3  A    between atoms: C_16  and  C_18
REMARK                            x       y       z     vdW  Elec       q    Type
REMARK                         _______ _______ _______ _____ _____    ______ ____
ROOT
ATOM      1  C   UNL     1       5.954   3.265  15.985  0.00  0.00    +0.000 C 
ATOM      2  C   UNL     1       5.092   4.452  16.306  0.00  0.00    +0.000 A 
ATOM      3  C   UNL     1       5.632   5.712  16.613  0.00  0.00    +0.000 A 
ATOM      4  C   UNL     1       4.844   6.713  17.210  0.00  0.00    +0.000 A 
ATOM      5  C   UNL     1       3.572   6.371  17.623  0.00  0.00    +0.000 A 
ATOM      6  C   UNL     1       3.073   5.112  17.335  0.00  0.00    +0.000 A 
ATOM      7  C   UNL     1       3.750   4.209  16.540  0.00  0.00    +0.000 A 
ATOM      8  C   UNL     1       1.827   4.820  18.111  0.00  0.00    +0.000 C 
ATOM      9  C   UNL     1       1.942   3.464  18.803  0.00  0.00    +0.000 C 
ATOM     10  N   UNL     1       2.625   3.368  20.080  0.00  0.00    +0.000 NA
ATOM     11  C   UNL     1       3.993   2.879  20.020  0.00  0.00    +0.000 C 
ATOM     12  C   UNL     1       2.385   4.431  21.027  0.00  0.00    +0.000 C 
ATOM     13  C   UNL     1       2.059   5.838  20.513  0.00  0.00    +0.000 C 
ATOM     14  C   UNL     1       1.727   6.049  19.022  0.00  0.00    +0.000 C 
ATOM     15  N   UNL     1       2.605   7.094  18.367  0.00  0.00    +0.000 N 
ATOM     16  C   UNL     1       2.539   8.486  18.263  0.00  0.00    +0.000 C 
ATOM     17  O   UNL     1       3.475   9.154  17.896  0.00  0.00    +0.000 OA
ENDROOT
BRANCH  16  18
ATOM     18  C   UNL     1       1.265   9.235  18.583  0.00  0.00    +0.000 A 
ATOM     19  C   UNL     1       0.371   9.422  17.516  0.00  0.00    +0.000 A 
ATOM     20  C   UNL     1      -0.894   9.968  17.725  0.00  0.00    +0.000 A 
ATOM     21  C   UNL     1      -1.205  10.533  18.965  0.00  0.00    +0.000 A 
ATOM     22  C   UNL     1      -2.424  11.172  19.193  0.00  0.00    +0.000 A 
ATOM     23  C   UNL     1      -2.491  12.177  20.149  0.00  0.00    +0.000 A 
ATOM     24  C   UNL     1      -1.531  12.207  21.143  0.00  0.00    +0.000 A 
ATOM     25  C   UNL     1      -0.509  11.249  21.152  0.00  0.00    +0.000 A 
ATOM     26  C   UNL     1      -0.273  10.472  20.009  0.00  0.00    +0.000 A 
ATOM     27  C   UNL     1       0.859   9.653  19.855  0.00  0.00    +0.000 A 
ENDBRANCH  16  18
TORSDOF 1
ENDMDL
MODEL 8
REMARK VINA RESULT:      -7.6      2.020      3.647
REMARK  Name = 
REMARK  3 active torsions:
REMARK  status: ('A' for Active; 'I' for Inactive)
REMARK    1  A    between atoms: C_1  and  C_2
REMARK    2  A    between atoms: N_10  and  C_11
REMARK    3  A    between atoms: C_16  and  C_18
REMARK                            x       y       z     vdW  Elec       q    Type
REMARK                         _______ _______ _______ _____ _____    ______ ____
ROOT
ATOM      1  C   UNL     1       1.956  15.316  19.322  0.00  0.00    +0.000 C 
ATOM      2  C   UNL     1       2.154  13.830  19.236  0.00  0.00    +0.000 A 
ATOM      3  C   UNL     1       2.668  13.205  18.088  0.00  0.00    +0.000 A 
ATOM      4  C   UNL     1       2.554  11.815  17.905  0.00  0.00    +0.000 A 
ATOM      5  C   UNL     1       1.790  11.107  18.811  0.00  0.00    +0.000 A 
ATOM      6  C   UNL     1       1.268  11.752  19.919  0.00  0.00    +0.000 A 
ATOM      7  C   UNL     1       1.577  13.061  20.231  0.00  0.00    +0.000 A 
ATOM      8  C   UNL     1       0.235  10.917  20.610  0.00  0.00    +0.000 C 
ATOM      9  C   UNL     1      -1.032  11.735  20.846  0.00  0.00    +0.000 C 
ATOM     10  N   UNL     1      -2.010  11.863  19.782  0.00  0.00    +0.000 NA
ATOM     11  C   UNL     1      -1.959  13.110  19.035  0.00  0.00    +0.000 C 
ATOM     12  C   UNL     1      -2.277  10.679  18.998  0.00  0.00    +0.000 C 
ATOM     13  C   UNL     1      -1.170   9.636  18.808  0.00  0.00    +0.000 C 
ATOM     14  C   UNL     1       0.113   9.718  19.661  0.00  0.00    +0.000 C 
ATOM     15  N   UNL     1       1.373   9.752  18.823  0.00  0.00    +0.000 N 
ATOM     16  C   UNL     1       2.183   8.765  18.254  0.00  0.00    +0.000 C 
ATOM     17  O   UNL     1       3.017   9.013  17.418  0.00  0.00    +0.000 OA
ENDROOT
BRANCH  16  18
ATOM     18  C   UNL     1       2.072   7.319  18.683  0.00  0.00    +0.000 A 
ATOM     19  C   UNL     1       2.053   7.082  20.067  0.00  0.00    +0.000 A 
ATOM     20  C   UNL     1       1.809   5.808  20.574  0.00  0.00    +0.000 A 
ATOM     21  C   UNL     1       1.793   4.711  19.709  0.00  0.00    +0.000 A 
ATOM     22  C   UNL     1       1.643   3.407  20.181  0.00  0.00    +0.000 A 
ATOM     23  C   UNL     1       2.187   2.358  19.451  0.00  0.00    +0.000 A 
ATOM     24  C   UNL     1       2.436   2.550  18.106  0.00  0.00    +0.000 A 
ATOM     25  C   UNL     1       2.162   3.791  17.518  0.00  0.00    +0.000 A 
ATOM     26  C   UNL     1       1.941   4.913  18.331  0.00  0.00    +0.000 A 
ATOM     27  C   UNL     1       1.879   6.226  17.831  0.00  0.00    +0.000 A 
ENDBRANCH  16  18
TORSDOF 1
ENDMDL
MODEL 9
REMARK VINA RESULT:      -7.5      2.137      3.509
REMARK  Name = 
REMARK  3 active torsions:
REMARK  status: ('A' for Active; 'I' for Inactive)
REMARK    1  A    between atoms: C_1  and  C_2
REMARK    2  A    between atoms: N_10  and  C_11
REMARK    3  A    between atoms: C_16  and  C_18
REMARK                            x       y       z     vdW  Elec       q    Type
REMARK                         _______ _______ _______ _____ _____    ______ ____
ROOT
ATOM      1  C   UNL     1      -1.540  18.020  19.240  0.00  0.00    +0.000 C 
ATOM      2  C   UNL     1      -1.284  16.544  19.349  0.00  0.00    +0.000 A 
ATOM      3  C   UNL     1      -1.881  15.750  20.343  0.00  0.00    +0.000 A 
ATOM      4  C   UNL     1      -1.400  14.459  20.626  0.00  0.00    +0.000 A 
ATOM      5  C   UNL     1      -0.233  14.058  20.008  0.00  0.00    +0.000 A 
ATOM      6  C   UNL     1       0.354  14.872  19.055  0.00  0.00    +0.000 A 
ATOM      7  C   UNL     1      -0.244  16.029  18.597  0.00  0.00    +0.000 A 
ATOM      8  C   UNL     1       1.744  14.425  18.725  0.00  0.00    +0.000 C 
ATOM      9  C   UNL     1       2.710  15.606  18.805  0.00  0.00    +0.000 C 
ATOM     10  N   UNL     1       3.260  15.994  20.090  0.00  0.00    +0.000 NA
ATOM     11  C   UNL     1       2.619  17.136  20.723  0.00  0.00    +0.000 C 
ATOM     12  C   UNL     1       3.648  14.926  20.981  0.00  0.00    +0.000 C 
ATOM     13  C   UNL     1       2.911  13.583  20.914  0.00  0.00    +0.000 C 
ATOM     14  C   UNL     1       1.960  13.292  19.735  0.00  0.00    +0.000 C 
ATOM     15  N   UNL     1       0.569  12.901  20.187  0.00  0.00    +0.000 N 
ATOM     16  C   UNL     1      -0.022  11.691  20.562  0.00  0.00    +0.000 C 
ATOM     17  O   UNL     1      -1.091  11.637  21.119  0.00  0.00    +0.000 OA
ENDROOT
BRANCH  16  18
ATOM     18  C   UNL     1       0.646  10.368  20.262  0.00  0.00    +0.000 A 
ATOM     19  C   UNL     1       0.803   9.493  21.349  0.00  0.00    +0.000 A 
ATOM     20  C   UNL     1       1.271   8.193  21.163  0.00  0.00    +0.000 A 
ATOM     21  C   UNL     1       1.792   7.818  19.922  0.00  0.00    +0.000 A 
ATOM     22  C   UNL     1       2.356   6.559  19.714  0.00  0.00    +0.000 A 
ATOM     23  C   UNL     1       3.335   6.410  18.742  0.00  0.00    +0.000 A 
ATOM     24  C   UNL     1       3.400   7.340  17.722  0.00  0.00    +0.000 A 
ATOM     25  C   UNL     1       2.503   8.415  17.703  0.00  0.00    +0.000 A 
ATOM     26  C   UNL     1       1.764   8.726  18.855  0.00  0.00    +0.000 A 
ATOM     27  C   UNL     1       1.015   9.907  18.994  0.00  0.00    +0.000 A 
ENDBRANCH  16  18
TORSDOF 1
ENDMDL
