MODEL 1
REMARK VINA RESULT:      -6.2      0.000      0.000
REMARK  Name = 
REMARK  0 active torsions:
REMARK  status: ('A' for Active; 'I' for Inactive)
REMARK                            x       y       z     vdW  Elec       q    Type
REMARK                         _______ _______ _______ _____ _____    ______ ____
ROOT
ATOM      1  O   UNL     1       4.629   6.915  16.384  0.00  0.00    +0.000 OA
ATOM      2  C   UNL     1       3.954   6.581  17.345  0.00  0.00    +0.000 C 
ATOM      3  C   UNL     1       3.236   7.654  18.043  0.00  0.00    +0.000 C 
ATOM      4  C   UNL     1       2.470   7.415  19.100  0.00  0.00    +0.000 C 
ATOM      5  C   UNL     1       2.290   6.061  19.637  0.00  0.00    +0.000 C 
ATOM      6  O   UNL     1       1.559   5.954  20.611  0.00  0.00    +0.000 OA
ATOM      7  C   UNL     1       2.996   4.921  18.977  0.00  0.00    +0.000 A 
ATOM      8  C   UNL     1       2.867   3.593  19.448  0.00  0.00    +0.000 A 
ATOM      9  I   UNL     1       1.722   2.940  21.104  0.00  0.00    +0.000 I 
ATOM     10  C   UNL     1       3.539   2.547  18.806  0.00  0.00    +0.000 A 
ATOM     11  C   UNL     1       4.339   2.797  17.701  0.00  0.00    +0.000 A 
ATOM     12  C   UNL     1       4.485   4.100  17.212  0.00  0.00    +0.000 A 
ATOM     13  I   UNL     1       5.757   4.206  15.524  0.00  0.00    +0.000 I 
ATOM     14  C   UNL     1       3.818   5.178  17.842  0.00  0.00    +0.000 A 
ENDROOT
TORSDOF 0
ENDMDL
MODEL 2
REMARK VINA RESULT:      -6.2      0.043      3.763
REMARK  Name = 
REMARK  0 active torsions:
REMARK  status: ('A' for Active; 'I' for Inactive)
REMARK                            x       y       z     vdW  Elec       q    Type
REMARK                         _______ _______ _______ _____ _____    ______ ____
ROOT
ATOM      1  O   UNL     1       1.579   5.967  20.655  0.00  0.00    +0.000 OA
ATOM      2  C   UNL     1       2.290   6.076  19.668  0.00  0.00    +0.000 C 
ATOM      3  C   UNL     1       2.456   7.431  19.130  0.00  0.00    +0.000 C 
ATOM      4  C   UNL     1       3.206   7.676  18.062  0.00  0.00    +0.000 C 
ATOM      5  C   UNL     1       3.918   6.606  17.353  0.00  0.00    +0.000 C 
ATOM      6  O   UNL     1       4.584   6.944  16.385  0.00  0.00    +0.000 OA
ATOM      7  C   UNL     1       3.789   5.200  17.846  0.00  0.00    +0.000 A 
ATOM      8  C   UNL     1       4.447   4.124  17.204  0.00  0.00    +0.000 A 
ATOM      9  I   UNL     1       5.689   4.235  15.494  0.00  0.00    +0.000 I 
ATOM     10  C   UNL     1       4.309   2.820  17.691  0.00  0.00    +0.000 A 
ATOM     11  C   UNL     1       3.526   2.565  18.808  0.00  0.00    +0.000 A 
ATOM     12  C   UNL     1       2.864   3.609  19.462  0.00  0.00    +0.000 A 
ATOM     13  I   UNL     1       1.740   2.951  21.130  0.00  0.00    +0.000 I 
ATOM     14  C   UNL     1       2.985   4.939  18.992  0.00  0.00    +0.000 A 
ENDROOT
TORSDOF 0
ENDMDL
MODEL 3
REMARK VINA RESULT:      -5.6      2.049      3.455
REMARK  Name = 
REMARK  0 active torsions:
REMARK  status: ('A' for Active; 'I' for Inactive)
REMARK                            x       y       z     vdW  Elec       q    Type
REMARK                         _______ _______ _______ _____ _____    ______ ____
ROOT
ATOM      1  O   UNL     1       4.057   2.238  17.352  0.00  0.00    +0.000 OA
ATOM      2  C   UNL     1       3.397   2.962  18.083  0.00  0.00    +0.000 C 
ATOM      3  C   UNL     1       2.506   2.290  19.036  0.00  0.00    +0.000 C 
ATOM      4  C   UNL     1       1.742   2.969  19.882  0.00  0.00    +0.000 C 
ATOM      5  C   UNL     1       1.741   4.436  19.920  0.00  0.00    +0.000 C 
ATOM      6  O   UNL     1       1.002   4.959  20.742  0.00  0.00    +0.000 OA
ATOM      7  C   UNL     1       2.623   5.185  18.973  0.00  0.00    +0.000 A 
ATOM      8  C   UNL     1       2.665   6.599  18.957  0.00  0.00    +0.000 A 
ATOM      9  I   UNL     1       1.554   7.916  20.187  0.00  0.00    +0.000 I 
ATOM     10  C   UNL     1       3.503   7.271  18.061  0.00  0.00    +0.000 A 
ATOM     11  C   UNL     1       4.302   6.561  17.177  0.00  0.00    +0.000 A 
ATOM     12  C   UNL     1       4.281   5.162  17.170  0.00  0.00    +0.000 A 
ATOM     13  I   UNL     1       5.588   4.328  15.729  0.00  0.00    +0.000 I 
ATOM     14  C   UNL     1       3.443   4.455  18.066  0.00  0.00    +0.000 A 
ENDROOT
TORSDOF 0
ENDMDL
MODEL 4
REMARK VINA RESULT:      -5.6      2.063      4.751
REMARK  Name = 
REMARK  0 active torsions:
REMARK  status: ('A' for Active; 'I' for Inactive)
REMARK                            x       y       z     vdW  Elec       q    Type
REMARK                         _______ _______ _______ _____ _____    ______ ____
ROOT
ATOM      1  O   UNL     1       0.957   4.865  20.735  0.00  0.00    +0.000 OA
ATOM      2  C   UNL     1       1.700   4.341  19.919  0.00  0.00    +0.000 C 
ATOM      3  C   UNL     1       1.691   2.874  19.875  0.00  0.00    +0.000 C 
ATOM      4  C   UNL     1       2.453   2.192  19.030  0.00  0.00    +0.000 C 
ATOM      5  C   UNL     1       3.354   2.862  18.084  0.00  0.00    +0.000 C 
ATOM      6  O   UNL     1       4.008   2.137  17.348  0.00  0.00    +0.000 OA
ATOM      7  C   UNL     1       3.416   4.356  18.078  0.00  0.00    +0.000 A 
ATOM      8  C   UNL     1       4.267   5.061  17.194  0.00  0.00    +0.000 A 
ATOM      9  I   UNL     1       5.580   4.225  15.760  0.00  0.00    +0.000 I 
ATOM     10  C   UNL     1       4.300   6.460  17.211  0.00  0.00    +0.000 A 
ATOM     11  C   UNL     1       3.502   7.172  18.094  0.00  0.00    +0.000 A 
ATOM     12  C   UNL     1       2.652   6.502  18.980  0.00  0.00    +0.000 A 
ATOM     13  I   UNL     1       1.549   7.819  20.215  0.00  0.00    +0.000 I 
ATOM     14  C   UNL     1       2.597   5.087  18.985  0.00  0.00    +0.000 A 
ENDROOT
TORSDOF 0
ENDMDL
MODEL 5
REMARK VINA RESULT:      -5.6      2.294      3.505
REMARK  Name = 
REMARK  0 active torsions:
REMARK  status: ('A' for Active; 'I' for Inactive)
REMARK                            x       y       z     vdW  Elec       q    Type
REMARK                         _______ _______ _______ _____ _____    ______ ____
ROOT
ATOM      1  O   UNL     1       4.220   7.201  16.621  0.00  0.00    +0.000 OA
ATOM      2  C   UNL     1       4.141   6.175  17.279  0.00  0.00    +0.000 C 
ATOM      3  C   UNL     1       4.984   5.055  16.845  0.00  0.00    +0.000 C 
ATOM      4  C   UNL     1       4.986   3.890  17.481  0.00  0.00    +0.000 C 
ATOM      5  C   UNL     1       4.145   3.648  18.660  0.00  0.00    +0.000 C 
ATOM      6  O   UNL     1       4.229   2.541  19.170  0.00  0.00    +0.000 OA
ATOM      7  C   UNL     1       3.258   4.746  19.153  0.00  0.00    +0.000 A 
ATOM      8  C   UNL     1       2.422   4.575  20.282  0.00  0.00    +0.000 A 
ATOM      9  I   UNL     1       2.229   2.832  21.466  0.00  0.00    +0.000 I 
ATOM     10  C   UNL     1       1.605   5.623  20.721  0.00  0.00    +0.000 A 
ATOM     11  C   UNL     1       1.604   6.841  20.057  0.00  0.00    +0.000 A 
ATOM     12  C   UNL     1       2.420   7.038  18.938  0.00  0.00    +0.000 A 
ATOM     13  I   UNL     1       2.229   8.978  18.113  0.00  0.00    +0.000 I 
ATOM     14  C   UNL     1       3.258   5.996  18.471  0.00  0.00    +0.000 A 
ENDROOT
TORSDOF 0
ENDMDL
MODEL 6
REMARK VINA RESULT:      -5.6      2.278      4.475
REMARK  Name = 
REMARK  0 active torsions:
REMARK  status: ('A' for Active; 'I' for Inactive)
REMARK                            x       y       z     vdW  Elec       q    Type
REMARK                         _______ _______ _______ _____ _____    ______ ____
ROOT
ATOM      1  O   UNL     1       4.206   2.494  19.193  0.00  0.00    +0.000 OA
ATOM      2  C   UNL     1       4.135   3.599  18.677  0.00  0.00    +0.000 C 
ATOM      3  C   UNL     1       4.982   3.826  17.500  0.00  0.00    +0.000 C 
ATOM      4  C   UNL     1       4.990   4.984  16.853  0.00  0.00    +0.000 C 
ATOM      5  C   UNL     1       4.151   6.113  17.273  0.00  0.00    +0.000 C 
ATOM      6  O   UNL     1       4.233   7.132  16.603  0.00  0.00    +0.000 OA
ATOM      7  C   UNL     1       3.266   5.952  18.468  0.00  0.00    +0.000 A 
ATOM      8  C   UNL     1       2.437   7.003  18.926  0.00  0.00    +0.000 A 
ATOM      9  I   UNL     1       2.262   8.939  18.088  0.00  0.00    +0.000 I 
ATOM     10  C   UNL     1       1.618   6.820  20.046  0.00  0.00    +0.000 A 
ATOM     11  C   UNL     1       1.609   5.608  20.721  0.00  0.00    +0.000 A 
ATOM     12  C   UNL     1       2.419   4.552  20.291  0.00  0.00    +0.000 A 
ATOM     13  I   UNL     1       2.218   2.821  21.493  0.00  0.00    +0.000 I 
ATOM     14  C   UNL     1       3.258   4.708  19.161  0.00  0.00    +0.000 A 
ENDROOT
TORSDOF 0
ENDMDL
MODEL 7
REMARK VINA RESULT:      -5.4      2.239      3.549
REMARK  Name = 
REMARK  0 active torsions:
REMARK  status: ('A' for Active; 'I' for Inactive)
REMARK                            x       y       z     vdW  Elec       q    Type
REMARK                         _______ _______ _______ _____ _____    ______ ____
ROOT
ATOM      1  O   UNL     1       4.192   2.795  18.561  0.00  0.00    +0.000 OA
ATOM      2  C   UNL     1       3.511   3.675  19.065  0.00  0.00    +0.000 C 
ATOM      3  C   UNL     1       2.710   3.291  20.234  0.00  0.00    +0.000 C 
ATOM      4  C   UNL     1       1.933   4.159  20.868  0.00  0.00    +0.000 C 
ATOM      5  C   UNL     1       1.825   5.559  20.442  0.00  0.00    +0.000 C 
ATOM      6  O   UNL     1       1.082   6.274  21.100  0.00  0.00    +0.000 OA
ATOM      7  C   UNL     1       2.610   6.017  19.255  0.00  0.00    +0.000 A 
ATOM      8  C   UNL     1       2.547   7.353  18.792  0.00  0.00    +0.000 A 
ATOM      9  I   UNL     1       1.392   8.926  19.609  0.00  0.00    +0.000 I 
ATOM     10  C   UNL     1       3.297   7.751  17.680  0.00  0.00    +0.000 A 
ATOM     11  C   UNL     1       4.111   6.843  17.017  0.00  0.00    +0.000 A 
ATOM     12  C   UNL     1       4.193   5.516  17.453  0.00  0.00    +0.000 A 
ATOM     13  I   UNL     1       5.500   4.344  16.272  0.00  0.00    +0.000 I 
ATOM     14  C   UNL     1       3.445   5.085  18.576  0.00  0.00    +0.000 A 
ENDROOT
TORSDOF 0
ENDMDL
MODEL 8
REMARK VINA RESULT:      -5.4      2.293      4.565
REMARK  Name = 
REMARK  0 active torsions:
REMARK  status: ('A' for Active; 'I' for Inactive)
REMARK                            x       y       z     vdW  Elec       q    Type
REMARK                         _______ _______ _______ _____ _____    ______ ____
ROOT
ATOM      1  O   UNL     1       1.116   6.550  21.060  0.00  0.00    +0.000 OA
ATOM      2  C   UNL     1       1.887   5.816  20.461  0.00  0.00    +0.000 C 
ATOM      3  C   UNL     1       2.045   4.459  20.997  0.00  0.00    +0.000 C 
ATOM      4  C   UNL     1       2.852   3.570  20.433  0.00  0.00    +0.000 C 
ATOM      5  C   UNL     1       3.638   3.887  19.234  0.00  0.00    +0.000 C 
ATOM      6  O   UNL     1       4.345   2.992  18.795  0.00  0.00    +0.000 OA
ATOM      7  C   UNL     1       3.528   5.253  18.638  0.00  0.00    +0.000 A 
ATOM      8  C   UNL     1       4.262   5.623  17.485  0.00  0.00    +0.000 A 
ATOM      9  I   UNL     1       5.614   4.410  16.399  0.00  0.00    +0.000 I 
ATOM     10  C   UNL     1       4.135   6.909  16.949  0.00  0.00    +0.000 A 
ATOM     11  C   UNL     1       3.291   7.838  17.540  0.00  0.00    +0.000 A 
ATOM     12  C   UNL     1       2.553   7.501  18.679  0.00  0.00    +0.000 A 
ATOM     13  I   UNL     1       1.347   9.094  19.378  0.00  0.00    +0.000 I 
ATOM     14  C   UNL     1       2.661   6.206  19.244  0.00  0.00    +0.000 A 
ENDROOT
TORSDOF 0
ENDMDL
MODEL 9
REMARK VINA RESULT:      -5.2      2.152      3.220
REMARK  Name = 
REMARK  0 active torsions:
REMARK  status: ('A' for Active; 'I' for Inactive)
REMARK                            x       y       z     vdW  Elec       q    Type
REMARK                         _______ _______ _______ _____ _____    ______ ____
ROOT
ATOM      1  O   UNL     1       4.797   3.559  16.764  0.00  0.00    +0.000 OA
ATOM      2  C   UNL     1       4.363   4.634  17.151  0.00  0.00    +0.000 C 
ATOM      3  C   UNL     1       4.774   5.817  16.387  0.00  0.00    +0.000 C 
ATOM      4  C   UNL     1       4.366   7.038  16.710  0.00  0.00    +0.000 C 
ATOM      5  C   UNL     1       3.477   7.282  17.852  0.00  0.00    +0.000 C 
ATOM      6  O   UNL     1       3.160   8.445  18.057  0.00  0.00    +0.000 OA
ATOM      7  C   UNL     1       3.023   6.121  18.677  0.00  0.00    +0.000 A 
ATOM      8  C   UNL     1       2.169   6.289  19.792  0.00  0.00    +0.000 A 
ATOM      9  I   UNL     1       1.381   8.113  20.523  0.00  0.00    +0.000 I 
ATOM     10  C   UNL     1       1.759   5.181  20.543  0.00  0.00    +0.000 A 
ATOM     11  C   UNL     1       2.185   3.905  20.204  0.00  0.00    +0.000 A 
ATOM     12  C   UNL     1       3.030   3.708  19.106  0.00  0.00    +0.000 A 
ATOM     13  I   UNL     1       3.530   1.673  18.809  0.00  0.00    +0.000 I 
ATOM     14  C   UNL     1       3.461   4.811  18.329  0.00  0.00    +0.000 A 
ENDROOT
TORSDOF 0
ENDMDL
