MODEL 1
REMARK VINA RESULT:      -9.0      0.000      0.000
REMARK  Name = 
REMARK  4 active torsions:
REMARK  status: ('A' for Active; 'I' for Inactive)
REMARK    1  A    between atoms: N_2  and  C_4
REMARK    2  A    between atoms: C_7  and  C_8
REMARK    3  A    between atoms: C_13  and  C_14
REMARK    4  A    between atoms: C_17  and  C_18
REMARK                            x       y       z     vdW  Elec       q    Type
REMARK                         _______ _______ _______ _____ _____    ______ ____
ROOT
ATOM      1  C   UNL     1       6.647   5.302  15.961  0.00  0.00    +0.000 A 
ATOM      2  N   UNL     1       7.501   5.329  14.906  0.00  0.00    +0.000 NA
ATOM      3  C   UNL     1       7.105   4.682  13.806  0.00  0.00    +0.000 A 
ATOM      4  N   UNL     1       5.948   4.030  13.664  0.00  0.00    +0.000 NA
ATOM      5  C   UNL     1       5.119   4.063  14.730  0.00  0.00    +0.000 A 
ATOM      6  C   UNL     1       5.379   4.704  15.934  0.00  0.00    +0.000 A 
ENDROOT
BRANCH   6   7
ATOM      7  C   UNL     1       4.376   4.734  17.028  0.00  0.00    +0.000 A 
ATOM      8  C   UNL     1       4.013   3.569  17.729  0.00  0.00    +0.000 A 
ATOM      9  C   UNL     1       3.133   3.614  18.819  0.00  0.00    +0.000 A 
ATOM     10  C   UNL     1       2.601   4.831  19.259  0.00  0.00    +0.000 A 
ATOM     11  C   UNL     1       2.913   5.991  18.542  0.00  0.00    +0.000 A 
ATOM     12  C   UNL     1       3.753   5.932  17.425  0.00  0.00    +0.000 A 
BRANCH  10  13
ATOM     13  C   UNL     1       1.731   4.921  20.488  0.00  0.00    +0.000 C 
ATOM     14  F   UNL     1       2.318   4.421  21.610  0.00  0.00    +0.000 F 
ATOM     15  F   UNL     1       1.377   6.201  20.788  0.00  0.00    +0.000 F 
ATOM     16  F   UNL     1       0.561   4.236  20.346  0.00  0.00    +0.000 F 
ENDBRANCH  10  13
ENDBRANCH   6   7
BRANCH   1  20
ATOM     17  C   UNL     1       8.018   7.700  18.189  0.00  0.00    +0.000 A 
ATOM     18  C   UNL     1       8.174   6.647  19.056  0.00  0.00    +0.000 A 
ATOM     19  C   UNL     1       7.640   5.520  18.374  0.00  0.00    +0.000 A 
ATOM     20  C   UNL     1       7.224   5.962  17.129  0.00  0.00    +0.000 A 
ATOM     21  O   UNL     1       7.412   7.317  17.038  0.00  0.00    +0.000 OA
BRANCH  17  23
ATOM     22  O   UNL     1       7.842   9.843  17.472  0.00  0.00    +0.000 OA
ATOM     23  N   UNL     1       8.396   9.075  18.273  0.00  0.00    +0.000 N 
ATOM     24  O   UNL     1       9.222   9.400  19.134  0.00  0.00    +0.000 OA
ENDBRANCH  17  23
ENDBRANCH   1  20
TORSDOF 4
ENDMDL
MODEL 2
REMARK VINA RESULT:      -8.9      0.045      1.005
REMARK  Name = 
REMARK  4 active torsions:
REMARK  status: ('A' for Active; 'I' for Inactive)
REMARK    1  A    between atoms: N_2  and  C_4
REMARK    2  A    between atoms: C_7  and  C_8
REMARK    3  A    between atoms: C_13  and  C_14
REMARK    4  A    between atoms: C_17  and  C_18
REMARK                            x       y       z     vdW  Elec       q    Type
REMARK                         _______ _______ _______ _____ _____    ______ ____
ROOT
ATOM      1  C   UNL     1       6.658   5.306  15.962  0.00  0.00    +0.000 A 
ATOM      2  N   UNL     1       7.513   5.345  14.908  0.00  0.00    +0.000 NA
ATOM      3  C   UNL     1       7.124   4.700  13.805  0.00  0.00    +0.000 A 
ATOM      4  N   UNL     1       5.973   4.039  13.657  0.00  0.00    +0.000 NA
ATOM      5  C   UNL     1       5.142   4.060  14.723  0.00  0.00    +0.000 A 
ATOM      6  C   UNL     1       5.395   4.697  15.930  0.00  0.00    +0.000 A 
ENDROOT
BRANCH   6   7
ATOM      7  C   UNL     1       4.390   4.714  17.023  0.00  0.00    +0.000 A 
ATOM      8  C   UNL     1       4.084   3.555  17.761  0.00  0.00    +0.000 A 
ATOM      9  C   UNL     1       3.201   3.592  18.849  0.00  0.00    +0.000 A 
ATOM     10  C   UNL     1       2.609   4.796  19.249  0.00  0.00    +0.000 A 
ATOM     11  C   UNL     1       2.864   5.945  18.495  0.00  0.00    +0.000 A 
ATOM     12  C   UNL     1       3.708   5.891  17.381  0.00  0.00    +0.000 A 
BRANCH  10  13
ATOM     13  C   UNL     1       1.734   4.882  20.475  0.00  0.00    +0.000 C 
ATOM     14  F   UNL     1       0.539   4.244  20.339  0.00  0.00    +0.000 F 
ATOM     15  F   UNL     1       2.323   4.345  21.579  0.00  0.00    +0.000 F 
ATOM     16  F   UNL     1       1.430   6.169  20.806  0.00  0.00    +0.000 F 
ENDBRANCH  10  13
ENDBRANCH   6   7
BRANCH   1  20
ATOM     17  C   UNL     1       8.016   7.702  18.200  0.00  0.00    +0.000 A 
ATOM     18  C   UNL     1       8.164   6.649  19.068  0.00  0.00    +0.000 A 
ATOM     19  C   UNL     1       7.634   5.522  18.383  0.00  0.00    +0.000 A 
ATOM     20  C   UNL     1       7.227   5.965  17.134  0.00  0.00    +0.000 A 
ATOM     21  O   UNL     1       7.418   7.320  17.045  0.00  0.00    +0.000 OA
BRANCH  17  23
ATOM     22  O   UNL     1       9.235   9.358  19.155  0.00  0.00    +0.000 OA
ATOM     23  N   UNL     1       8.395   9.077  18.286  0.00  0.00    +0.000 N 
ATOM     24  O   UNL     1       7.882   9.873  17.492  0.00  0.00    +0.000 OA
ENDBRANCH  17  23
ENDBRANCH   1  20
TORSDOF 4
ENDMDL
MODEL 3
REMARK VINA RESULT:      -8.9      0.703      1.468
REMARK  Name = 
REMARK  4 active torsions:
REMARK  status: ('A' for Active; 'I' for Inactive)
REMARK    1  A    between atoms: N_2  and  C_4
REMARK    2  A    between atoms: C_7  and  C_8
REMARK    3  A    between atoms: C_13  and  C_14
REMARK    4  A    between atoms: C_17  and  C_18
REMARK                            x       y       z     vdW  Elec       q    Type
REMARK                         _______ _______ _______ _____ _____    ______ ____
ROOT
ATOM      1  C   UNL     1       6.680   5.144  15.832  0.00  0.00    +0.000 A 
ATOM      2  N   UNL     1       7.494   5.340  14.764  0.00  0.00    +0.000 NA
ATOM      3  C   UNL     1       7.150   4.719  13.633  0.00  0.00    +0.000 A 
ATOM      4  N   UNL     1       6.077   3.940  13.471  0.00  0.00    +0.000 NA
ATOM      5  C   UNL     1       5.279   3.805  14.554  0.00  0.00    +0.000 A 
ATOM      6  C   UNL     1       5.493   4.397  15.791  0.00  0.00    +0.000 A 
ENDROOT
BRANCH   6   7
ATOM      7  C   UNL     1       4.525   4.236  16.904  0.00  0.00    +0.000 A 
ATOM      8  C   UNL     1       3.753   5.316  17.373  0.00  0.00    +0.000 A 
ATOM      9  C   UNL     1       2.776   5.143  18.364  0.00  0.00    +0.000 A 
ATOM     10  C   UNL     1       2.523   3.878  18.905  0.00  0.00    +0.000 A 
ATOM     11  C   UNL     1       3.315   2.804  18.485  0.00  0.00    +0.000 A 
ATOM     12  C   UNL     1       4.321   2.993  17.532  0.00  0.00    +0.000 A 
BRANCH  10  13
ATOM     13  C   UNL     1       1.412   3.646  19.899  0.00  0.00    +0.000 C 
ATOM     14  F   UNL     1       0.346   2.977  19.379  0.00  0.00    +0.000 F 
ATOM     15  F   UNL     1       1.817   2.924  20.979  0.00  0.00    +0.000 F 
ATOM     16  F   UNL     1       0.911   4.811  20.397  0.00  0.00    +0.000 F 
ENDBRANCH  10  13
ENDBRANCH   6   7
BRANCH   1  20
ATOM     17  C   UNL     1       7.939   7.528  18.138  0.00  0.00    +0.000 A 
ATOM     18  C   UNL     1       8.073   6.467  18.998  0.00  0.00    +0.000 A 
ATOM     19  C   UNL     1       7.577   5.342  18.284  0.00  0.00    +0.000 A 
ATOM     20  C   UNL     1       7.205   5.795  17.028  0.00  0.00    +0.000 A 
ATOM     21  O   UNL     1       7.382   7.153  16.960  0.00  0.00    +0.000 OA
BRANCH  17  23
ATOM     22  O   UNL     1       7.694   9.692  17.508  0.00  0.00    +0.000 OA
ATOM     23  N   UNL     1       8.300   8.906  18.252  0.00  0.00    +0.000 N 
ATOM     24  O   UNL     1       9.163   9.215  19.081  0.00  0.00    +0.000 OA
ENDBRANCH  17  23
ENDBRANCH   1  20
TORSDOF 4
ENDMDL
MODEL 4
REMARK VINA RESULT:      -8.8      0.590      1.321
REMARK  Name = 
REMARK  4 active torsions:
REMARK  status: ('A' for Active; 'I' for Inactive)
REMARK    1  A    between atoms: N_2  and  C_4
REMARK    2  A    between atoms: C_7  and  C_8
REMARK    3  A    between atoms: C_13  and  C_14
REMARK    4  A    between atoms: C_17  and  C_18
REMARK                            x       y       z     vdW  Elec       q    Type
REMARK                         _______ _______ _______ _____ _____    ______ ____
ROOT
ATOM      1  C   UNL     1       6.649   5.209  15.908  0.00  0.00    +0.000 A 
ATOM      2  N   UNL     1       7.451   5.374  14.825  0.00  0.00    +0.000 NA
ATOM      3  C   UNL     1       7.079   4.741  13.709  0.00  0.00    +0.000 A 
ATOM      4  N   UNL     1       5.991   3.978  13.575  0.00  0.00    +0.000 NA
ATOM      5  C   UNL     1       5.207   3.874  14.672  0.00  0.00    +0.000 A 
ATOM      6  C   UNL     1       5.450   4.481  15.896  0.00  0.00    +0.000 A 
ENDROOT
BRANCH   6   7
ATOM      7  C   UNL     1       4.495   4.355  17.026  0.00  0.00    +0.000 A 
ATOM      8  C   UNL     1       3.736   5.450  17.477  0.00  0.00    +0.000 A 
ATOM      9  C   UNL     1       2.771   5.308  18.484  0.00  0.00    +0.000 A 
ATOM     10  C   UNL     1       2.519   4.059  19.062  0.00  0.00    +0.000 A 
ATOM     11  C   UNL     1       3.300   2.971  18.659  0.00  0.00    +0.000 A 
ATOM     12  C   UNL     1       4.294   3.130  17.689  0.00  0.00    +0.000 A 
BRANCH  10  13
ATOM     13  C   UNL     1       1.419   3.859  20.076  0.00  0.00    +0.000 C 
ATOM     14  F   UNL     1       1.828   3.215  21.203  0.00  0.00    +0.000 F 
ATOM     15  F   UNL     1       0.871   5.033  20.492  0.00  0.00    +0.000 F 
ATOM     16  F   UNL     1       0.386   3.121  19.581  0.00  0.00    +0.000 F 
ENDBRANCH  10  13
ENDBRANCH   6   7
BRANCH   1  20
ATOM     17  C   UNL     1       7.964   7.612  18.162  0.00  0.00    +0.000 A 
ATOM     18  C   UNL     1       8.117   6.558  19.028  0.00  0.00    +0.000 A 
ATOM     19  C   UNL     1       7.603   5.428  18.336  0.00  0.00    +0.000 A 
ATOM     20  C   UNL     1       7.202   5.870  17.086  0.00  0.00    +0.000 A 
ATOM     21  O   UNL     1       7.378   7.227  17.001  0.00  0.00    +0.000 OA
BRANCH  17  23
ATOM     22  O   UNL     1       9.181   9.274  19.110  0.00  0.00    +0.000 OA
ATOM     23  N   UNL     1       8.327   8.991  18.255  0.00  0.00    +0.000 N 
ATOM     24  O   UNL     1       7.789   9.789  17.479  0.00  0.00    +0.000 OA
ENDBRANCH  17  23
ENDBRANCH   1  20
TORSDOF 4
ENDMDL
MODEL 5
REMARK VINA RESULT:      -8.5      4.289      5.918
REMARK  Name = 
REMARK  4 active torsions:
REMARK  status: ('A' for Active; 'I' for Inactive)
REMARK    1  A    between atoms: N_2  and  C_4
REMARK    2  A    between atoms: C_7  and  C_8
REMARK    3  A    between atoms: C_13  and  C_14
REMARK    4  A    between atoms: C_17  and  C_18
REMARK                            x       y       z     vdW  Elec       q    Type
REMARK                         _______ _______ _______ _____ _____    ______ ____
ROOT
ATOM      1  C   UNL     1       3.654   4.812  17.676  0.00  0.00    +0.000 A 
ATOM      2  N   UNL     1       4.497   3.944  17.061  0.00  0.00    +0.000 NA
ATOM      3  C   UNL     1       5.414   4.481  16.251  0.00  0.00    +0.000 A 
ATOM      4  N   UNL     1       5.569   5.786  16.012  0.00  0.00    +0.000 NA
ATOM      5  C   UNL     1       4.728   6.610  16.676  0.00  0.00    +0.000 A 
ATOM      6  C   UNL     1       3.737   6.207  17.560  0.00  0.00    +0.000 A 
ENDROOT
BRANCH   6   7
ATOM      7  C   UNL     1       2.901   7.195  18.289  0.00  0.00    +0.000 A 
ATOM      8  C   UNL     1       2.377   8.333  17.648  0.00  0.00    +0.000 A 
ATOM      9  C   UNL     1       1.517   9.217  18.314  0.00  0.00    +0.000 A 
ATOM     10  C   UNL     1       1.133   8.981  19.639  0.00  0.00    +0.000 A 
ATOM     11  C   UNL     1       1.684   7.881  20.304  0.00  0.00    +0.000 A 
ATOM     12  C   UNL     1       2.581   7.030  19.649  0.00  0.00    +0.000 A 
BRANCH  10  13
ATOM     13  C   UNL     1       0.132   9.860  20.346  0.00  0.00    +0.000 C 
ATOM     14  F   UNL     1      -0.449   9.267  21.425  0.00  0.00    +0.000 F 
ATOM     15  F   UNL     1       0.683  11.017  20.804  0.00  0.00    +0.000 F 
ATOM     16  F   UNL     1      -0.895  10.235  19.531  0.00  0.00    +0.000 F 
ENDBRANCH  10  13
ENDBRANCH   6   7
BRANCH   1  20
ATOM     17  C   UNL     1       1.940   3.081  20.256  0.00  0.00    +0.000 A 
ATOM     18  C   UNL     1       0.905   2.988  19.359  0.00  0.00    +0.000 A 
ATOM     19  C   UNL     1       1.355   3.672  18.197  0.00  0.00    +0.000 A 
ATOM     20  C   UNL     1       2.644   4.107  18.460  0.00  0.00    +0.000 A 
ATOM     21  O   UNL     1       2.982   3.785  19.749  0.00  0.00    +0.000 OA
BRANCH  17  23
ATOM     22  O   UNL     1       3.272   2.227  21.880  0.00  0.00    +0.000 OA
ATOM     23  N   UNL     1       2.116   2.559  21.574  0.00  0.00    +0.000 N 
ATOM     24  O   UNL     1       1.126   2.490  22.311  0.00  0.00    +0.000 OA
ENDBRANCH  17  23
ENDBRANCH   1  20
TORSDOF 4
ENDMDL
MODEL 6
REMARK VINA RESULT:      -8.5      4.231      5.847
REMARK  Name = 
REMARK  4 active torsions:
REMARK  status: ('A' for Active; 'I' for Inactive)
REMARK    1  A    between atoms: N_2  and  C_4
REMARK    2  A    between atoms: C_7  and  C_8
REMARK    3  A    between atoms: C_13  and  C_14
REMARK    4  A    between atoms: C_17  and  C_18
REMARK                            x       y       z     vdW  Elec       q    Type
REMARK                         _______ _______ _______ _____ _____    ______ ____
ROOT
ATOM      1  C   UNL     1       3.718   5.047  17.577  0.00  0.00    +0.000 A 
ATOM      2  N   UNL     1       4.587   4.233  16.924  0.00  0.00    +0.000 NA
ATOM      3  C   UNL     1       5.466   4.831  16.116  0.00  0.00    +0.000 A 
ATOM      4  N   UNL     1       5.562   6.147  15.911  0.00  0.00    +0.000 NA
ATOM      5  C   UNL     1       4.698   6.915  16.611  0.00  0.00    +0.000 A 
ATOM      6  C   UNL     1       3.739   6.447  17.498  0.00  0.00    +0.000 A 
ENDROOT
BRANCH   6   7
ATOM      7  C   UNL     1       2.874   7.377  18.267  0.00  0.00    +0.000 A 
ATOM      8  C   UNL     1       2.308   8.519  17.671  0.00  0.00    +0.000 A 
ATOM      9  C   UNL     1       1.421   9.348  18.373  0.00  0.00    +0.000 A 
ATOM     10  C   UNL     1       1.054   9.050  19.690  0.00  0.00    +0.000 A 
ATOM     11  C   UNL     1       1.647   7.946  20.312  0.00  0.00    +0.000 A 
ATOM     12  C   UNL     1       2.568   7.152  19.622  0.00  0.00    +0.000 A 
BRANCH  10  13
ATOM     13  C   UNL     1       0.027   9.868  20.434  0.00  0.00    +0.000 C 
ATOM     14  F   UNL     1       0.516  11.038  20.928  0.00  0.00    +0.000 F 
ATOM     15  F   UNL     1      -1.038  10.204  19.656  0.00  0.00    +0.000 F 
ATOM     16  F   UNL     1      -0.491   9.200  21.503  0.00  0.00    +0.000 F 
ENDBRANCH  10  13
ENDBRANCH   6   7
BRANCH   1  20
ATOM     17  C   UNL     1       2.129   3.155  20.124  0.00  0.00    +0.000 A 
ATOM     18  C   UNL     1       1.073   3.068  19.252  0.00  0.00    +0.000 A 
ATOM     19  C   UNL     1       1.469   3.815  18.109  0.00  0.00    +0.000 A 
ATOM     20  C   UNL     1       2.752   4.278  18.356  0.00  0.00    +0.000 A 
ATOM     21  O   UNL     1       3.135   3.912  19.621  0.00  0.00    +0.000 OA
BRANCH  17  23
ATOM     22  O   UNL     1       1.381   2.547  22.176  0.00  0.00    +0.000 OA
ATOM     23  N   UNL     1       2.359   2.582  21.413  0.00  0.00    +0.000 N 
ATOM     24  O   UNL     1       3.491   2.155  21.667  0.00  0.00    +0.000 OA
ENDBRANCH  17  23
ENDBRANCH   1  20
TORSDOF 4
ENDMDL
MODEL 7
REMARK VINA RESULT:      -8.4      4.399      5.992
REMARK  Name = 
REMARK  4 active torsions:
REMARK  status: ('A' for Active; 'I' for Inactive)
REMARK    1  A    between atoms: N_2  and  C_4
REMARK    2  A    between atoms: C_7  and  C_8
REMARK    3  A    between atoms: C_13  and  C_14
REMARK    4  A    between atoms: C_17  and  C_18
REMARK                            x       y       z     vdW  Elec       q    Type
REMARK                         _______ _______ _______ _____ _____    ______ ____
ROOT
ATOM      1  C   UNL     1       3.636   5.002  17.811  0.00  0.00    +0.000 A 
ATOM      2  N   UNL     1       4.566   4.204  17.226  0.00  0.00    +0.000 NA
ATOM      3  C   UNL     1       5.479   4.816  16.467  0.00  0.00    +0.000 A 
ATOM      4  N   UNL     1       5.554   6.131  16.251  0.00  0.00    +0.000 NA
ATOM      5  C   UNL     1       4.627   6.885  16.884  0.00  0.00    +0.000 A 
ATOM      6  C   UNL     1       3.626   6.401  17.715  0.00  0.00    +0.000 A 
ENDROOT
BRANCH   6   7
ATOM      7  C   UNL     1       2.690   7.317  18.414  0.00  0.00    +0.000 A 
ATOM      8  C   UNL     1       2.373   7.150  19.775  0.00  0.00    +0.000 A 
ATOM      9  C   UNL     1       1.559   8.066  20.455  0.00  0.00    +0.000 A 
ATOM     10  C   UNL     1       1.051   9.195  19.802  0.00  0.00    +0.000 A 
ATOM     11  C   UNL     1       1.317   9.348  18.437  0.00  0.00    +0.000 A 
ATOM     12  C   UNL     1       2.089   8.404  17.753  0.00  0.00    +0.000 A 
BRANCH  10  13
ATOM     13  C   UNL     1       0.256  10.247  20.534  0.00  0.00    +0.000 C 
ATOM     14  F   UNL     1      -0.450   9.761  21.591  0.00  0.00    +0.000 F 
ATOM     15  F   UNL     1       1.039  11.243  21.032  0.00  0.00    +0.000 F 
ATOM     16  F   UNL     1      -0.657  10.860  19.729  0.00  0.00    +0.000 F 
ENDBRANCH  10  13
ENDBRANCH   6   7
BRANCH   1  20
ATOM     17  C   UNL     1       1.935   3.106  20.281  0.00  0.00    +0.000 A 
ATOM     18  C   UNL     1       0.944   2.970  19.341  0.00  0.00    +0.000 A 
ATOM     19  C   UNL     1       1.395   3.709  18.214  0.00  0.00    +0.000 A 
ATOM     20  C   UNL     1       2.643   4.217  18.538  0.00  0.00    +0.000 A 
ATOM     21  O   UNL     1       2.949   3.886  19.832  0.00  0.00    +0.000 OA
BRANCH  17  23
ATOM     22  O   UNL     1       3.242   2.219  21.908  0.00  0.00    +0.000 OA
ATOM     23  N   UNL     1       2.092   2.564  21.594  0.00  0.00    +0.000 N 
ATOM     24  O   UNL     1       1.093   2.494  22.319  0.00  0.00    +0.000 OA
ENDBRANCH  17  23
ENDBRANCH   1  20
TORSDOF 4
ENDMDL
MODEL 8
REMARK VINA RESULT:      -8.3      3.410      5.061
REMARK  Name = 
REMARK  4 active torsions:
REMARK  status: ('A' for Active; 'I' for Inactive)
REMARK    1  A    between atoms: N_2  and  C_4
REMARK    2  A    between atoms: C_7  and  C_8
REMARK    3  A    between atoms: C_13  and  C_14
REMARK    4  A    between atoms: C_17  and  C_18
REMARK                            x       y       z     vdW  Elec       q    Type
REMARK                         _______ _______ _______ _____ _____    ______ ____
ROOT
ATOM      1  C   UNL     1       4.530   4.026  19.369  0.00  0.00    +0.000 A 
ATOM      2  N   UNL     1       4.857   2.739  19.650  0.00  0.00    +0.000 NA
ATOM      3  C   UNL     1       4.017   2.074  20.448  0.00  0.00    +0.000 A 
ATOM      4  N   UNL     1       2.893   2.567  20.974  0.00  0.00    +0.000 NA
ATOM      5  C   UNL     1       2.594   3.841  20.635  0.00  0.00    +0.000 A 
ATOM      6  C   UNL     1       3.356   4.654  19.807  0.00  0.00    +0.000 A 
ENDROOT
BRANCH   6   7
ATOM      7  C   UNL     1       2.911   6.024  19.445  0.00  0.00    +0.000 A 
ATOM      8  C   UNL     1       3.102   6.544  18.152  0.00  0.00    +0.000 A 
ATOM      9  C   UNL     1       2.603   7.802  17.787  0.00  0.00    +0.000 A 
ATOM     10  C   UNL     1       1.877   8.576  18.700  0.00  0.00    +0.000 A 
ATOM     11  C   UNL     1       1.723   8.095  20.004  0.00  0.00    +0.000 A 
ATOM     12  C   UNL     1       2.265   6.860  20.375  0.00  0.00    +0.000 A 
BRANCH  10  13
ATOM     13  C   UNL     1       1.245   9.888  18.305  0.00  0.00    +0.000 C 
ATOM     14  F   UNL     1       0.113   9.746  17.562  0.00  0.00    +0.000 F 
ATOM     15  F   UNL     1       0.897  10.646  19.380  0.00  0.00    +0.000 F 
ATOM     16  F   UNL     1       2.082  10.663  17.559  0.00  0.00    +0.000 F 
ENDBRANCH  10  13
ENDBRANCH   6   7
BRANCH   1  20
ATOM     17  C   UNL     1       6.674   4.995  16.713  0.00  0.00    +0.000 A 
ATOM     18  C   UNL     1       7.290   5.794  17.644  0.00  0.00    +0.000 A 
ATOM     19  C   UNL     1       6.556   5.601  18.845  0.00  0.00    +0.000 A 
ATOM     20  C   UNL     1       5.564   4.675  18.567  0.00  0.00    +0.000 A 
ATOM     21  O   UNL     1       5.608   4.342  17.238  0.00  0.00    +0.000 OA
BRANCH  17  23
ATOM     22  O   UNL     1       7.819   5.445  14.808  0.00  0.00    +0.000 OA
ATOM     23  N   UNL     1       6.968   4.718  15.342  0.00  0.00    +0.000 N 
ATOM     24  O   UNL     1       6.376   3.778  14.799  0.00  0.00    +0.000 OA
ENDBRANCH  17  23
ENDBRANCH   1  20
TORSDOF 4
ENDMDL
MODEL 9
REMARK VINA RESULT:      -8.2      3.545      5.427
REMARK  Name = 
REMARK  4 active torsions:
REMARK  status: ('A' for Active; 'I' for Inactive)
REMARK    1  A    between atoms: N_2  and  C_4
REMARK    2  A    between atoms: C_7  and  C_8
REMARK    3  A    between atoms: C_13  and  C_14
REMARK    4  A    between atoms: C_17  and  C_18
REMARK                            x       y       z     vdW  Elec       q    Type
REMARK                         _______ _______ _______ _____ _____    ______ ____
ROOT
ATOM      1  C   UNL     1       3.490   3.679  19.567  0.00  0.00    +0.000 A 
ATOM      2  N   UNL     1       3.653   2.402  19.996  0.00  0.00    +0.000 NA
ATOM      3  C   UNL     1       3.128   2.105  21.188  0.00  0.00    +0.000 A 
ATOM      4  N   UNL     1       2.457   2.952  21.974  0.00  0.00    +0.000 NA
ATOM      5  C   UNL     1       2.291   4.201  21.485  0.00  0.00    +0.000 A 
ATOM      6  C   UNL     1       2.762   4.657  20.261  0.00  0.00    +0.000 A 
ENDROOT
BRANCH   6   7
ATOM      7  C   UNL     1       2.476   6.034  19.785  0.00  0.00    +0.000 A 
ATOM      8  C   UNL     1       2.707   6.416  18.451  0.00  0.00    +0.000 A 
ATOM      9  C   UNL     1       2.354   7.690  17.983  0.00  0.00    +0.000 A 
ATOM     10  C   UNL     1       1.738   8.618  18.829  0.00  0.00    +0.000 A 
ATOM     11  C   UNL     1       1.548   8.270  20.171  0.00  0.00    +0.000 A 
ATOM     12  C   UNL     1       1.947   7.016  20.643  0.00  0.00    +0.000 A 
BRANCH  10  13
ATOM     13  C   UNL     1       1.258   9.957  18.326  0.00  0.00    +0.000 C 
ATOM     14  F   UNL     1       0.133   9.882  17.564  0.00  0.00    +0.000 F 
ATOM     15  F   UNL     1       0.972  10.824  19.336  0.00  0.00    +0.000 F 
ATOM     16  F   UNL     1       2.189  10.583  17.553  0.00  0.00    +0.000 F 
ENDBRANCH  10  13
ENDBRANCH   6   7
BRANCH   1  20
ATOM     17  C   UNL     1       5.920   4.473  17.107  0.00  0.00    +0.000 A 
ATOM     18  C   UNL     1       4.918   4.245  16.197  0.00  0.00    +0.000 A 
ATOM     19  C   UNL     1       3.791   3.858  16.972  0.00  0.00    +0.000 A 
ATOM     20  C   UNL     1       4.180   3.907  18.301  0.00  0.00    +0.000 A 
ATOM     21  O   UNL     1       5.509   4.238  18.377  0.00  0.00    +0.000 OA
BRANCH  17  23
ATOM     22  O   UNL     1       7.414   6.015  16.376  0.00  0.00    +0.000 OA
ATOM     23  N   UNL     1       7.266   4.929  16.957  0.00  0.00    +0.000 N 
ATOM     24  O   UNL     1       8.173   4.230  17.425  0.00  0.00    +0.000 OA
ENDBRANCH  17  23
ENDBRANCH   1  20
TORSDOF 4
ENDMDL
