MODEL 1
REMARK VINA RESULT:      -9.3      0.000      0.000
REMARK  Name = 
REMARK  8 active torsions:
REMARK  status: ('A' for Active; 'I' for Inactive)
REMARK    1  A    between atoms: C_1  and  C_2
REMARK    2  A    between atoms: C_2  and  C_3
REMARK    3  A    between atoms: C_2  and  C_4
REMARK    4  A    between atoms: C_4  and  N_5
REMARK    5  A    between atoms: N_14  and  C_15
REMARK    6  A    between atoms: C_15  and  C_16
REMARK    7  A    between atoms: C_19  and  C_20
REMARK    8  A    between atoms: C_25  and  C_26
REMARK                            x       y       z     vdW  Elec       q    Type
REMARK                         _______ _______ _______ _____ _____    ______ ____
ROOT
ATOM      1  C   UNL     1       2.411   7.804  18.603  0.00  0.00    +0.000 A 
ATOM      2  C   UNL     1       1.980   7.572  19.913  0.00  0.00    +0.000 A 
ATOM      3  C   UNL     1       1.183   8.508  20.582  0.00  0.00    +0.000 A 
ATOM      4  C   UNL     1       0.718   9.667  19.942  0.00  0.00    +0.000 A 
ATOM      5  C   UNL     1       1.164   9.891  18.626  0.00  0.00    +0.000 A 
ATOM      6  C   UNL     1       2.001   8.982  17.969  0.00  0.00    +0.000 A 
ENDROOT
BRANCH   4   7
ATOM      7  C   UNL     1      -0.217  10.619  20.601  0.00  0.00    +0.000 A 
ATOM      8  C   UNL     1       0.009  10.941  21.962  0.00  0.00    +0.000 A 
ATOM      9  C   UNL     1      -0.799  11.840  22.662  0.00  0.00    +0.000 A 
ATOM     10  C   UNL     1      -1.889  12.420  22.031  0.00  0.00    +0.000 A 
ATOM     11  C   UNL     1      -2.154  12.112  20.697  0.00  0.00    +0.000 A 
ATOM     12  C   UNL     1      -1.322  11.240  19.960  0.00  0.00    +0.000 A 
BRANCH  12  13
ATOM     13  C   UNL     1      -1.643  11.060  18.544  0.00  0.00    +0.000 A 
ATOM     14  N   UNL     1      -2.123   9.886  18.008  0.00  0.00    +0.000 NA
ATOM     15  N   UNL     1      -2.325  10.102  16.717  0.00  0.00    +0.000 NA
ATOM     16  N   UNL     1      -1.919  11.357  16.521  0.00  0.00    +0.000 N 
ATOM     17  N   UNL     1      -1.478  12.013  17.604  0.00  0.00    +0.000 NA
ATOM     18  H   UNL     1      -1.941  11.784  15.599  0.00  0.00    +0.000 HD
ENDBRANCH  12  13
ENDBRANCH   4   7
BRANCH   1  19
ATOM     19  C   UNL     1       3.241   6.780  17.854  0.00  0.00    +0.000 C 
BRANCH  19  29
ATOM     20  N   UNL     1       4.692   5.028  18.986  0.00  0.00    +0.000 N 
ATOM     21  C   UNL     1       4.524   3.714  19.404  0.00  0.00    +0.000 A 
ATOM     22  O   UNL     1       5.342   2.939  19.861  0.00  0.00    +0.000 OA
ATOM     23  C   UNL     1       3.127   3.378  19.126  0.00  0.00    +0.000 A 
ATOM     24  C   UNL     1       2.453   2.185  19.219  0.00  0.00    +0.000 A 
ATOM     25  C   UNL     1       1.148   2.176  18.738  0.00  0.00    +0.000 A 
ATOM     26  C   UNL     1       0.626   3.354  18.193  0.00  0.00    +0.000 A 
ATOM     27  N   UNL     1       1.293   4.538  18.120  0.00  0.00    +0.000 NA
ATOM     28  C   UNL     1       2.544   4.533  18.615  0.00  0.00    +0.000 A 
ATOM     29  N   UNL     1       3.439   5.621  18.702  0.00  0.00    +0.000 N 
BRANCH  20  30
ATOM     30  C   UNL     1       5.927   5.778  19.079  0.00  0.00    +0.000 C 
BRANCH  30  32
ATOM     31  C   UNL     1       7.421   7.089  17.482  0.00  0.00    +0.000 C 
ATOM     32  C   UNL     1       6.700   5.764  17.745  0.00  0.00    +0.000 C 
ATOM     33  C   UNL     1       7.701   4.605  17.703  0.00  0.00    +0.000 C 
ENDBRANCH  30  32
ENDBRANCH  20  30
ENDBRANCH  19  29
ENDBRANCH   1  19
TORSDOF 6
ENDMDL
MODEL 2
REMARK VINA RESULT:      -9.1      2.439      4.124
REMARK  Name = 
REMARK  8 active torsions:
REMARK  status: ('A' for Active; 'I' for Inactive)
REMARK    1  A    between atoms: C_1  and  C_2
REMARK    2  A    between atoms: C_2  and  C_3
REMARK    3  A    between atoms: C_2  and  C_4
REMARK    4  A    between atoms: C_4  and  N_5
REMARK    5  A    between atoms: N_14  and  C_15
REMARK    6  A    between atoms: C_15  and  C_16
REMARK    7  A    between atoms: C_19  and  C_20
REMARK    8  A    between atoms: C_25  and  C_26
REMARK                            x       y       z     vdW  Elec       q    Type
REMARK                         _______ _______ _______ _____ _____    ______ ____
ROOT
ATOM      1  C   UNL     1       2.610   7.395  19.330  0.00  0.00    +0.000 A 
ATOM      2  C   UNL     1       1.807   7.789  20.406  0.00  0.00    +0.000 A 
ATOM      3  C   UNL     1       0.861   8.810  20.258  0.00  0.00    +0.000 A 
ATOM      4  C   UNL     1       0.623   9.417  19.016  0.00  0.00    +0.000 A 
ATOM      5  C   UNL     1       1.442   9.015  17.943  0.00  0.00    +0.000 A 
ATOM      6  C   UNL     1       2.423   8.029  18.097  0.00  0.00    +0.000 A 
ENDROOT
BRANCH   4   7
ATOM      7  C   UNL     1      -0.451  10.427  18.816  0.00  0.00    +0.000 A 
ATOM      8  C   UNL     1      -1.687   9.988  18.282  0.00  0.00    +0.000 A 
ATOM      9  C   UNL     1      -2.764  10.854  18.079  0.00  0.00    +0.000 A 
ATOM     10  C   UNL     1      -2.625  12.203  18.367  0.00  0.00    +0.000 A 
ATOM     11  C   UNL     1      -1.416  12.676  18.876  0.00  0.00    +0.000 A 
ATOM     12  C   UNL     1      -0.331  11.807  19.131  0.00  0.00    +0.000 A 
BRANCH  12  13
ATOM     13  C   UNL     1       0.857  12.397  19.749  0.00  0.00    +0.000 A 
ATOM     14  N   UNL     1       1.080  12.431  21.107  0.00  0.00    +0.000 NA
ATOM     15  N   UNL     1       2.258  13.007  21.293  0.00  0.00    +0.000 NA
ATOM     16  N   UNL     1       2.666  13.336  20.067  0.00  0.00    +0.000 N 
ATOM     17  N   UNL     1       1.850  12.995  19.059  0.00  0.00    +0.000 NA
ATOM     18  H   UNL     1       3.546  13.820  19.913  0.00  0.00    +0.000 HD
ENDBRANCH  12  13
ENDBRANCH   4   7
BRANCH   1  19
ATOM     19  C   UNL     1       3.609   6.264  19.467  0.00  0.00    +0.000 C 
BRANCH  19  29
ATOM     20  N   UNL     1       2.846   4.106  18.365  0.00  0.00    +0.000 N 
ATOM     21  C   UNL     1       3.282   3.319  17.306  0.00  0.00    +0.000 A 
ATOM     22  O   UNL     1       2.873   2.239  16.927  0.00  0.00    +0.000 OA
ATOM     23  C   UNL     1       4.426   4.024  16.726  0.00  0.00    +0.000 A 
ATOM     24  C   UNL     1       5.314   3.646  15.747  0.00  0.00    +0.000 A 
ATOM     25  C   UNL     1       6.387   4.502  15.526  0.00  0.00    +0.000 A 
ATOM     26  C   UNL     1       6.495   5.658  16.307  0.00  0.00    +0.000 A 
ATOM     27  N   UNL     1       5.604   6.036  17.263  0.00  0.00    +0.000 NA
ATOM     28  C   UNL     1       4.558   5.208  17.443  0.00  0.00    +0.000 A 
ATOM     29  N   UNL     1       3.474   5.373  18.332  0.00  0.00    +0.000 N 
BRANCH  20  30
ATOM     30  C   UNL     1       1.723   3.793  19.224  0.00  0.00    +0.000 C 
BRANCH  30  32
ATOM     31  C   UNL     1       3.573   2.590  20.500  0.00  0.00    +0.000 C 
ATOM     32  C   UNL     1       2.069   2.671  20.223  0.00  0.00    +0.000 C 
ATOM     33  C   UNL     1       1.302   2.850  21.537  0.00  0.00    +0.000 C 
ENDBRANCH  30  32
ENDBRANCH  20  30
ENDBRANCH  19  29
ENDBRANCH   1  19
TORSDOF 6
ENDMDL
MODEL 3
REMARK VINA RESULT:      -9.1      0.407      1.103
REMARK  Name = 
REMARK  8 active torsions:
REMARK  status: ('A' for Active; 'I' for Inactive)
REMARK    1  A    between atoms: C_1  and  C_2
REMARK    2  A    between atoms: C_2  and  C_3
REMARK    3  A    between atoms: C_2  and  C_4
REMARK    4  A    between atoms: C_4  and  N_5
REMARK    5  A    between atoms: N_14  and  C_15
REMARK    6  A    between atoms: C_15  and  C_16
REMARK    7  A    between atoms: C_19  and  C_20
REMARK    8  A    between atoms: C_25  and  C_26
REMARK                            x       y       z     vdW  Elec       q    Type
REMARK                         _______ _______ _______ _____ _____    ______ ____
ROOT
ATOM      1  C   UNL     1       2.533   7.658  18.479  0.00  0.00    +0.000 A 
ATOM      2  C   UNL     1       2.072   8.759  17.750  0.00  0.00    +0.000 A 
ATOM      3  C   UNL     1       1.164   9.663  18.314  0.00  0.00    +0.000 A 
ATOM      4  C   UNL     1       0.749   9.550  19.650  0.00  0.00    +0.000 A 
ATOM      5  C   UNL     1       1.217   8.434  20.370  0.00  0.00    +0.000 A 
ATOM      6  C   UNL     1       2.086   7.500  19.795  0.00  0.00    +0.000 A 
ENDROOT
BRANCH   4   7
ATOM      7  C   UNL     1      -0.130  10.560  20.298  0.00  0.00    +0.000 A 
ATOM      8  C   UNL     1       0.198  10.984  21.609  0.00  0.00    +0.000 A 
ATOM      9  C   UNL     1      -0.552  11.944  22.294  0.00  0.00    +0.000 A 
ATOM     10  C   UNL     1      -1.682  12.486  21.701  0.00  0.00    +0.000 A 
ATOM     11  C   UNL     1      -2.046  12.079  20.418  0.00  0.00    +0.000 A 
ATOM     12  C   UNL     1      -1.276  11.143  19.692  0.00  0.00    +0.000 A 
BRANCH  12  13
ATOM     13  C   UNL     1      -1.701  10.856  18.322  0.00  0.00    +0.000 A 
ATOM     14  N   UNL     1      -2.285   9.673  17.930  0.00  0.00    +0.000 NA
ATOM     15  N   UNL     1      -2.560   9.784  16.639  0.00  0.00    +0.000 NA
ATOM     16  N   UNL     1      -2.093  10.987  16.301  0.00  0.00    +0.000 N 
ATOM     17  N   UNL     1      -1.542  11.708  17.288  0.00  0.00    +0.000 NA
ATOM     18  H   UNL     1      -2.152  11.330  15.346  0.00  0.00    +0.000 HD
ENDBRANCH  12  13
ENDBRANCH   4   7
BRANCH   1  19
ATOM     19  C   UNL     1       3.547   6.695  17.893  0.00  0.00    +0.000 C 
BRANCH  19  29
ATOM     20  N   UNL     1       4.832   4.855  19.082  0.00  0.00    +0.000 N 
ATOM     21  C   UNL     1       4.564   3.551  19.483  0.00  0.00    +0.000 A 
ATOM     22  O   UNL     1       5.310   2.727  19.974  0.00  0.00    +0.000 OA
ATOM     23  C   UNL     1       3.164   3.303  19.137  0.00  0.00    +0.000 A 
ATOM     24  C   UNL     1       2.414   2.152  19.189  0.00  0.00    +0.000 A 
ATOM     25  C   UNL     1       1.137   2.226  18.646  0.00  0.00    +0.000 A 
ATOM     26  C   UNL     1       0.715   3.435  18.084  0.00  0.00    +0.000 A 
ATOM     27  N   UNL     1       1.455   4.576  18.051  0.00  0.00    +0.000 NA
ATOM     28  C   UNL     1       2.678   4.493  18.605  0.00  0.00    +0.000 A 
ATOM     29  N   UNL     1       3.632   5.524  18.741  0.00  0.00    +0.000 N 
BRANCH  20  30
ATOM     30  C   UNL     1       6.105   5.527  19.238  0.00  0.00    +0.000 C 
BRANCH  30  32
ATOM     31  C   UNL     1       6.306   4.531  16.901  0.00  0.00    +0.000 C 
ATOM     32  C   UNL     1       6.966   5.411  17.966  0.00  0.00    +0.000 C 
ATOM     33  C   UNL     1       7.275   6.794  17.384  0.00  0.00    +0.000 C 
ENDBRANCH  30  32
ENDBRANCH  20  30
ENDBRANCH  19  29
ENDBRANCH   1  19
TORSDOF 6
ENDMDL
MODEL 4
REMARK VINA RESULT:      -9.1      1.500      2.089
REMARK  Name = 
REMARK  8 active torsions:
REMARK  status: ('A' for Active; 'I' for Inactive)
REMARK    1  A    between atoms: C_1  and  C_2
REMARK    2  A    between atoms: C_2  and  C_3
REMARK    3  A    between atoms: C_2  and  C_4
REMARK    4  A    between atoms: C_4  and  N_5
REMARK    5  A    between atoms: N_14  and  C_15
REMARK    6  A    between atoms: C_15  and  C_16
REMARK    7  A    between atoms: C_19  and  C_20
REMARK    8  A    between atoms: C_25  and  C_26
REMARK                            x       y       z     vdW  Elec       q    Type
REMARK                         _______ _______ _______ _____ _____    ______ ____
ROOT
ATOM      1  C   UNL     1       2.375   7.574  18.796  0.00  0.00    +0.000 A 
ATOM      2  C   UNL     1       1.843   8.720  18.195  0.00  0.00    +0.000 A 
ATOM      3  C   UNL     1       1.080   9.630  18.935  0.00  0.00    +0.000 A 
ATOM      4  C   UNL     1       0.891   9.476  20.317  0.00  0.00    +0.000 A 
ATOM      5  C   UNL     1       1.427   8.316  20.908  0.00  0.00    +0.000 A 
ATOM      6  C   UNL     1       2.149   7.377  20.162  0.00  0.00    +0.000 A 
ENDROOT
BRANCH   4   7
ATOM      7  C   UNL     1       0.176  10.488  21.141  0.00  0.00    +0.000 A 
ATOM      8  C   UNL     1      -0.549  10.036  22.270  0.00  0.00    +0.000 A 
ATOM      9  C   UNL     1      -1.234  10.911  23.117  0.00  0.00    +0.000 A 
ATOM     10  C   UNL     1      -1.249  12.269  22.838  0.00  0.00    +0.000 A 
ATOM     11  C   UNL     1      -0.563  12.748  21.724  0.00  0.00    +0.000 A 
ATOM     12  C   UNL     1       0.173  11.885  20.881  0.00  0.00    +0.000 A 
BRANCH  12  13
ATOM     13  C   UNL     1       0.928  12.508  19.793  0.00  0.00    +0.000 A 
ATOM     14  N   UNL     1       2.251  12.876  19.888  0.00  0.00    +0.000 NA
ATOM     15  N   UNL     1       2.602  13.374  18.713  0.00  0.00    +0.000 NA
ATOM     16  N   UNL     1       1.484  13.334  17.986  0.00  0.00    +0.000 N 
ATOM     17  N   UNL     1       0.404  12.816  18.589  0.00  0.00    +0.000 NA
ATOM     18  H   UNL     1       1.459  13.681  17.031  0.00  0.00    +0.000 HD
ENDBRANCH  12  13
ENDBRANCH   4   7
BRANCH   1  19
ATOM     19  C   UNL     1       3.235   6.602  18.013  0.00  0.00    +0.000 C 
BRANCH  19  29
ATOM     20  N   UNL     1       4.731   4.829  19.048  0.00  0.00    +0.000 N 
ATOM     21  C   UNL     1       4.585   3.501  19.430  0.00  0.00    +0.000 A 
ATOM     22  O   UNL     1       5.421   2.719  19.839  0.00  0.00    +0.000 OA
ATOM     23  C   UNL     1       3.182   3.163  19.183  0.00  0.00    +0.000 A 
ATOM     24  C   UNL     1       2.519   1.962  19.259  0.00  0.00    +0.000 A 
ATOM     25  C   UNL     1       1.201   1.958  18.816  0.00  0.00    +0.000 A 
ATOM     26  C   UNL     1       0.655   3.148  18.323  0.00  0.00    +0.000 A 
ATOM     27  N   UNL     1       1.311   4.339  18.267  0.00  0.00    +0.000 NA
ATOM     28  C   UNL     1       2.576   4.328  18.725  0.00  0.00    +0.000 A 
ATOM     29  N   UNL     1       3.466   5.420  18.818  0.00  0.00    +0.000 N 
BRANCH  20  30
ATOM     30  C   UNL     1       5.963   5.585  19.127  0.00  0.00    +0.000 C 
BRANCH  30  32
ATOM     31  C   UNL     1       7.371   7.037  17.576  0.00  0.00    +0.000 C 
ATOM     32  C   UNL     1       6.647   5.699  17.750  0.00  0.00    +0.000 C 
ATOM     33  C   UNL     1       7.624   4.541  17.524  0.00  0.00    +0.000 C 
ENDBRANCH  30  32
ENDBRANCH  20  30
ENDBRANCH  19  29
ENDBRANCH   1  19
TORSDOF 6
ENDMDL
MODEL 5
REMARK VINA RESULT:      -8.9      3.352      8.852
REMARK  Name = 
REMARK  8 active torsions:
REMARK  status: ('A' for Active; 'I' for Inactive)
REMARK    1  A    between atoms: C_1  and  C_2
REMARK    2  A    between atoms: C_2  and  C_3
REMARK    3  A    between atoms: C_2  and  C_4
REMARK    4  A    between atoms: C_4  and  N_5
REMARK    5  A    between atoms: N_14  and  C_15
REMARK    6  A    between atoms: C_15  and  C_16
REMARK    7  A    between atoms: C_19  and  C_20
REMARK    8  A    between atoms: C_25  and  C_26
REMARK                            x       y       z     vdW  Elec       q    Type
REMARK                         _______ _______ _______ _____ _____    ______ ____
ROOT
ATOM      1  C   UNL     1       1.360   9.368  18.796  0.00  0.00    +0.000 A 
ATOM      2  C   UNL     1       1.924   8.679  17.717  0.00  0.00    +0.000 A 
ATOM      3  C   UNL     1       2.543   7.438  17.905  0.00  0.00    +0.000 A 
ATOM      4  C   UNL     1       2.547   6.801  19.156  0.00  0.00    +0.000 A 
ATOM      5  C   UNL     1       1.980   7.509  20.233  0.00  0.00    +0.000 A 
ATOM      6  C   UNL     1       1.404   8.772  20.060  0.00  0.00    +0.000 A 
ENDROOT
BRANCH   4   7
ATOM      7  C   UNL     1       3.104   5.435  19.352  0.00  0.00    +0.000 A 
ATOM      8  C   UNL     1       2.438   4.567  20.251  0.00  0.00    +0.000 A 
ATOM      9  C   UNL     1       2.870   3.259  20.486  0.00  0.00    +0.000 A 
ATOM     10  C   UNL     1       4.010   2.788  19.854  0.00  0.00    +0.000 A 
ATOM     11  C   UNL     1       4.703   3.620  18.976  0.00  0.00    +0.000 A 
ATOM     12  C   UNL     1       4.257   4.930  18.692  0.00  0.00    +0.000 A 
BRANCH  12  13
ATOM     13  C   UNL     1       5.010   5.682  17.688  0.00  0.00    +0.000 A 
ATOM     14  N   UNL     1       4.811   5.565  16.331  0.00  0.00    +0.000 NA
ATOM     15  N   UNL     1       5.641   6.411  15.741  0.00  0.00    +0.000 NA
ATOM     16  N   UNL     1       6.330   6.956  16.744  0.00  0.00    +0.000 N 
ATOM     17  N   UNL     1       6.000   6.551  17.979  0.00  0.00    +0.000 NA
ATOM     18  H   UNL     1       7.065   7.637  16.575  0.00  0.00    +0.000 HD
ENDBRANCH  12  13
ENDBRANCH   4   7
BRANCH   1  19
ATOM     19  C   UNL     1       0.652  10.694  18.597  0.00  0.00    +0.000 C 
BRANCH  19  29
ATOM     20  N   UNL     1       0.179  12.117  20.648  0.00  0.00    +0.000 N 
ATOM     21  C   UNL     1       0.702  13.282  21.196  0.00  0.00    +0.000 A 
ATOM     22  O   UNL     1       0.320  13.923  22.155  0.00  0.00    +0.000 OA
ATOM     23  C   UNL     1       1.822  13.664  20.334  0.00  0.00    +0.000 A 
ATOM     24  C   UNL     1       2.610  14.789  20.329  0.00  0.00    +0.000 A 
ATOM     25  C   UNL     1       3.507  14.907  19.273  0.00  0.00    +0.000 A 
ATOM     26  C   UNL     1       3.537  13.900  18.302  0.00  0.00    +0.000 A 
ATOM     27  N   UNL     1       2.767  12.778  18.322  0.00  0.00    +0.000 NA
ATOM     28  C   UNL     1       1.924  12.670  19.366  0.00  0.00    +0.000 A 
ATOM     29  N   UNL     1       1.046  11.603  19.655  0.00  0.00    +0.000 N 
BRANCH  20  30
ATOM     30  C   UNL     1      -0.946  11.379  21.185  0.00  0.00    +0.000 C 
BRANCH  30  32
ATOM     31  C   UNL     1      -2.156  11.677  23.409  0.00  0.00    +0.000 C 
ATOM     32  C   UNL     1      -0.858  11.249  22.718  0.00  0.00    +0.000 C 
ATOM     33  C   UNL     1      -0.493   9.819  23.128  0.00  0.00    +0.000 C 
ENDBRANCH  30  32
ENDBRANCH  20  30
ENDBRANCH  19  29
ENDBRANCH   1  19
TORSDOF 6
ENDMDL
MODEL 6
REMARK VINA RESULT:      -8.9      2.995      8.900
REMARK  Name = 
REMARK  8 active torsions:
REMARK  status: ('A' for Active; 'I' for Inactive)
REMARK    1  A    between atoms: C_1  and  C_2
REMARK    2  A    between atoms: C_2  and  C_3
REMARK    3  A    between atoms: C_2  and  C_4
REMARK    4  A    between atoms: C_4  and  N_5
REMARK    5  A    between atoms: N_14  and  C_15
REMARK    6  A    between atoms: C_15  and  C_16
REMARK    7  A    between atoms: C_19  and  C_20
REMARK    8  A    between atoms: C_25  and  C_26
REMARK                            x       y       z     vdW  Elec       q    Type
REMARK                         _______ _______ _______ _____ _____    ______ ____
ROOT
ATOM      1  C   UNL     1       1.678   9.181  18.838  0.00  0.00    +0.000 A 
ATOM      2  C   UNL     1       2.116   8.250  17.890  0.00  0.00    +0.000 A 
ATOM      3  C   UNL     1       2.380   6.925  18.257  0.00  0.00    +0.000 A 
ATOM      4  C   UNL     1       2.136   6.461  19.558  0.00  0.00    +0.000 A 
ATOM      5  C   UNL     1       1.701   7.410  20.502  0.00  0.00    +0.000 A 
ATOM      6  C   UNL     1       1.483   8.747  20.153  0.00  0.00    +0.000 A 
ENDROOT
BRANCH   4   7
ATOM      7  C   UNL     1       2.307   5.032  19.939  0.00  0.00    +0.000 A 
ATOM      8  C   UNL     1       1.230   4.383  20.589  0.00  0.00    +0.000 A 
ATOM      9  C   UNL     1       1.285   3.038  20.965  0.00  0.00    +0.000 A 
ATOM     10  C   UNL     1       2.440   2.307  20.737  0.00  0.00    +0.000 A 
ATOM     11  C   UNL     1       3.529   2.919  20.117  0.00  0.00    +0.000 A 
ATOM     12  C   UNL     1       3.476   4.264  19.688  0.00  0.00    +0.000 A 
BRANCH  12  13
ATOM     13  C   UNL     1       4.643   4.775  18.969  0.00  0.00    +0.000 A 
ATOM     14  N   UNL     1       4.869   4.570  17.626  0.00  0.00    +0.000 NA
ATOM     15  N   UNL     1       5.993   5.198  17.320  0.00  0.00    +0.000 NA
ATOM     16  N   UNL     1       6.419   5.704  18.479  0.00  0.00    +0.000 N 
ATOM     17  N   UNL     1       5.638   5.479  19.545  0.00  0.00    +0.000 NA
ATOM     18  H   UNL     1       7.288   6.226  18.542  0.00  0.00    +0.000 HD
ENDBRANCH  12  13
ENDBRANCH   4   7
BRANCH   1  19
ATOM     19  C   UNL     1       1.351  10.609  18.445  0.00  0.00    +0.000 C 
BRANCH  19  29
ATOM     20  N   UNL     1      -0.873  11.342  19.427  0.00  0.00    +0.000 N 
ATOM     21  C   UNL     1      -1.300  12.344  20.291  0.00  0.00    +0.000 A 
ATOM     22  O   UNL     1      -2.429  12.650  20.620  0.00  0.00    +0.000 OA
ATOM     23  C   UNL     1      -0.090  13.049  20.718  0.00  0.00    +0.000 A 
ATOM     24  C   UNL     1       0.069  14.193  21.463  0.00  0.00    +0.000 A 
ATOM     25  C   UNL     1       1.366  14.682  21.568  0.00  0.00    +0.000 A 
ATOM     26  C   UNL     1       2.396  14.000  20.913  0.00  0.00    +0.000 A 
ATOM     27  N   UNL     1       2.235  12.857  20.191  0.00  0.00    +0.000 NA
ATOM     28  C   UNL     1       0.977  12.385  20.124  0.00  0.00    +0.000 A 
ATOM     29  N   UNL     1       0.534  11.209  19.480  0.00  0.00    +0.000 N 
BRANCH  20  30
ATOM     30  C   UNL     1      -1.741  10.389  18.768  0.00  0.00    +0.000 C 
BRANCH  30  32
ATOM     31  C   UNL     1      -2.307   9.986  16.315  0.00  0.00    +0.000 C 
ATOM     32  C   UNL     1      -2.355  10.977  17.482  0.00  0.00    +0.000 C 
ATOM     33  C   UNL     1      -3.796  11.436  17.721  0.00  0.00    +0.000 C 
ENDBRANCH  30  32
ENDBRANCH  20  30
ENDBRANCH  19  29
ENDBRANCH   1  19
TORSDOF 6
ENDMDL
MODEL 7
REMARK VINA RESULT:      -8.7      2.411      4.260
REMARK  Name = 
REMARK  8 active torsions:
REMARK  status: ('A' for Active; 'I' for Inactive)
REMARK    1  A    between atoms: C_1  and  C_2
REMARK    2  A    between atoms: C_2  and  C_3
REMARK    3  A    between atoms: C_2  and  C_4
REMARK    4  A    between atoms: C_4  and  N_5
REMARK    5  A    between atoms: N_14  and  C_15
REMARK    6  A    between atoms: C_15  and  C_16
REMARK    7  A    between atoms: C_19  and  C_20
REMARK    8  A    between atoms: C_25  and  C_26
REMARK                            x       y       z     vdW  Elec       q    Type
REMARK                         _______ _______ _______ _____ _____    ______ ____
ROOT
ATOM      1  C   UNL     1       2.832   7.504  18.920  0.00  0.00    +0.000 A 
ATOM      2  C   UNL     1       2.547   8.159  17.717  0.00  0.00    +0.000 A 
ATOM      3  C   UNL     1       1.444   9.014  17.610  0.00  0.00    +0.000 A 
ATOM      4  C   UNL     1       0.636   9.312  18.717  0.00  0.00    +0.000 A 
ATOM      5  C   UNL     1       0.931   8.642  19.920  0.00  0.00    +0.000 A 
ATOM      6  C   UNL     1       2.003   7.748  20.020  0.00  0.00    +0.000 A 
ENDROOT
BRANCH   4   7
ATOM      7  C   UNL     1      -0.474  10.301  18.649  0.00  0.00    +0.000 A 
ATOM      8  C   UNL     1      -1.725   9.864  18.147  0.00  0.00    +0.000 A 
ATOM      9  C   UNL     1      -2.833  10.711  18.064  0.00  0.00    +0.000 A 
ATOM     10  C   UNL     1      -2.716  12.038  18.448  0.00  0.00    +0.000 A 
ATOM     11  C   UNL     1      -1.495  12.508  18.929  0.00  0.00    +0.000 A 
ATOM     12  C   UNL     1      -0.375  11.656  19.063  0.00  0.00    +0.000 A 
BRANCH  12  13
ATOM     13  C   UNL     1       0.827  12.234  19.663  0.00  0.00    +0.000 A 
ATOM     14  N   UNL     1       1.085  12.238  21.015  0.00  0.00    +0.000 NA
ATOM     15  N   UNL     1       2.267  12.812  21.185  0.00  0.00    +0.000 NA
ATOM     16  N   UNL     1       2.643  13.170  19.956  0.00  0.00    +0.000 N 
ATOM     17  N   UNL     1       1.801  12.851  18.962  0.00  0.00    +0.000 NA
ATOM     18  H   UNL     1       3.518  13.660  19.791  0.00  0.00    +0.000 HD
ENDBRANCH  12  13
ENDBRANCH   4   7
BRANCH   1  19
ATOM     19  C   UNL     1       4.046   6.607  19.059  0.00  0.00    +0.000 C 
BRANCH  19  29
ATOM     20  N   UNL     1       3.712   4.153  18.494  0.00  0.00    +0.000 N 
ATOM     21  C   UNL     1       4.113   3.302  17.471  0.00  0.00    +0.000 A 
ATOM     22  O   UNL     1       3.958   2.102  17.361  0.00  0.00    +0.000 OA
ATOM     23  C   UNL     1       4.852   4.135  16.521  0.00  0.00    +0.000 A 
ATOM     24  C   UNL     1       5.574   3.799  15.401  0.00  0.00    +0.000 A 
ATOM     25  C   UNL     1       6.282   4.830  14.794  0.00  0.00    +0.000 A 
ATOM     26  C   UNL     1       6.223   6.108  15.358  0.00  0.00    +0.000 A 
ATOM     27  N   UNL     1       5.491   6.440  16.456  0.00  0.00    +0.000 NA
ATOM     28  C   UNL     1       4.792   5.434  17.014  0.00  0.00    +0.000 A 
ATOM     29  N   UNL     1       3.928   5.503  18.128  0.00  0.00    +0.000 N 
BRANCH  20  30
ATOM     30  C   UNL     1       2.941   3.753  19.653  0.00  0.00    +0.000 C 
BRANCH  30  32
ATOM     31  C   UNL     1       0.836   2.478  18.990  0.00  0.00    +0.000 C 
ATOM     32  C   UNL     1       1.426   3.836  19.381  0.00  0.00    +0.000 C 
ATOM     33  C   UNL     1       0.681   4.401  20.594  0.00  0.00    +0.000 C 
ENDBRANCH  30  32
ENDBRANCH  20  30
ENDBRANCH  19  29
ENDBRANCH   1  19
TORSDOF 6
ENDMDL
MODEL 8
REMARK VINA RESULT:      -8.7      3.047      8.317
REMARK  Name = 
REMARK  8 active torsions:
REMARK  status: ('A' for Active; 'I' for Inactive)
REMARK    1  A    between atoms: C_1  and  C_2
REMARK    2  A    between atoms: C_2  and  C_3
REMARK    3  A    between atoms: C_2  and  C_4
REMARK    4  A    between atoms: C_4  and  N_5
REMARK    5  A    between atoms: N_14  and  C_15
REMARK    6  A    between atoms: C_15  and  C_16
REMARK    7  A    between atoms: C_19  and  C_20
REMARK    8  A    between atoms: C_25  and  C_26
REMARK                            x       y       z     vdW  Elec       q    Type
REMARK                         _______ _______ _______ _____ _____    ______ ____
ROOT
ATOM      1  C   UNL     1       1.428   8.729  19.495  0.00  0.00    +0.000 A 
ATOM      2  C   UNL     1       1.898   7.576  20.132  0.00  0.00    +0.000 A 
ATOM      3  C   UNL     1       2.710   6.661  19.451  0.00  0.00    +0.000 A 
ATOM      4  C   UNL     1       3.150   6.904  18.141  0.00  0.00    +0.000 A 
ATOM      5  C   UNL     1       2.664   8.065  17.511  0.00  0.00    +0.000 A 
ATOM      6  C   UNL     1       1.812   8.958  18.170  0.00  0.00    +0.000 A 
ENDROOT
BRANCH   4   7
ATOM      7  C   UNL     1       4.099   5.998  17.440  0.00  0.00    +0.000 A 
ATOM      8  C   UNL     1       5.254   6.569  16.851  0.00  0.00    +0.000 A 
ATOM      9  C   UNL     1       6.215   5.800  16.190  0.00  0.00    +0.000 A 
ATOM     10  C   UNL     1       6.032   4.431  16.064  0.00  0.00    +0.000 A 
ATOM     11  C   UNL     1       4.898   3.836  16.614  0.00  0.00    +0.000 A 
ATOM     12  C   UNL     1       3.938   4.591  17.325  0.00  0.00    +0.000 A 
BRANCH  12  13
ATOM     13  C   UNL     1       2.835   3.849  17.937  0.00  0.00    +0.000 A 
ATOM     14  N   UNL     1       1.556   3.816  17.429  0.00  0.00    +0.000 NA
ATOM     15  N   UNL     1       0.843   3.029  18.221  0.00  0.00    +0.000 NA
ATOM     16  N   UNL     1       1.692   2.668  19.184  0.00  0.00    +0.000 N 
ATOM     17  N   UNL     1       2.943   3.140  19.079  0.00  0.00    +0.000 NA
ATOM     18  H   UNL     1       1.400   2.071  19.953  0.00  0.00    +0.000 HD
ENDBRANCH  12  13
ENDBRANCH   4   7
BRANCH   1  19
ATOM     19  C   UNL     1       0.581   9.746  20.235  0.00  0.00    +0.000 C 
BRANCH  19  29
ATOM     20  N   UNL     1       0.263  12.151  19.482  0.00  0.00    +0.000 N 
ATOM     21  C   UNL     1      -0.654  12.836  18.694  0.00  0.00    +0.000 A 
ATOM     22  O   UNL     1      -0.748  14.029  18.480  0.00  0.00    +0.000 OA
ATOM     23  C   UNL     1      -1.582  11.825  18.185  0.00  0.00    +0.000 A 
ATOM     24  C   UNL     1      -2.747  11.952  17.468  0.00  0.00    +0.000 A 
ATOM     25  C   UNL     1      -3.474  10.785  17.263  0.00  0.00    +0.000 A 
ATOM     26  C   UNL     1      -2.987   9.588  17.799  0.00  0.00    +0.000 A 
ATOM     27  N   UNL     1      -1.823   9.465  18.493  0.00  0.00    +0.000 NA
ATOM     28  C   UNL     1      -1.121  10.601  18.658  0.00  0.00    +0.000 A 
ATOM     29  N   UNL     1       0.128  10.754  19.298  0.00  0.00    +0.000 N 
BRANCH  20  30
ATOM     30  C   UNL     1       1.373  12.760  20.184  0.00  0.00    +0.000 C 
BRANCH  30  32
ATOM     31  C   UNL     1       3.423  14.259  19.965  0.00  0.00    +0.000 C 
ATOM     32  C   UNL     1       2.274  13.566  19.227  0.00  0.00    +0.000 C 
ATOM     33  C   UNL     1       2.829  12.673  18.113  0.00  0.00    +0.000 C 
ENDBRANCH  30  32
ENDBRANCH  20  30
ENDBRANCH  19  29
ENDBRANCH   1  19
TORSDOF 6
ENDMDL
MODEL 9
REMARK VINA RESULT:      -8.6      1.876      3.751
REMARK  Name = 
REMARK  8 active torsions:
REMARK  status: ('A' for Active; 'I' for Inactive)
REMARK    1  A    between atoms: C_1  and  C_2
REMARK    2  A    between atoms: C_2  and  C_3
REMARK    3  A    between atoms: C_2  and  C_4
REMARK    4  A    between atoms: C_4  and  N_5
REMARK    5  A    between atoms: N_14  and  C_15
REMARK    6  A    between atoms: C_15  and  C_16
REMARK    7  A    between atoms: C_19  and  C_20
REMARK    8  A    between atoms: C_25  and  C_26
REMARK                            x       y       z     vdW  Elec       q    Type
REMARK                         _______ _______ _______ _____ _____    ______ ____
ROOT
ATOM      1  C   UNL     1       2.205   7.533  19.453  0.00  0.00    +0.000 A 
ATOM      2  C   UNL     1       2.324   8.192  18.225  0.00  0.00    +0.000 A 
ATOM      3  C   UNL     1       1.773   9.465  18.039  0.00  0.00    +0.000 A 
ATOM      4  C   UNL     1       1.159  10.161  19.092  0.00  0.00    +0.000 A 
ATOM      5  C   UNL     1       1.042   9.483  20.320  0.00  0.00    +0.000 A 
ATOM      6  C   UNL     1       1.547   8.190  20.498  0.00  0.00    +0.000 A 
ENDROOT
BRANCH   4   7
ATOM      7  C   UNL     1       0.664  11.556  18.942  0.00  0.00    +0.000 A 
ATOM      8  C   UNL     1       1.527  12.613  19.322  0.00  0.00    +0.000 A 
ATOM      9  C   UNL     1       1.163  13.956  19.199  0.00  0.00    +0.000 A 
ATOM     10  C   UNL     1      -0.098  14.287  18.725  0.00  0.00    +0.000 A 
ATOM     11  C   UNL     1      -0.982  13.272  18.360  0.00  0.00    +0.000 A 
ATOM     12  C   UNL     1      -0.616  11.910  18.435  0.00  0.00    +0.000 A 
BRANCH  12  13
ATOM     13  C   UNL     1      -1.589  10.935  17.941  0.00  0.00    +0.000 A 
ATOM     14  N   UNL     1      -1.936  10.800  16.616  0.00  0.00    +0.000 NA
ATOM     15  N   UNL     1      -2.811   9.809  16.542  0.00  0.00    +0.000 NA
ATOM     16  N   UNL     1      -2.991   9.428  17.808  0.00  0.00    +0.000 N 
ATOM     17  N   UNL     1      -2.272  10.082  18.731  0.00  0.00    +0.000 NA
ATOM     18  H   UNL     1      -3.640   8.685  18.051  0.00  0.00    +0.000 HD
ENDBRANCH  12  13
ENDBRANCH   4   7
BRANCH   1  19
ATOM     19  C   UNL     1       2.833   6.171  19.678  0.00  0.00    +0.000 C 
BRANCH  19  29
ATOM     20  N   UNL     1       2.347   4.160  18.204  0.00  0.00    +0.000 N 
ATOM     21  C   UNL     1       2.940   3.572  17.094  0.00  0.00    +0.000 A 
ATOM     22  O   UNL     1       2.654   2.537  16.523  0.00  0.00    +0.000 OA
ATOM     23  C   UNL     1       4.074   4.427  16.742  0.00  0.00    +0.000 A 
ATOM     24  C   UNL     1       5.076   4.259  15.816  0.00  0.00    +0.000 A 
ATOM     25  C   UNL     1       6.094   5.205  15.833  0.00  0.00    +0.000 A 
ATOM     26  C   UNL     1       6.039   6.234  16.779  0.00  0.00    +0.000 A 
ATOM     27  N   UNL     1       5.035   6.406  17.682  0.00  0.00    +0.000 NA
ATOM     28  C   UNL     1       4.046   5.496  17.632  0.00  0.00    +0.000 A 
ATOM     29  N   UNL     1       2.874   5.456  18.419  0.00  0.00    +0.000 N 
BRANCH  20  30
ATOM     30  C   UNL     1       1.177   3.651  18.889  0.00  0.00    +0.000 C 
BRANCH  30  32
ATOM     31  C   UNL     1       3.032   2.252  19.938  0.00  0.00    +0.000 C 
ATOM     32  C   UNL     1       1.562   2.672  20.016  0.00  0.00    +0.000 C 
ATOM     33  C   UNL     1       1.260   3.274  21.392  0.00  0.00    +0.000 C 
ENDBRANCH  30  32
ENDBRANCH  20  30
ENDBRANCH  19  29
ENDBRANCH   1  19
TORSDOF 6
ENDMDL
