MODEL 1
REMARK VINA RESULT:      -7.1      0.000      0.000
REMARK  Name = 
REMARK  8 active torsions:
REMARK  status: ('A' for Active; 'I' for Inactive)
REMARK    1  A    between atoms: C_1  and  N_2
REMARK    2  A    between atoms: N_2  and  C_3
REMARK    3  A    between atoms: N_2  and  C_4
REMARK    4  A    between atoms: C_4  and  C_5
REMARK    5  A    between atoms: C_5  and  N_6
REMARK    6  A    between atoms: C_7  and  C_9
REMARK    7  A    between atoms: C_11  and  C_12
REMARK    8  A    between atoms: N_24  and  C_25
REMARK                            x       y       z     vdW  Elec       q    Type
REMARK                         _______ _______ _______ _____ _____    ______ ____
ROOT
ATOM      1  C   UNL     1       5.066   5.329  16.668  0.00  0.00    +0.000 A 
ATOM      2  C   UNL     1       4.595   6.602  16.960  0.00  0.00    +0.000 A 
ATOM      3  C   UNL     1       3.417   6.496  17.747  0.00  0.00    +0.000 A 
ATOM      4  C   UNL     1       3.186   5.146  17.913  0.00  0.00    +0.000 A 
ATOM      5  N   UNL     1       4.181   4.451  17.265  0.00  0.00    +0.000 N 
ATOM      6  C   UNL     1       4.307   3.008  17.285  0.00  0.00    +0.000 C 
ENDROOT
BRANCH   3   7
ATOM      7  C   UNL     1       2.607   7.552  18.317  0.00  0.00    +0.000 A 
ATOM      8  C   UNL     1       2.200   8.673  17.630  0.00  0.00    +0.000 A 
ATOM      9  N   UNL     1       1.428   9.647  18.161  0.00  0.00    +0.000 NA
ATOM     10  C   UNL     1       1.057   9.529  19.449  0.00  0.00    +0.000 A 
ATOM     11  N   UNL     1       0.262  10.492  20.013  0.00  0.00    +0.000 N 
ATOM     12  C   UNL     1      -0.055  11.712  19.288  0.00  0.00    +0.000 C 
ATOM     13  C   UNL     1       0.182  12.817  20.310  0.00  0.00    +0.000 C 
ATOM     14  C   UNL     1      -0.138  12.149  21.638  0.00  0.00    +0.000 C 
ATOM     15  C   UNL     1       0.356  10.715  21.449  0.00  0.00    +0.000 C 
ATOM     16  N   UNL     1       1.425   8.478  20.205  0.00  0.00    +0.000 NA
ATOM     17  C   UNL     1       2.174   7.519  19.623  0.00  0.00    +0.000 A 
ENDBRANCH   3   7
BRANCH   1  19
ATOM     18  N   UNL     1       5.945   4.608  14.576  0.00  0.00    +0.000 N 
ATOM     19  C   UNL     1       6.226   4.949  15.882  0.00  0.00    +0.000 C 
ATOM     20  O   UNL     1       7.375   4.947  16.318  0.00  0.00    +0.000 OA
ATOM     21  H   UNL     1       5.049   4.871  14.185  0.00  0.00    +0.000 HD
BRANCH  18  22
ATOM     22  C   UNL     1       7.007   4.288  13.647  0.00  0.00    +0.000 C 
BRANCH  22  23
ATOM     23  C   UNL     1       6.503   3.955  12.231  0.00  0.00    +0.000 C 
BRANCH  23  25
ATOM     24  C   UNL     1       4.252   3.333  11.523  0.00  0.00    +0.000 C 
ATOM     25  N   UNL     1       5.486   2.882  12.177  0.00  0.00    +0.000 NA
ATOM     26  C   UNL     1       6.024   1.728  11.444  0.00  0.00    +0.000 C 
ENDBRANCH  23  25
ENDBRANCH  22  23
ENDBRANCH  18  22
ENDBRANCH   1  19
TORSDOF 5
ENDMDL
MODEL 2
REMARK VINA RESULT:      -6.8      2.618      3.618
REMARK  Name = 
REMARK  8 active torsions:
REMARK  status: ('A' for Active; 'I' for Inactive)
REMARK    1  A    between atoms: C_1  and  N_2
REMARK    2  A    between atoms: N_2  and  C_3
REMARK    3  A    between atoms: N_2  and  C_4
REMARK    4  A    between atoms: C_4  and  C_5
REMARK    5  A    between atoms: C_5  and  N_6
REMARK    6  A    between atoms: C_7  and  C_9
REMARK    7  A    between atoms: C_11  and  C_12
REMARK    8  A    between atoms: N_24  and  C_25
REMARK                            x       y       z     vdW  Elec       q    Type
REMARK                         _______ _______ _______ _____ _____    ______ ____
ROOT
ATOM      1  C   UNL     1       3.304   5.053  19.520  0.00  0.00    +0.000 A 
ATOM      2  C   UNL     1       2.956   6.397  19.472  0.00  0.00    +0.000 A 
ATOM      3  C   UNL     1       1.871   6.631  20.358  0.00  0.00    +0.000 A 
ATOM      4  C   UNL     1       1.569   5.411  20.927  0.00  0.00    +0.000 A 
ATOM      5  N   UNL     1       2.434   4.468  20.422  0.00  0.00    +0.000 N 
ATOM      6  C   UNL     1       2.464   3.084  20.847  0.00  0.00    +0.000 C 
ENDROOT
BRANCH   3   7
ATOM      7  C   UNL     1       1.204   7.878  20.667  0.00  0.00    +0.000 A 
ATOM      8  C   UNL     1       1.406   9.055  19.984  0.00  0.00    +0.000 A 
ATOM      9  N   UNL     1       0.767  10.213  20.266  0.00  0.00    +0.000 NA
ATOM     10  C   UNL     1      -0.100  10.223  21.295  0.00  0.00    +0.000 A 
ATOM     11  N   UNL     1      -0.776  11.377  21.597  0.00  0.00    +0.000 N 
ATOM     12  C   UNL     1      -0.453  12.624  20.923  0.00  0.00    +0.000 C 
ATOM     13  C   UNL     1      -0.363  13.640  22.055  0.00  0.00    +0.000 C 
ATOM     14  C   UNL     1      -1.343  13.107  23.089  0.00  0.00    +0.000 C 
ATOM     15  C   UNL     1      -1.202  11.589  22.973  0.00  0.00    +0.000 C 
ATOM     16  N   UNL     1      -0.346   9.125  22.033  0.00  0.00    +0.000 NA
ATOM     17  C   UNL     1       0.297   7.987  21.698  0.00  0.00    +0.000 A 
ENDBRANCH   3   7
BRANCH   1  19
ATOM     18  N   UNL     1       4.328   4.596  17.420  0.00  0.00    +0.000 N 
ATOM     19  C   UNL     1       4.340   4.356  18.778  0.00  0.00    +0.000 C 
ATOM     20  O   UNL     1       5.180   3.628  19.300  0.00  0.00    +0.000 OA
ATOM     21  H   UNL     1       3.805   5.388  17.069  0.00  0.00    +0.000 HD
BRANCH  18  22
ATOM     22  C   UNL     1       5.350   4.040  16.560  0.00  0.00    +0.000 C 
BRANCH  22  23
ATOM     23  C   UNL     1       6.184   5.108  15.830  0.00  0.00    +0.000 C 
BRANCH  23  25
ATOM     24  C   UNL     1       7.164   6.802  17.288  0.00  0.00    +0.000 C 
ATOM     25  N   UNL     1       7.394   5.549  16.559  0.00  0.00    +0.000 NA
ATOM     26  C   UNL     1       7.805   4.508  17.509  0.00  0.00    +0.000 C 
ENDBRANCH  23  25
ENDBRANCH  22  23
ENDBRANCH  18  22
ENDBRANCH   1  19
TORSDOF 5
ENDMDL
MODEL 3
REMARK VINA RESULT:      -6.8      2.591      3.821
REMARK  Name = 
REMARK  8 active torsions:
REMARK  status: ('A' for Active; 'I' for Inactive)
REMARK    1  A    between atoms: C_1  and  N_2
REMARK    2  A    between atoms: N_2  and  C_3
REMARK    3  A    between atoms: N_2  and  C_4
REMARK    4  A    between atoms: C_4  and  C_5
REMARK    5  A    between atoms: C_5  and  N_6
REMARK    6  A    between atoms: C_7  and  C_9
REMARK    7  A    between atoms: C_11  and  C_12
REMARK    8  A    between atoms: N_24  and  C_25
REMARK                            x       y       z     vdW  Elec       q    Type
REMARK                         _______ _______ _______ _____ _____    ______ ____
ROOT
ATOM      1  C   UNL     1       3.297   5.425  19.534  0.00  0.00    +0.000 A 
ATOM      2  C   UNL     1       3.029   6.786  19.448  0.00  0.00    +0.000 A 
ATOM      3  C   UNL     1       1.941   7.103  20.305  0.00  0.00    +0.000 A 
ATOM      4  C   UNL     1       1.557   5.916  20.894  0.00  0.00    +0.000 A 
ATOM      5  N   UNL     1       2.377   4.913  20.429  0.00  0.00    +0.000 N 
ATOM      6  C   UNL     1       2.317   3.540  20.886  0.00  0.00    +0.000 C 
ENDROOT
BRANCH   3   7
ATOM      7  C   UNL     1       1.342   8.393  20.572  0.00  0.00    +0.000 A 
ATOM      8  C   UNL     1       1.026   8.855  21.829  0.00  0.00    +0.000 A 
ATOM      9  N   UNL     1       0.484  10.069  22.075  0.00  0.00    +0.000 NA
ATOM     10  C   UNL     1       0.209  10.864  21.025  0.00  0.00    +0.000 A 
ATOM     11  N   UNL     1      -0.328  12.106  21.242  0.00  0.00    +0.000 N 
ATOM     12  C   UNL     1      -0.747  12.512  22.574  0.00  0.00    +0.000 C 
ATOM     13  C   UNL     1      -2.125  13.125  22.353  0.00  0.00    +0.000 C 
ATOM     14  C   UNL     1      -2.039  13.697  20.946  0.00  0.00    +0.000 C 
ATOM     15  C   UNL     1      -1.160  12.692  20.201  0.00  0.00    +0.000 C 
ATOM     16  N   UNL     1       0.463  10.488  19.759  0.00  0.00    +0.000 NA
ATOM     17  C   UNL     1       1.029   9.278  19.565  0.00  0.00    +0.000 A 
ENDBRANCH   3   7
BRANCH   1  19
ATOM     18  N   UNL     1       4.250   4.760  17.456  0.00  0.00    +0.000 N 
ATOM     19  C   UNL     1       4.305   4.653  18.830  0.00  0.00    +0.000 C 
ATOM     20  O   UNL     1       5.160   3.973  19.393  0.00  0.00    +0.000 OA
ATOM     21  H   UNL     1       3.719   5.518  17.047  0.00  0.00    +0.000 HD
BRANCH  18  22
ATOM     22  C   UNL     1       5.241   4.116  16.622  0.00  0.00    +0.000 C 
BRANCH  22  23
ATOM     23  C   UNL     1       6.118   5.107  15.836  0.00  0.00    +0.000 C 
BRANCH  23  25
ATOM     24  C   UNL     1       7.153   6.786  17.275  0.00  0.00    +0.000 C 
ATOM     25  N   UNL     1       7.349   5.531  16.539  0.00  0.00    +0.000 NA
ATOM     26  C   UNL     1       7.767   4.483  17.479  0.00  0.00    +0.000 C 
ENDBRANCH  23  25
ENDBRANCH  22  23
ENDBRANCH  18  22
ENDBRANCH   1  19
TORSDOF 5
ENDMDL
MODEL 4
REMARK VINA RESULT:      -6.8      0.991      1.730
REMARK  Name = 
REMARK  8 active torsions:
REMARK  status: ('A' for Active; 'I' for Inactive)
REMARK    1  A    between atoms: C_1  and  N_2
REMARK    2  A    between atoms: N_2  and  C_3
REMARK    3  A    between atoms: N_2  and  C_4
REMARK    4  A    between atoms: C_4  and  C_5
REMARK    5  A    between atoms: C_5  and  N_6
REMARK    6  A    between atoms: C_7  and  C_9
REMARK    7  A    between atoms: C_11  and  C_12
REMARK    8  A    between atoms: N_24  and  C_25
REMARK                            x       y       z     vdW  Elec       q    Type
REMARK                         _______ _______ _______ _____ _____    ______ ____
ROOT
ATOM      1  C   UNL     1       4.403   5.541  17.223  0.00  0.00    +0.000 A 
ATOM      2  C   UNL     1       4.083   6.870  17.468  0.00  0.00    +0.000 A 
ATOM      3  C   UNL     1       2.872   6.931  18.207  0.00  0.00    +0.000 A 
ATOM      4  C   UNL     1       2.469   5.624  18.393  0.00  0.00    +0.000 A 
ATOM      5  N   UNL     1       3.394   4.794  17.802  0.00  0.00    +0.000 N 
ATOM      6  C   UNL     1       3.340   3.348  17.859  0.00  0.00    +0.000 C 
ENDROOT
BRANCH   3   7
ATOM      7  C   UNL     1       2.178   8.093  18.720  0.00  0.00    +0.000 A 
ATOM      8  C   UNL     1       1.628   8.174  19.979  0.00  0.00    +0.000 A 
ATOM      9  N   UNL     1       0.997   9.269  20.459  0.00  0.00    +0.000 NA
ATOM     10  C   UNL     1       0.873  10.335  19.648  0.00  0.00    +0.000 A 
ATOM     11  N   UNL     1       0.251  11.466  20.110  0.00  0.00    +0.000 N 
ATOM     12  C   UNL     1      -0.411  11.473  21.405  0.00  0.00    +0.000 C 
ATOM     13  C   UNL     1      -1.755  12.133  21.125  0.00  0.00    +0.000 C 
ATOM     14  C   UNL     1      -1.452  13.086  19.979  0.00  0.00    +0.000 C 
ATOM     15  C   UNL     1      -0.413  12.334  19.148  0.00  0.00    +0.000 C 
ATOM     16  N   UNL     1       1.361  10.340  18.394  0.00  0.00    +0.000 NA
ATOM     17  C   UNL     1       2.005   9.234  17.968  0.00  0.00    +0.000 A 
ENDBRANCH   3   7
BRANCH   1  19
ATOM     18  N   UNL     1       5.477   5.180  15.129  0.00  0.00    +0.000 N 
ATOM     19  C   UNL     1       5.537   5.000  16.495  0.00  0.00    +0.000 C 
ATOM     20  O   UNL     1       6.492   4.445  17.033  0.00  0.00    +0.000 OA
ATOM     21  H   UNL     1       4.826   5.859  14.755  0.00  0.00    +0.000 HD
BRANCH  18  22
ATOM     22  C   UNL     1       6.573   4.770  14.278  0.00  0.00    +0.000 C 
BRANCH  22  23
ATOM     23  C   UNL     1       6.338   3.416  13.586  0.00  0.00    +0.000 C 
BRANCH  23  25
ATOM     24  C   UNL     1       6.975   2.478  11.425  0.00  0.00    +0.000 C 
ATOM     25  N   UNL     1       6.175   3.495  12.117  0.00  0.00    +0.000 NA
ATOM     26  C   UNL     1       4.760   3.314  11.767  0.00  0.00    +0.000 C 
ENDBRANCH  23  25
ENDBRANCH  22  23
ENDBRANCH  18  22
ENDBRANCH   1  19
TORSDOF 5
ENDMDL
MODEL 5
REMARK VINA RESULT:      -6.7      1.416      1.794
REMARK  Name = 
REMARK  8 active torsions:
REMARK  status: ('A' for Active; 'I' for Inactive)
REMARK    1  A    between atoms: C_1  and  N_2
REMARK    2  A    between atoms: N_2  and  C_3
REMARK    3  A    between atoms: N_2  and  C_4
REMARK    4  A    between atoms: C_4  and  C_5
REMARK    5  A    between atoms: C_5  and  N_6
REMARK    6  A    between atoms: C_7  and  C_9
REMARK    7  A    between atoms: C_11  and  C_12
REMARK    8  A    between atoms: N_24  and  C_25
REMARK                            x       y       z     vdW  Elec       q    Type
REMARK                         _______ _______ _______ _____ _____    ______ ____
ROOT
ATOM      1  C   UNL     1       4.373   5.183  18.473  0.00  0.00    +0.000 A 
ATOM      2  C   UNL     1       3.815   6.455  18.498  0.00  0.00    +0.000 A 
ATOM      3  C   UNL     1       2.774   6.490  19.463  0.00  0.00    +0.000 A 
ATOM      4  C   UNL     1       2.711   5.224  20.007  0.00  0.00    +0.000 A 
ATOM      5  N   UNL     1       3.675   4.444  19.410  0.00  0.00    +0.000 N 
ATOM      6  C   UNL     1       3.953   3.072  19.782  0.00  0.00    +0.000 C 
ENDROOT
BRANCH   3   7
ATOM      7  C   UNL     1       1.944   7.607  19.864  0.00  0.00    +0.000 A 
ATOM      8  C   UNL     1       1.758   8.743  19.110  0.00  0.00    +0.000 A 
ATOM      9  N   UNL     1       0.966   9.775  19.480  0.00  0.00    +0.000 NA
ATOM     10  C   UNL     1       0.343   9.699  20.670  0.00  0.00    +0.000 A 
ATOM     11  N   UNL     1      -0.478  10.722  21.068  0.00  0.00    +0.000 N 
ATOM     12  C   UNL     1      -0.561  11.951  20.294  0.00  0.00    +0.000 C 
ATOM     13  C   UNL     1      -0.453  13.051  21.343  0.00  0.00    +0.000 C 
ATOM     14  C   UNL     1      -1.071  12.424  22.583  0.00  0.00    +0.000 C 
ATOM     15  C   UNL     1      -0.650  10.957  22.495  0.00  0.00    +0.000 C 
ATOM     16  N   UNL     1       0.483   8.637  21.484  0.00  0.00    +0.000 NA
ATOM     17  C   UNL     1       1.263   7.621  21.060  0.00  0.00    +0.000 A 
ENDBRANCH   3   7
BRANCH   1  19
ATOM     18  N   UNL     1       5.032   4.116  16.449  0.00  0.00    +0.000 N 
ATOM     19  C   UNL     1       5.448   4.680  17.637  0.00  0.00    +0.000 C 
ATOM     20  O   UNL     1       6.637   4.760  17.933  0.00  0.00    +0.000 OA
ATOM     21  H   UNL     1       4.092   4.303  16.124  0.00  0.00    +0.000 HD
BRANCH  18  22
ATOM     22  C   UNL     1       5.992   3.647  15.474  0.00  0.00    +0.000 C 
BRANCH  22  23
ATOM     23  C   UNL     1       5.935   4.414  14.140  0.00  0.00    +0.000 C 
BRANCH  23  25
ATOM     24  C   UNL     1       4.991   3.334  12.166  0.00  0.00    +0.000 C 
ATOM     25  N   UNL     1       6.209   3.589  12.943  0.00  0.00    +0.000 NA
ATOM     26  C   UNL     1       7.191   4.269  12.089  0.00  0.00    +0.000 C 
ENDBRANCH  23  25
ENDBRANCH  22  23
ENDBRANCH  18  22
ENDBRANCH   1  19
TORSDOF 5
ENDMDL
MODEL 6
REMARK VINA RESULT:      -6.7      1.149      1.396
REMARK  Name = 
REMARK  8 active torsions:
REMARK  status: ('A' for Active; 'I' for Inactive)
REMARK    1  A    between atoms: C_1  and  N_2
REMARK    2  A    between atoms: N_2  and  C_3
REMARK    3  A    between atoms: N_2  and  C_4
REMARK    4  A    between atoms: C_4  and  C_5
REMARK    5  A    between atoms: C_5  and  N_6
REMARK    6  A    between atoms: C_7  and  C_9
REMARK    7  A    between atoms: C_11  and  C_12
REMARK    8  A    between atoms: N_24  and  C_25
REMARK                            x       y       z     vdW  Elec       q    Type
REMARK                         _______ _______ _______ _____ _____    ______ ____
ROOT
ATOM      1  C   UNL     1       4.862   6.027  17.277  0.00  0.00    +0.000 A 
ATOM      2  C   UNL     1       4.041   7.126  17.496  0.00  0.00    +0.000 A 
ATOM      3  C   UNL     1       3.231   6.884  18.636  0.00  0.00    +0.000 A 
ATOM      4  C   UNL     1       3.569   5.625  19.089  0.00  0.00    +0.000 A 
ATOM      5  N   UNL     1       4.551   5.117  18.270  0.00  0.00    +0.000 N 
ATOM      6  C   UNL     1       5.206   3.843  18.483  0.00  0.00    +0.000 C 
ENDROOT
BRANCH   3   7
ATOM      7  C   UNL     1       2.260   7.757  19.262  0.00  0.00    +0.000 A 
ATOM      8  C   UNL     1       1.747   8.891  18.677  0.00  0.00    +0.000 A 
ATOM      9  N   UNL     1       0.826   9.693  19.258  0.00  0.00    +0.000 NA
ATOM     10  C   UNL     1       0.405   9.378  20.497  0.00  0.00    +0.000 A 
ATOM     11  N   UNL     1      -0.539  10.161  21.108  0.00  0.00    +0.000 N 
ATOM     12  C   UNL     1      -0.973  11.410  20.502  0.00  0.00    +0.000 C 
ATOM     13  C   UNL     1      -0.939  12.407  21.654  0.00  0.00    +0.000 C 
ATOM     14  C   UNL     1      -1.240  11.552  22.875  0.00  0.00    +0.000 C 
ATOM     15  C   UNL     1      -0.552  10.222  22.563  0.00  0.00    +0.000 C 
ATOM     16  N   UNL     1       0.866   8.299  21.156  0.00  0.00    +0.000 NA
ATOM     17  C   UNL     1       1.765   7.516  20.525  0.00  0.00    +0.000 A 
ENDBRANCH   3   7
BRANCH   1  19
ATOM     18  N   UNL     1       5.362   5.130  15.129  0.00  0.00    +0.000 N 
ATOM     19  C   UNL     1       5.839   5.820  16.223  0.00  0.00    +0.000 C 
ATOM     20  O   UNL     1       6.994   6.237  16.271  0.00  0.00    +0.000 OA
ATOM     21  H   UNL     1       4.361   5.037  15.009  0.00  0.00    +0.000 HD
BRANCH  18  22
ATOM     22  C   UNL     1       6.193   4.920  13.963  0.00  0.00    +0.000 C 
BRANCH  22  23
ATOM     23  C   UNL     1       6.211   3.459  13.479  0.00  0.00    +0.000 C 
BRANCH  23  25
ATOM     24  C   UNL     1       6.359   1.965  11.554  0.00  0.00    +0.000 C 
ATOM     25  N   UNL     1       5.935   3.285  12.035  0.00  0.00    +0.000 NA
ATOM     26  C   UNL     1       4.498   3.450  11.784  0.00  0.00    +0.000 C 
ENDBRANCH  23  25
ENDBRANCH  22  23
ENDBRANCH  18  22
ENDBRANCH   1  19
TORSDOF 5
ENDMDL
MODEL 7
REMARK VINA RESULT:      -6.6      1.520      2.367
REMARK  Name = 
REMARK  8 active torsions:
REMARK  status: ('A' for Active; 'I' for Inactive)
REMARK    1  A    between atoms: C_1  and  N_2
REMARK    2  A    between atoms: N_2  and  C_3
REMARK    3  A    between atoms: N_2  and  C_4
REMARK    4  A    between atoms: C_4  and  C_5
REMARK    5  A    between atoms: C_5  and  N_6
REMARK    6  A    between atoms: C_7  and  C_9
REMARK    7  A    between atoms: C_11  and  C_12
REMARK    8  A    between atoms: N_24  and  C_25
REMARK                            x       y       z     vdW  Elec       q    Type
REMARK                         _______ _______ _______ _____ _____    ______ ____
ROOT
ATOM      1  C   UNL     1       4.092   5.108  18.551  0.00  0.00    +0.000 A 
ATOM      2  C   UNL     1       3.729   6.449  18.556  0.00  0.00    +0.000 A 
ATOM      3  C   UNL     1       2.600   6.624  19.399  0.00  0.00    +0.000 A 
ATOM      4  C   UNL     1       2.287   5.373  19.889  0.00  0.00    +0.000 A 
ATOM      5  N   UNL     1       3.188   4.467  19.378  0.00  0.00    +0.000 N 
ATOM      6  C   UNL     1       3.216   3.063  19.732  0.00  0.00    +0.000 C 
ENDROOT
BRANCH   3   7
ATOM      7  C   UNL     1       1.902   7.846  19.740  0.00  0.00    +0.000 A 
ATOM      8  C   UNL     1       1.429   8.142  20.998  0.00  0.00    +0.000 A 
ATOM      9  N   UNL     1       0.794   9.293  21.316  0.00  0.00    +0.000 NA
ATOM     10  C   UNL     1       0.587  10.193  20.337  0.00  0.00    +0.000 A 
ATOM     11  N   UNL     1      -0.040  11.376  20.630  0.00  0.00    +0.000 N 
ATOM     12  C   UNL     1      -0.621  11.603  21.944  0.00  0.00    +0.000 C 
ATOM     13  C   UNL     1      -2.000  12.175  21.640  0.00  0.00    +0.000 C 
ATOM     14  C   UNL     1      -1.798  12.912  20.325  0.00  0.00    +0.000 C 
ATOM     15  C   UNL     1      -0.789  12.042  19.575  0.00  0.00    +0.000 C 
ATOM     16  N   UNL     1       0.996   9.981  19.073  0.00  0.00    +0.000 NA
ATOM     17  C   UNL     1       1.647   8.829  18.810  0.00  0.00    +0.000 A 
ENDBRANCH   3   7
BRANCH   1  19
ATOM     18  N   UNL     1       4.907   4.238  16.490  0.00  0.00    +0.000 N 
ATOM     19  C   UNL     1       5.171   4.463  17.825  0.00  0.00    +0.000 C 
ATOM     20  O   UNL     1       6.247   4.155  18.332  0.00  0.00    +0.000 OA
ATOM     21  H   UNL     1       4.137   4.732  16.055  0.00  0.00    +0.000 HD
BRANCH  18  22
ATOM     22  C   UNL     1       5.917   3.680  15.617  0.00  0.00    +0.000 C 
BRANCH  22  23
ATOM     23  C   UNL     1       6.459   4.686  14.587  0.00  0.00    +0.000 C 
BRANCH  23  25
ATOM     24  C   UNL     1       5.855   3.481  12.552  0.00  0.00    +0.000 C 
ATOM     25  N   UNL     1       6.948   4.077  13.330  0.00  0.00    +0.000 NA
ATOM     26  C   UNL     1       7.617   5.097  12.514  0.00  0.00    +0.000 C 
ENDBRANCH  23  25
ENDBRANCH  22  23
ENDBRANCH  18  22
ENDBRANCH   1  19
TORSDOF 5
ENDMDL
MODEL 8
REMARK VINA RESULT:      -6.6      2.246      3.905
REMARK  Name = 
REMARK  8 active torsions:
REMARK  status: ('A' for Active; 'I' for Inactive)
REMARK    1  A    between atoms: C_1  and  N_2
REMARK    2  A    between atoms: N_2  and  C_3
REMARK    3  A    between atoms: N_2  and  C_4
REMARK    4  A    between atoms: C_4  and  C_5
REMARK    5  A    between atoms: C_5  and  N_6
REMARK    6  A    between atoms: C_7  and  C_9
REMARK    7  A    between atoms: C_11  and  C_12
REMARK    8  A    between atoms: N_24  and  C_25
REMARK                            x       y       z     vdW  Elec       q    Type
REMARK                         _______ _______ _______ _____ _____    ______ ____
ROOT
ATOM      1  C   UNL     1       2.977   6.120  19.596  0.00  0.00    +0.000 A 
ATOM      2  C   UNL     1       2.585   7.453  19.583  0.00  0.00    +0.000 A 
ATOM      3  C   UNL     1       1.516   7.635  20.499  0.00  0.00    +0.000 A 
ATOM      4  C   UNL     1       1.268   6.395  21.052  0.00  0.00    +0.000 A 
ATOM      5  N   UNL     1       2.150   5.491  20.508  0.00  0.00    +0.000 N 
ATOM      6  C   UNL     1       2.235   4.100  20.905  0.00  0.00    +0.000 C 
ENDROOT
BRANCH   3   7
ATOM      7  C   UNL     1       0.818   8.854  20.850  0.00  0.00    +0.000 A 
ATOM      8  C   UNL     1       0.708   9.342  22.131  0.00  0.00    +0.000 A 
ATOM      9  N   UNL     1       0.070  10.491  22.451  0.00  0.00    +0.000 NA
ATOM     10  C   UNL     1      -0.518  11.185  21.460  0.00  0.00    +0.000 A 
ATOM     11  N   UNL     1      -1.160  12.361  21.749  0.00  0.00    +0.000 N 
ATOM     12  C   UNL     1      -1.347  12.786  23.127  0.00  0.00    +0.000 C 
ATOM     13  C   UNL     1      -2.810  13.209  23.184  0.00  0.00    +0.000 C 
ATOM     14  C   UNL     1      -3.091  13.707  21.775  0.00  0.00    +0.000 C 
ATOM     15  C   UNL     1      -2.259  12.780  20.890  0.00  0.00    +0.000 C 
ATOM     16  N   UNL     1      -0.481  10.774  20.180  0.00  0.00    +0.000 NA
ATOM     17  C   UNL     1       0.189   9.635  19.906  0.00  0.00    +0.000 A 
ENDBRANCH   3   7
BRANCH   1  19
ATOM     18  N   UNL     1       3.643   5.146  17.528  0.00  0.00    +0.000 N 
ATOM     19  C   UNL     1       4.015   5.472  18.815  0.00  0.00    +0.000 C 
ATOM     20  O   UNL     1       5.146   5.244  19.238  0.00  0.00    +0.000 OA
ATOM     21  H   UNL     1       2.815   5.578  17.136  0.00  0.00    +0.000 HD
BRANCH  18  22
ATOM     22  C   UNL     1       4.595   4.572  16.602  0.00  0.00    +0.000 C 
BRANCH  22  23
ATOM     23  C   UNL     1       5.275   5.615  15.698  0.00  0.00    +0.000 C 
BRANCH  23  25
ATOM     24  C   UNL     1       7.309   4.606  16.591  0.00  0.00    +0.000 C 
ATOM     25  N   UNL     1       6.730   5.416  15.514  0.00  0.00    +0.000 NA
ATOM     26  C   UNL     1       6.979   4.754  14.227  0.00  0.00    +0.000 C 
ENDBRANCH  23  25
ENDBRANCH  22  23
ENDBRANCH  18  22
ENDBRANCH   1  19
TORSDOF 5
ENDMDL
MODEL 9
REMARK VINA RESULT:      -6.6      1.074      1.270
REMARK  Name = 
REMARK  8 active torsions:
REMARK  status: ('A' for Active; 'I' for Inactive)
REMARK    1  A    between atoms: C_1  and  N_2
REMARK    2  A    between atoms: N_2  and  C_3
REMARK    3  A    between atoms: N_2  and  C_4
REMARK    4  A    between atoms: C_4  and  C_5
REMARK    5  A    between atoms: C_5  and  N_6
REMARK    6  A    between atoms: C_7  and  C_9
REMARK    7  A    between atoms: C_11  and  C_12
REMARK    8  A    between atoms: N_24  and  C_25
REMARK                            x       y       z     vdW  Elec       q    Type
REMARK                         _______ _______ _______ _____ _____    ______ ____
ROOT
ATOM      1  C   UNL     1       4.736   5.599  17.558  0.00  0.00    +0.000 A 
ATOM      2  C   UNL     1       4.048   6.802  17.459  0.00  0.00    +0.000 A 
ATOM      3  C   UNL     1       3.100   6.886  18.513  0.00  0.00    +0.000 A 
ATOM      4  C   UNL     1       3.224   5.717  19.235  0.00  0.00    +0.000 A 
ATOM      5  N   UNL     1       4.209   4.950  18.658  0.00  0.00    +0.000 N 
ATOM      6  C   UNL     1       4.667   3.683  19.191  0.00  0.00    +0.000 C 
ENDROOT
BRANCH   3   7
ATOM      7  C   UNL     1       2.192   7.967  18.835  0.00  0.00    +0.000 A 
ATOM      8  C   UNL     1       1.763   8.912  17.932  0.00  0.00    +0.000 A 
ATOM      9  N   UNL     1       0.900   9.909  18.233  0.00  0.00    +0.000 NA
ATOM     10  C   UNL     1       0.455   9.999  19.499  0.00  0.00    +0.000 A 
ATOM     11  N   UNL     1      -0.433  10.989  19.833  0.00  0.00    +0.000 N 
ATOM     12  C   UNL     1      -0.775  12.032  18.879  0.00  0.00    +0.000 C 
ATOM     13  C   UNL     1      -0.673  13.318  19.690  0.00  0.00    +0.000 C 
ATOM     14  C   UNL     1      -1.037  12.880  21.100  0.00  0.00    +0.000 C 
ATOM     15  C   UNL     1      -0.445  11.474  21.206  0.00  0.00    +0.000 C 
ATOM     16  N   UNL     1       0.836   9.132  20.455  0.00  0.00    +0.000 NA
ATOM     17  C   UNL     1       1.678   8.140  20.100  0.00  0.00    +0.000 A 
ENDBRANCH   3   7
BRANCH   1  19
ATOM     18  N   UNL     1       5.559   5.274  15.347  0.00  0.00    +0.000 N 
ATOM     19  C   UNL     1       5.781   5.078  16.694  0.00  0.00    +0.000 C 
ATOM     20  O   UNL     1       6.797   4.527  17.109  0.00  0.00    +0.000 OA
ATOM     21  H   UNL     1       4.862   5.950  15.061  0.00  0.00    +0.000 HD
BRANCH  18  22
ATOM     22  C   UNL     1       6.550   4.885  14.368  0.00  0.00    +0.000 C 
BRANCH  22  23
ATOM     23  C   UNL     1       6.243   3.539  13.686  0.00  0.00    +0.000 C 
BRANCH  23  25
ATOM     24  C   UNL     1       7.120   2.731  11.557  0.00  0.00    +0.000 C 
ATOM     25  N   UNL     1       6.140   3.605  12.212  0.00  0.00    +0.000 NA
ATOM     26  C   UNL     1       4.789   3.212  11.793  0.00  0.00    +0.000 C 
ENDBRANCH  23  25
ENDBRANCH  22  23
ENDBRANCH  18  22
ENDBRANCH   1  19
TORSDOF 5
ENDMDL
