MODEL 1
REMARK VINA RESULT:      -6.7      0.000      0.000
REMARK  Name = 
REMARK  16 active torsions:
REMARK  status: ('A' for Active; 'I' for Inactive)
REMARK    1  A    between atoms: C_1  and  C_2
REMARK    2  A    between atoms: C_5  and  C_6
REMARK    3  A    between atoms: C_7  and  C_8
REMARK    4  A    between atoms: C_8  and  N_9
REMARK    5  A    between atoms: N_9  and  C_10
REMARK    6  A    between atoms: N_9  and  C_11
REMARK    7  A    between atoms: C_11  and  C_12
REMARK    8  A    between atoms: C_12  and  O_13
REMARK    9  A    between atoms: C_12  and  C_14
REMARK   10  A    between atoms: C_14  and  O_15
REMARK   11  A    between atoms: O_15  and  C_16
REMARK   12  A    between atoms: C_16  and  C_17
REMARK   13  A    between atoms: C_17  and  O_18
REMARK   14  A    between atoms: O_18  and  C_19
REMARK   15  A    between atoms: C_19  and  C_20
REMARK   16  A    between atoms: C_19  and  C_21
REMARK                            x       y       z     vdW  Elec       q    Type
REMARK                         _______ _______ _______ _____ _____    ______ ____
ROOT
ATOM      1  C   UNL     1       5.905   4.430  17.984  0.00  0.00    +0.000 C 
ENDROOT
BRANCH   1   2
ATOM      2  N   UNL     1       5.245   4.035  16.718  0.00  0.00    +0.000 NA
ATOM      3  C   UNL     1       5.835   4.840  15.636  0.00  0.00    +0.000 C 
BRANCH   2   4
ATOM      4  C   UNL     1       3.780   4.249  16.817  0.00  0.00    +0.000 C 
BRANCH   4  11
ATOM      5  C   UNL     1       2.084   2.802  21.352  0.00  0.00    +0.000 C 
ATOM      6  C   UNL     1       2.441   3.909  20.405  0.00  0.00    +0.000 A 
ATOM      7  C   UNL     1       2.216   5.244  20.739  0.00  0.00    +0.000 A 
ATOM      8  C   UNL     1       2.534   6.259  19.837  0.00  0.00    +0.000 A 
ATOM      9  C   UNL     1       3.053   5.960  18.568  0.00  0.00    +0.000 A 
ATOM     10  C   UNL     1       3.409   7.094  17.645  0.00  0.00    +0.000 C 
ATOM     11  C   UNL     1       3.239   4.609  18.195  0.00  0.00    +0.000 A 
ATOM     12  C   UNL     1       2.975   3.606  19.146  0.00  0.00    +0.000 A 
ENDBRANCH   4  11
ENDBRANCH   2   4
ENDBRANCH   1   2
BRANCH   1  13
ATOM     13  C   UNL     1       7.295   5.087  17.872  0.00  0.00    +0.000 C 
BRANCH  13  14
ATOM     14  O   UNL     1       8.264   4.036  17.707  0.00  0.00    +0.000 OA
ATOM     15  H   UNL     1       8.974   4.183  18.355  0.00  0.00    +0.000 HD
ENDBRANCH  13  14
BRANCH  13  16
ATOM     16  C   UNL     1       7.612   5.944  19.105  0.00  0.00    +0.000 C 
BRANCH  16  17
ATOM     17  O   UNL     1       8.365   7.092  18.705  0.00  0.00    +0.000 OA
BRANCH  17  18
ATOM     18  C   UNL     1       7.714   7.801  17.653  0.00  0.00    +0.000 C 
BRANCH  18  19
ATOM     19  C   UNL     1       8.074   9.277  17.761  0.00  0.00    +0.000 C 
BRANCH  19  20
ATOM     20  O   UNL     1       8.822   9.495  18.955  0.00  0.00    +0.000 OA
BRANCH  20  21
ATOM     21  C   UNL     1       9.194  10.862  19.158  0.00  0.00    +0.000 C 
ATOM     22  C   UNL     1       9.766  11.089  20.555  0.00  0.00    +0.000 C 
ATOM     23  C   UNL     1      10.244  11.195  18.103  0.00  0.00    +0.000 C 
ENDBRANCH  20  21
ENDBRANCH  19  20
ENDBRANCH  18  19
ENDBRANCH  17  18
ENDBRANCH  16  17
ENDBRANCH  13  16
ENDBRANCH   1  13
TORSDOF 11
ENDMDL
MODEL 2
REMARK VINA RESULT:      -6.6      2.451      4.311
REMARK  Name = 
REMARK  16 active torsions:
REMARK  status: ('A' for Active; 'I' for Inactive)
REMARK    1  A    between atoms: C_1  and  C_2
REMARK    2  A    between atoms: C_5  and  C_6
REMARK    3  A    between atoms: C_7  and  C_8
REMARK    4  A    between atoms: C_8  and  N_9
REMARK    5  A    between atoms: N_9  and  C_10
REMARK    6  A    between atoms: N_9  and  C_11
REMARK    7  A    between atoms: C_11  and  C_12
REMARK    8  A    between atoms: C_12  and  O_13
REMARK    9  A    between atoms: C_12  and  C_14
REMARK   10  A    between atoms: C_14  and  O_15
REMARK   11  A    between atoms: O_15  and  C_16
REMARK   12  A    between atoms: C_16  and  C_17
REMARK   13  A    between atoms: C_17  and  O_18
REMARK   14  A    between atoms: O_18  and  C_19
REMARK   15  A    between atoms: C_19  and  C_20
REMARK   16  A    between atoms: C_19  and  C_21
REMARK                            x       y       z     vdW  Elec       q    Type
REMARK                         _______ _______ _______ _____ _____    ______ ____
ROOT
ATOM      1  C   UNL     1       3.347   3.535  19.674  0.00  0.00    +0.000 C 
ENDROOT
BRANCH   1   2
ATOM      2  N   UNL     1       2.398   4.669  19.585  0.00  0.00    +0.000 NA
ATOM      3  C   UNL     1       1.677   4.549  18.307  0.00  0.00    +0.000 C 
BRANCH   2   4
ATOM      4  C   UNL     1       3.130   5.956  19.677  0.00  0.00    +0.000 C 
BRANCH   4  11
ATOM      5  C   UNL     1      -0.185   8.941  22.050  0.00  0.00    +0.000 C 
ATOM      6  C   UNL     1       0.690   8.682  20.861  0.00  0.00    +0.000 A 
ATOM      7  C   UNL     1       0.678   9.534  19.757  0.00  0.00    +0.000 A 
ATOM      8  C   UNL     1       1.483   9.265  18.651  0.00  0.00    +0.000 A 
ATOM      9  C   UNL     1       2.293   8.120  18.610  0.00  0.00    +0.000 A 
ATOM     10  C   UNL     1       3.166   7.894  17.405  0.00  0.00    +0.000 C 
ATOM     11  C   UNL     1       2.278   7.220  19.699  0.00  0.00    +0.000 A 
ATOM     12  C   UNL     1       1.510   7.547  20.832  0.00  0.00    +0.000 A 
ENDBRANCH   4  11
ENDBRANCH   2   4
ENDBRANCH   1   2
BRANCH   1  13
ATOM     13  C   UNL     1       3.829   2.920  18.344  0.00  0.00    +0.000 C 
BRANCH  13  14
ATOM     14  O   UNL     1       3.990   1.505  18.550  0.00  0.00    +0.000 OA
ATOM     15  H   UNL     1       4.384   1.131  17.743  0.00  0.00    +0.000 HD
ENDBRANCH  13  14
BRANCH  13  16
ATOM     16  C   UNL     1       5.138   3.564  17.870  0.00  0.00    +0.000 C 
BRANCH  16  17
ATOM     17  O   UNL     1       5.147   3.624  16.441  0.00  0.00    +0.000 OA
BRANCH  17  18
ATOM     18  C   UNL     1       6.364   4.184  15.951  0.00  0.00    +0.000 C 
BRANCH  18  19
ATOM     19  C   UNL     1       6.224   5.700  15.906  0.00  0.00    +0.000 C 
BRANCH  19  20
ATOM     20  O   UNL     1       7.402   6.299  16.442  0.00  0.00    +0.000 OA
BRANCH  20  21
ATOM     21  C   UNL     1       7.200   6.926  17.712  0.00  0.00    +0.000 C 
ATOM     22  C   UNL     1       7.775   6.089  18.852  0.00  0.00    +0.000 C 
ATOM     23  C   UNL     1       7.900   8.279  17.653  0.00  0.00    +0.000 C 
ENDBRANCH  20  21
ENDBRANCH  19  20
ENDBRANCH  18  19
ENDBRANCH  17  18
ENDBRANCH  16  17
ENDBRANCH  13  16
ENDBRANCH   1  13
TORSDOF 11
ENDMDL
MODEL 3
REMARK VINA RESULT:      -6.5      2.671      5.324
REMARK  Name = 
REMARK  16 active torsions:
REMARK  status: ('A' for Active; 'I' for Inactive)
REMARK    1  A    between atoms: C_1  and  C_2
REMARK    2  A    between atoms: C_5  and  C_6
REMARK    3  A    between atoms: C_7  and  C_8
REMARK    4  A    between atoms: C_8  and  N_9
REMARK    5  A    between atoms: N_9  and  C_10
REMARK    6  A    between atoms: N_9  and  C_11
REMARK    7  A    between atoms: C_11  and  C_12
REMARK    8  A    between atoms: C_12  and  O_13
REMARK    9  A    between atoms: C_12  and  C_14
REMARK   10  A    between atoms: C_14  and  O_15
REMARK   11  A    between atoms: O_15  and  C_16
REMARK   12  A    between atoms: C_16  and  C_17
REMARK   13  A    between atoms: C_17  and  O_18
REMARK   14  A    between atoms: O_18  and  C_19
REMARK   15  A    between atoms: C_19  and  C_20
REMARK   16  A    between atoms: C_19  and  C_21
REMARK                            x       y       z     vdW  Elec       q    Type
REMARK                         _______ _______ _______ _____ _____    ______ ____
ROOT
ATOM      1  C   UNL     1       5.946   6.766  17.658  0.00  0.00    +0.000 C 
ENDROOT
BRANCH   1   2
ATOM      2  N   UNL     1       4.537   6.332  17.803  0.00  0.00    +0.000 NA
ATOM      3  C   UNL     1       3.678   7.440  17.355  0.00  0.00    +0.000 C 
BRANCH   2   4
ATOM      4  C   UNL     1       4.259   5.964  19.213  0.00  0.00    +0.000 C 
BRANCH   4  11
ATOM      5  C   UNL     1       3.600   0.992  18.605  0.00  0.00    +0.000 C 
ATOM      6  C   UNL     1       3.111   2.295  19.163  0.00  0.00    +0.000 A 
ATOM      7  C   UNL     1       1.878   2.386  19.809  0.00  0.00    +0.000 A 
ATOM      8  C   UNL     1       1.432   3.612  20.302  0.00  0.00    +0.000 A 
ATOM      9  C   UNL     1       2.191   4.779  20.132  0.00  0.00    +0.000 A 
ATOM     10  C   UNL     1       1.677   6.069  20.711  0.00  0.00    +0.000 C 
ATOM     11  C   UNL     1       3.419   4.712  19.435  0.00  0.00    +0.000 A 
ATOM     12  C   UNL     1       3.882   3.454  19.005  0.00  0.00    +0.000 A 
ENDBRANCH   4  11
ENDBRANCH   2   4
ENDBRANCH   1   2
BRANCH   1  13
ATOM     13  C   UNL     1       7.002   6.000  18.480  0.00  0.00    +0.000 C 
BRANCH  13  14
ATOM     14  O   UNL     1       8.159   6.847  18.601  0.00  0.00    +0.000 OA
ATOM     15  H   UNL     1       8.947   6.293  18.466  0.00  0.00    +0.000 HD
ENDBRANCH  13  14
BRANCH  13  16
ATOM     16  C   UNL     1       7.362   4.661  17.822  0.00  0.00    +0.000 C 
BRANCH  16  17
ATOM     17  O   UNL     1       7.626   4.871  16.433  0.00  0.00    +0.000 OA
BRANCH  17  18
ATOM     18  C   UNL     1       6.852   3.994  15.617  0.00  0.00    +0.000 C 
BRANCH  18  19
ATOM     19  C   UNL     1       6.550   4.691  14.297  0.00  0.00    +0.000 C 
BRANCH  19  20
ATOM     20  O   UNL     1       5.397   4.099  13.703  0.00  0.00    +0.000 OA
BRANCH  20  21
ATOM     21  C   UNL     1       5.693   3.284  12.564  0.00  0.00    +0.000 C 
ATOM     22  C   UNL     1       4.555   3.305  11.546  0.00  0.00    +0.000 C 
ATOM     23  C   UNL     1       6.964   3.846  11.937  0.00  0.00    +0.000 C 
ENDBRANCH  20  21
ENDBRANCH  19  20
ENDBRANCH  18  19
ENDBRANCH  17  18
ENDBRANCH  16  17
ENDBRANCH  13  16
ENDBRANCH   1  13
TORSDOF 11
ENDMDL
MODEL 4
REMARK VINA RESULT:      -6.4      3.149      5.009
REMARK  Name = 
REMARK  16 active torsions:
REMARK  status: ('A' for Active; 'I' for Inactive)
REMARK    1  A    between atoms: C_1  and  C_2
REMARK    2  A    between atoms: C_5  and  C_6
REMARK    3  A    between atoms: C_7  and  C_8
REMARK    4  A    between atoms: C_8  and  N_9
REMARK    5  A    between atoms: N_9  and  C_10
REMARK    6  A    between atoms: N_9  and  C_11
REMARK    7  A    between atoms: C_11  and  C_12
REMARK    8  A    between atoms: C_12  and  O_13
REMARK    9  A    between atoms: C_12  and  C_14
REMARK   10  A    between atoms: C_14  and  O_15
REMARK   11  A    between atoms: O_15  and  C_16
REMARK   12  A    between atoms: C_16  and  C_17
REMARK   13  A    between atoms: C_17  and  O_18
REMARK   14  A    between atoms: O_18  and  C_19
REMARK   15  A    between atoms: C_19  and  C_20
REMARK   16  A    between atoms: C_19  and  C_21
REMARK                            x       y       z     vdW  Elec       q    Type
REMARK                         _______ _______ _______ _____ _____    ______ ____
ROOT
ATOM      1  C   UNL     1       3.439   4.200  20.542  0.00  0.00    +0.000 C 
ENDROOT
BRANCH   1   2
ATOM      2  N   UNL     1       2.299   5.144  20.575  0.00  0.00    +0.000 NA
ATOM      3  C   UNL     1       1.072   4.375  20.313  0.00  0.00    +0.000 C 
BRANCH   2   4
ATOM      4  C   UNL     1       2.494   6.216  19.567  0.00  0.00    +0.000 C 
BRANCH   4  11
ATOM      5  C   UNL     1       0.075   9.256  22.798  0.00  0.00    +0.000 C 
ATOM      6  C   UNL     1       0.701   9.048  21.452  0.00  0.00    +0.000 A 
ATOM      7  C   UNL     1       0.637  10.032  20.466  0.00  0.00    +0.000 A 
ATOM      8  C   UNL     1       1.206   9.812  19.213  0.00  0.00    +0.000 A 
ATOM      9  C   UNL     1       1.823   8.589  18.905  0.00  0.00    +0.000 A 
ATOM     10  C   UNL     1       2.449   8.415  17.547  0.00  0.00    +0.000 C 
ATOM     11  C   UNL     1       1.851   7.562  19.876  0.00  0.00    +0.000 A 
ATOM     12  C   UNL     1       1.331   7.831  21.155  0.00  0.00    +0.000 A 
ENDBRANCH   4  11
ENDBRANCH   2   4
ENDBRANCH   1   2
BRANCH   1  13
ATOM     13  C   UNL     1       4.332   4.225  19.285  0.00  0.00    +0.000 C 
BRANCH  13  14
ATOM     14  O   UNL     1       5.087   3.001  19.260  0.00  0.00    +0.000 OA
ATOM     15  H   UNL     1       5.243   2.767  18.329  0.00  0.00    +0.000 HD
ENDBRANCH  13  14
BRANCH  13  16
ATOM     16  C   UNL     1       5.259   5.448  19.280  0.00  0.00    +0.000 C 
BRANCH  16  17
ATOM     17  O   UNL     1       6.567   5.053  19.702  0.00  0.00    +0.000 OA
BRANCH  17  18
ATOM     18  C   UNL     1       7.573   5.561  18.827  0.00  0.00    +0.000 C 
BRANCH  18  19
ATOM     19  C   UNL     1       7.573   4.735  17.548  0.00  0.00    +0.000 C 
BRANCH  19  20
ATOM     20  O   UNL     1       7.460   5.604  16.424  0.00  0.00    +0.000 OA
BRANCH  20  21
ATOM     21  C   UNL     1       6.434   5.221  15.503  0.00  0.00    +0.000 C 
ATOM     22  C   UNL     1       5.941   3.800  15.766  0.00  0.00    +0.000 C 
ATOM     23  C   UNL     1       5.289   6.212  15.681  0.00  0.00    +0.000 C 
ENDBRANCH  20  21
ENDBRANCH  19  20
ENDBRANCH  18  19
ENDBRANCH  17  18
ENDBRANCH  16  17
ENDBRANCH  13  16
ENDBRANCH   1  13
TORSDOF 11
ENDMDL
MODEL 5
REMARK VINA RESULT:      -6.4      2.749      4.621
REMARK  Name = 
REMARK  16 active torsions:
REMARK  status: ('A' for Active; 'I' for Inactive)
REMARK    1  A    between atoms: C_1  and  C_2
REMARK    2  A    between atoms: C_5  and  C_6
REMARK    3  A    between atoms: C_7  and  C_8
REMARK    4  A    between atoms: C_8  and  N_9
REMARK    5  A    between atoms: N_9  and  C_10
REMARK    6  A    between atoms: N_9  and  C_11
REMARK    7  A    between atoms: C_11  and  C_12
REMARK    8  A    between atoms: C_12  and  O_13
REMARK    9  A    between atoms: C_12  and  C_14
REMARK   10  A    between atoms: C_14  and  O_15
REMARK   11  A    between atoms: O_15  and  C_16
REMARK   12  A    between atoms: C_16  and  C_17
REMARK   13  A    between atoms: C_17  and  O_18
REMARK   14  A    between atoms: O_18  and  C_19
REMARK   15  A    between atoms: C_19  and  C_20
REMARK   16  A    between atoms: C_19  and  C_21
REMARK                            x       y       z     vdW  Elec       q    Type
REMARK                         _______ _______ _______ _____ _____    ______ ____
ROOT
ATOM      1  C   UNL     1       4.181   5.340  19.321  0.00  0.00    +0.000 C 
ENDROOT
BRANCH   1   2
ATOM      2  N   UNL     1       3.065   5.792  20.184  0.00  0.00    +0.000 NA
ATOM      3  C   UNL     1       2.505   4.605  20.850  0.00  0.00    +0.000 C 
BRANCH   2   4
ATOM      4  C   UNL     1       2.041   6.493  19.370  0.00  0.00    +0.000 C 
BRANCH   4  11
ATOM      5  C   UNL     1       0.238   9.360  23.119  0.00  0.00    +0.000 C 
ATOM      6  C   UNL     1       0.732   9.251  21.708  0.00  0.00    +0.000 A 
ATOM      7  C   UNL     1       0.706  10.347  20.847  0.00  0.00    +0.000 A 
ATOM      8  C   UNL     1       1.150  10.220  19.532  0.00  0.00    +0.000 A 
ATOM      9  C   UNL     1       1.598   8.985  19.037  0.00  0.00    +0.000 A 
ATOM     10  C   UNL     1       2.096   8.911  17.618  0.00  0.00    +0.000 C 
ATOM     11  C   UNL     1       1.582   7.852  19.882  0.00  0.00    +0.000 A 
ATOM     12  C   UNL     1       1.194   8.019  21.224  0.00  0.00    +0.000 A 
ENDBRANCH   4  11
ENDBRANCH   2   4
ENDBRANCH   1   2
BRANCH   1  13
ATOM     13  C   UNL     1       4.221   3.843  18.956  0.00  0.00    +0.000 C 
BRANCH  13  14
ATOM     14  O   UNL     1       5.469   3.309  19.432  0.00  0.00    +0.000 OA
ATOM     15  H   UNL     1       6.113   3.367  18.705  0.00  0.00    +0.000 HD
ENDBRANCH  13  14
BRANCH  13  16
ATOM     16  C   UNL     1       4.068   3.630  17.444  0.00  0.00    +0.000 C 
BRANCH  16  17
ATOM     17  O   UNL     1       4.747   4.676  16.747  0.00  0.00    +0.000 OA
BRANCH  17  18
ATOM     18  C   UNL     1       5.874   4.178  16.028  0.00  0.00    +0.000 C 
BRANCH  18  19
ATOM     19  C   UNL     1       6.815   5.336  15.725  0.00  0.00    +0.000 C 
BRANCH  19  20
ATOM     20  O   UNL     1       6.552   6.407  16.629  0.00  0.00    +0.000 OA
BRANCH  20  21
ATOM     21  C   UNL     1       7.696   6.809  17.389  0.00  0.00    +0.000 C 
ATOM     22  C   UNL     1       7.727   8.321  17.604  0.00  0.00    +0.000 C 
ATOM     23  C   UNL     1       7.607   6.093  18.733  0.00  0.00    +0.000 C 
ENDBRANCH  20  21
ENDBRANCH  19  20
ENDBRANCH  18  19
ENDBRANCH  17  18
ENDBRANCH  16  17
ENDBRANCH  13  16
ENDBRANCH   1  13
TORSDOF 11
ENDMDL
MODEL 6
REMARK VINA RESULT:      -6.3      0.846      1.950
REMARK  Name = 
REMARK  16 active torsions:
REMARK  status: ('A' for Active; 'I' for Inactive)
REMARK    1  A    between atoms: C_1  and  C_2
REMARK    2  A    between atoms: C_5  and  C_6
REMARK    3  A    between atoms: C_7  and  C_8
REMARK    4  A    between atoms: C_8  and  N_9
REMARK    5  A    between atoms: N_9  and  C_10
REMARK    6  A    between atoms: N_9  and  C_11
REMARK    7  A    between atoms: C_11  and  C_12
REMARK    8  A    between atoms: C_12  and  O_13
REMARK    9  A    between atoms: C_12  and  C_14
REMARK   10  A    between atoms: C_14  and  O_15
REMARK   11  A    between atoms: O_15  and  C_16
REMARK   12  A    between atoms: C_16  and  C_17
REMARK   13  A    between atoms: C_17  and  O_18
REMARK   14  A    between atoms: O_18  and  C_19
REMARK   15  A    between atoms: C_19  and  C_20
REMARK   16  A    between atoms: C_19  and  C_21
REMARK                            x       y       z     vdW  Elec       q    Type
REMARK                         _______ _______ _______ _____ _____    ______ ____
ROOT
ATOM      1  C   UNL     1       5.957   4.069  18.151  0.00  0.00    +0.000 C 
ENDROOT
BRANCH   1   2
ATOM      2  N   UNL     1       5.053   3.812  17.006  0.00  0.00    +0.000 NA
ATOM      3  C   UNL     1       5.848   3.931  15.773  0.00  0.00    +0.000 C 
BRANCH   2   4
ATOM      4  C   UNL     1       3.924   4.775  17.020  0.00  0.00    +0.000 C 
BRANCH   4  11
ATOM      5  C   UNL     1       1.684   7.011  20.958  0.00  0.00    +0.000 C 
ATOM      6  C   UNL     1       1.874   5.789  20.111  0.00  0.00    +0.000 A 
ATOM      7  C   UNL     1       1.266   4.579  20.442  0.00  0.00    +0.000 A 
ATOM      8  C   UNL     1       1.472   3.448  19.654  0.00  0.00    +0.000 A 
ATOM      9  C   UNL     1       2.318   3.492  18.535  0.00  0.00    +0.000 A 
ATOM     10  C   UNL     1       2.481   2.250  17.700  0.00  0.00    +0.000 C 
ATOM     11  C   UNL     1       2.982   4.698  18.215  0.00  0.00    +0.000 A 
ATOM     12  C   UNL     1       2.707   5.843  18.985  0.00  0.00    +0.000 A 
ENDBRANCH   4  11
ENDBRANCH   2   4
ENDBRANCH   1   2
BRANCH   1  13
ATOM     13  C   UNL     1       7.208   4.927  17.875  0.00  0.00    +0.000 C 
BRANCH  13  14
ATOM     14  O   UNL     1       8.341   4.042  17.814  0.00  0.00    +0.000 OA
ATOM     15  H   UNL     1       9.044   4.494  17.317  0.00  0.00    +0.000 HD
ENDBRANCH  13  14
BRANCH  13  16
ATOM     16  C   UNL     1       7.402   6.000  18.955  0.00  0.00    +0.000 C 
BRANCH  16  17
ATOM     17  O   UNL     1       8.270   7.021  18.459  0.00  0.00    +0.000 OA
BRANCH  17  18
ATOM     18  C   UNL     1       7.552   7.994  17.701  0.00  0.00    +0.000 C 
BRANCH  18  19
ATOM     19  C   UNL     1       8.339   9.297  17.704  0.00  0.00    +0.000 C 
BRANCH  19  20
ATOM     20  O   UNL     1       8.730   9.610  19.038  0.00  0.00    +0.000 OA
BRANCH  20  21
ATOM     21  C   UNL     1       9.600  10.743  19.131  0.00  0.00    +0.000 C 
ATOM     22  C   UNL     1       9.124  11.894  18.249  0.00  0.00    +0.000 C 
ATOM     23  C   UNL     1       9.610  11.174  20.593  0.00  0.00    +0.000 C 
ENDBRANCH  20  21
ENDBRANCH  19  20
ENDBRANCH  18  19
ENDBRANCH  17  18
ENDBRANCH  16  17
ENDBRANCH  13  16
ENDBRANCH   1  13
TORSDOF 11
ENDMDL
MODEL 7
REMARK VINA RESULT:      -6.3      3.007      5.131
REMARK  Name = 
REMARK  16 active torsions:
REMARK  status: ('A' for Active; 'I' for Inactive)
REMARK    1  A    between atoms: C_1  and  C_2
REMARK    2  A    between atoms: C_5  and  C_6
REMARK    3  A    between atoms: C_7  and  C_8
REMARK    4  A    between atoms: C_8  and  N_9
REMARK    5  A    between atoms: N_9  and  C_10
REMARK    6  A    between atoms: N_9  and  C_11
REMARK    7  A    between atoms: C_11  and  C_12
REMARK    8  A    between atoms: C_12  and  O_13
REMARK    9  A    between atoms: C_12  and  C_14
REMARK   10  A    between atoms: C_14  and  O_15
REMARK   11  A    between atoms: O_15  and  C_16
REMARK   12  A    between atoms: C_16  and  C_17
REMARK   13  A    between atoms: C_17  and  O_18
REMARK   14  A    between atoms: O_18  and  C_19
REMARK   15  A    between atoms: C_19  and  C_20
REMARK   16  A    between atoms: C_19  and  C_21
REMARK                            x       y       z     vdW  Elec       q    Type
REMARK                         _______ _______ _______ _____ _____    ______ ____
ROOT
ATOM      1  C   UNL     1       3.141   4.827  20.128  0.00  0.00    +0.000 C 
ENDROOT
BRANCH   1   2
ATOM      2  N   UNL     1       2.195   5.764  19.479  0.00  0.00    +0.000 NA
ATOM      3  C   UNL     1       2.035   5.341  18.078  0.00  0.00    +0.000 C 
BRANCH   2   4
ATOM      4  C   UNL     1       2.707   7.153  19.572  0.00  0.00    +0.000 C 
BRANCH   4  11
ATOM      5  C   UNL     1      -0.245   9.292  23.070  0.00  0.00    +0.000 C 
ATOM      6  C   UNL     1       0.283   9.279  21.667  0.00  0.00    +0.000 A 
ATOM      7  C   UNL     1      -0.188  10.177  20.710  0.00  0.00    +0.000 A 
ATOM      8  C   UNL     1       0.301  10.136  19.405  0.00  0.00    +0.000 A 
ATOM      9  C   UNL     1       1.247   9.174  19.018  0.00  0.00    +0.000 A 
ATOM     10  C   UNL     1       1.765   9.194  17.605  0.00  0.00    +0.000 C 
ATOM     11  C   UNL     1       1.697   8.224  19.964  0.00  0.00    +0.000 A 
ATOM     12  C   UNL     1       1.241   8.328  21.291  0.00  0.00    +0.000 A 
ENDBRANCH   4  11
ENDBRANCH   2   4
ENDBRANCH   1   2
BRANCH   1  13
ATOM     13  C   UNL     1       3.792   3.757  19.228  0.00  0.00    +0.000 C 
BRANCH  13  14
ATOM     14  O   UNL     1       3.432   2.467  19.753  0.00  0.00    +0.000 OA
ATOM     15  H   UNL     1       4.130   1.838  19.500  0.00  0.00    +0.000 HD
ENDBRANCH  13  14
BRANCH  13  16
ATOM     16  C   UNL     1       5.316   3.926  19.170  0.00  0.00    +0.000 C 
BRANCH  16  17
ATOM     17  O   UNL     1       5.660   5.263  19.539  0.00  0.00    +0.000 OA
BRANCH  17  18
ATOM     18  C   UNL     1       6.965   5.612  19.080  0.00  0.00    +0.000 C 
BRANCH  18  19
ATOM     19  C   UNL     1       6.838   6.345  17.751  0.00  0.00    +0.000 C 
BRANCH  19  20
ATOM     20  O   UNL     1       7.386   5.537  16.712  0.00  0.00    +0.000 OA
BRANCH  20  21
ATOM     21  C   UNL     1       6.478   5.297  15.632  0.00  0.00    +0.000 C 
ATOM     22  C   UNL     1       6.043   3.835  15.574  0.00  0.00    +0.000 C 
ATOM     23  C   UNL     1       5.266   6.193  15.866  0.00  0.00    +0.000 C 
ENDBRANCH  20  21
ENDBRANCH  19  20
ENDBRANCH  18  19
ENDBRANCH  17  18
ENDBRANCH  16  17
ENDBRANCH  13  16
ENDBRANCH   1  13
TORSDOF 11
ENDMDL
MODEL 8
REMARK VINA RESULT:      -6.3      2.920      6.002
REMARK  Name = 
REMARK  16 active torsions:
REMARK  status: ('A' for Active; 'I' for Inactive)
REMARK    1  A    between atoms: C_1  and  C_2
REMARK    2  A    between atoms: C_5  and  C_6
REMARK    3  A    between atoms: C_7  and  C_8
REMARK    4  A    between atoms: C_8  and  N_9
REMARK    5  A    between atoms: N_9  and  C_10
REMARK    6  A    between atoms: N_9  and  C_11
REMARK    7  A    between atoms: C_11  and  C_12
REMARK    8  A    between atoms: C_12  and  O_13
REMARK    9  A    between atoms: C_12  and  C_14
REMARK   10  A    between atoms: C_14  and  O_15
REMARK   11  A    between atoms: O_15  and  C_16
REMARK   12  A    between atoms: C_16  and  C_17
REMARK   13  A    between atoms: C_17  and  O_18
REMARK   14  A    between atoms: O_18  and  C_19
REMARK   15  A    between atoms: C_19  and  C_20
REMARK   16  A    between atoms: C_19  and  C_21
REMARK                            x       y       z     vdW  Elec       q    Type
REMARK                         _______ _______ _______ _____ _____    ______ ____
ROOT
ATOM      1  C   UNL     1       4.819   7.047  16.591  0.00  0.00    +0.000 C 
ENDROOT
BRANCH   1   2
ATOM      2  N   UNL     1       3.626   6.849  17.446  0.00  0.00    +0.000 NA
ATOM      3  C   UNL     1       2.996   8.164  17.647  0.00  0.00    +0.000 C 
BRANCH   2   4
ATOM      4  C   UNL     1       4.019   6.232  18.737  0.00  0.00    +0.000 C 
BRANCH   4  11
ATOM      5  C   UNL     1       3.538   1.209  18.464  0.00  0.00    +0.000 C 
ATOM      6  C   UNL     1       3.063   2.518  19.021  0.00  0.00    +0.000 A 
ATOM      7  C   UNL     1       1.926   2.591  19.825  0.00  0.00    +0.000 A 
ATOM      8  C   UNL     1       1.489   3.820  20.316  0.00  0.00    +0.000 A 
ATOM      9  C   UNL     1       2.158   5.009  19.987  0.00  0.00    +0.000 A 
ATOM     10  C   UNL     1       1.662   6.305  20.569  0.00  0.00    +0.000 C 
ATOM     11  C   UNL     1       3.283   4.958  19.131  0.00  0.00    +0.000 A 
ATOM     12  C   UNL     1       3.746   3.700  18.703  0.00  0.00    +0.000 A 
ENDBRANCH   4  11
ENDBRANCH   2   4
ENDBRANCH   1   2
BRANCH   1  13
ATOM     13  C   UNL     1       6.193   6.760  17.230  0.00  0.00    +0.000 C 
BRANCH  13  14
ATOM     14  O   UNL     1       6.920   8.001  17.279  0.00  0.00    +0.000 OA
ATOM     15  H   UNL     1       7.629   7.904  17.937  0.00  0.00    +0.000 HD
ENDBRANCH  13  14
BRANCH  13  16
ATOM     16  C   UNL     1       6.967   5.695  16.443  0.00  0.00    +0.000 C 
BRANCH  16  17
ATOM     17  O   UNL     1       6.367   5.526  15.156  0.00  0.00    +0.000 OA
BRANCH  17  18
ATOM     18  C   UNL     1       5.882   4.197  14.977  0.00  0.00    +0.000 C 
BRANCH  18  19
ATOM     19  C   UNL     1       6.151   3.766  13.541  0.00  0.00    +0.000 C 
BRANCH  19  20
ATOM     20  O   UNL     1       4.916   3.688  12.833  0.00  0.00    +0.000 OA
BRANCH  20  21
ATOM     21  C   UNL     1       5.052   3.204  11.493  0.00  0.00    +0.000 C 
ATOM     22  C   UNL     1       5.720   1.831  11.454  0.00  0.00    +0.000 C 
ATOM     23  C   UNL     1       3.646   3.118  10.909  0.00  0.00    +0.000 C 
ENDBRANCH  20  21
ENDBRANCH  19  20
ENDBRANCH  18  19
ENDBRANCH  17  18
ENDBRANCH  16  17
ENDBRANCH  13  16
ENDBRANCH   1  13
TORSDOF 11
ENDMDL
MODEL 9
REMARK VINA RESULT:      -6.3      1.324      2.245
REMARK  Name = 
REMARK  16 active torsions:
REMARK  status: ('A' for Active; 'I' for Inactive)
REMARK    1  A    between atoms: C_1  and  C_2
REMARK    2  A    between atoms: C_5  and  C_6
REMARK    3  A    between atoms: C_7  and  C_8
REMARK    4  A    between atoms: C_8  and  N_9
REMARK    5  A    between atoms: N_9  and  C_10
REMARK    6  A    between atoms: N_9  and  C_11
REMARK    7  A    between atoms: C_11  and  C_12
REMARK    8  A    between atoms: C_12  and  O_13
REMARK    9  A    between atoms: C_12  and  C_14
REMARK   10  A    between atoms: C_14  and  O_15
REMARK   11  A    between atoms: O_15  and  C_16
REMARK   12  A    between atoms: C_16  and  C_17
REMARK   13  A    between atoms: C_17  and  O_18
REMARK   14  A    between atoms: O_18  and  C_19
REMARK   15  A    between atoms: C_19  and  C_20
REMARK   16  A    between atoms: C_19  and  C_21
REMARK                            x       y       z     vdW  Elec       q    Type
REMARK                         _______ _______ _______ _____ _____    ______ ____
ROOT
ATOM      1  C   UNL     1       6.231   5.764  18.559  0.00  0.00    +0.000 C 
ENDROOT
BRANCH   1   2
ATOM      2  N   UNL     1       5.752   4.636  17.727  0.00  0.00    +0.000 NA
ATOM      3  C   UNL     1       6.646   4.528  16.562  0.00  0.00    +0.000 C 
BRANCH   2   4
ATOM      4  C   UNL     1       4.346   4.869  17.312  0.00  0.00    +0.000 C 
BRANCH   4  11
ATOM      5  C   UNL     1       1.578   7.244  20.809  0.00  0.00    +0.000 C 
ATOM      6  C   UNL     1       1.934   5.974  20.096  0.00  0.00    +0.000 A 
ATOM      7  C   UNL     1       1.378   4.753  20.475  0.00  0.00    +0.000 A 
ATOM      8  C   UNL     1       1.738   3.580  19.813  0.00  0.00    +0.000 A 
ATOM      9  C   UNL     1       2.687   3.596  18.778  0.00  0.00    +0.000 A 
ATOM     10  C   UNL     1       3.015   2.306  18.076  0.00  0.00    +0.000 C 
ATOM     11  C   UNL     1       3.297   4.819  18.416  0.00  0.00    +0.000 A 
ATOM     12  C   UNL     1       2.869   5.999  19.052  0.00  0.00    +0.000 A 
ENDBRANCH   4  11
ENDBRANCH   2   4
ENDBRANCH   1   2
BRANCH   1  13
ATOM     13  C   UNL     1       7.723   5.760  18.949  0.00  0.00    +0.000 C 
BRANCH  13  14
ATOM     14  O   UNL     1       7.818   5.301  20.310  0.00  0.00    +0.000 OA
ATOM     15  H   UNL     1       7.296   5.906  20.864  0.00  0.00    +0.000 HD
ENDBRANCH  13  14
BRANCH  13  16
ATOM     16  C   UNL     1       8.349   7.152  18.789  0.00  0.00    +0.000 C 
BRANCH  16  17
ATOM     17  O   UNL     1       7.741   7.820  17.680  0.00  0.00    +0.000 OA
BRANCH  17  18
ATOM     18  C   UNL     1       7.971   9.227  17.731  0.00  0.00    +0.000 C 
BRANCH  18  19
ATOM     19  C   UNL     1       8.938   9.526  18.868  0.00  0.00    +0.000 C 
BRANCH  19  20
ATOM     20  O   UNL     1       9.078  10.937  19.011  0.00  0.00    +0.000 OA
BRANCH  20  21
ATOM     21  C   UNL     1       9.877  11.325  20.133  0.00  0.00    +0.000 C 
ATOM     22  C   UNL     1      11.287  11.728  19.708  0.00  0.00    +0.000 C 
ATOM     23  C   UNL     1       9.172  12.505  20.791  0.00  0.00    +0.000 C 
ENDBRANCH  20  21
ENDBRANCH  19  20
ENDBRANCH  18  19
ENDBRANCH  17  18
ENDBRANCH  16  17
ENDBRANCH  13  16
ENDBRANCH   1  13
TORSDOF 11
ENDMDL
