MODEL 1
REMARK VINA RESULT:      -7.9      0.000      0.000
REMARK  Name = 
REMARK  4 active torsions:
REMARK  status: ('A' for Active; 'I' for Inactive)
REMARK    1  A    between atoms: C_1  and  O_2
REMARK    2  A    between atoms: O_2  and  C_3
REMARK    3  A    between atoms: C_7  and  C_8
REMARK    4  A    between atoms: C_8  and  N_9
REMARK                            x       y       z     vdW  Elec       q    Type
REMARK                         _______ _______ _______ _____ _____    ______ ____
ROOT
ATOM      1  N   UNL     1       2.415   7.949  18.871  0.00  0.00    +0.000 N 
ATOM      2  C   UNL     1       1.711   9.088  18.535  0.00  0.00    +0.000 C 
ATOM      3  O   UNL     1       1.946   9.655  17.464  0.00  0.00    +0.000 OA
ATOM      4  N   UNL     1       0.771   9.571  19.451  0.00  0.00    +0.000 N 
ATOM      5  S   UNL     1      -0.169  10.946  18.920  0.00  0.00    +0.000 S 
ATOM      6  C   UNL     1      -0.792  11.217  20.536  0.00  0.00    +0.000 A 
ATOM      7  C   UNL     1      -1.647  12.242  20.919  0.00  0.00    +0.000 A 
ATOM      8  C   UNL     1      -2.041  12.322  22.253  0.00  0.00    +0.000 A 
ATOM      9  C   UNL     1      -1.574  11.378  23.180  0.00  0.00    +0.000 A 
ATOM     10  C   UNL     1      -0.711  10.345  22.782  0.00  0.00    +0.000 A 
ATOM     11  C   UNL     1      -0.325  10.276  21.447  0.00  0.00    +0.000 A 
ATOM     12  C   UNL     1       0.592   9.281  20.817  0.00  0.00    +0.000 A 
ATOM     13  O   UNL     1       1.059   8.341  21.444  0.00  0.00    +0.000 OA
ATOM     14  H   UNL     1       2.024   7.325  19.568  0.00  0.00    +0.000 HD
ENDROOT
BRANCH   1  15
ATOM     15  C   UNL     1       3.276   7.425  17.824  0.00  0.00    +0.000 C 
BRANCH  15  20
ATOM     16  C   UNL     1       2.140   3.795  17.745  0.00  0.00    +0.000 A 
ATOM     17  C   UNL     1       3.258   3.173  17.194  0.00  0.00    +0.000 A 
ATOM     18  C   UNL     1       4.397   3.914  16.868  0.00  0.00    +0.000 A 
ATOM     19  C   UNL     1       4.430   5.289  17.106  0.00  0.00    +0.000 A 
ATOM     20  C   UNL     1       3.324   5.931  17.671  0.00  0.00    +0.000 A 
ATOM     21  C   UNL     1       2.177   5.172  17.977  0.00  0.00    +0.000 A 
BRANCH  16  23
ATOM     22  C   UNL     1       0.997   2.422  19.317  0.00  0.00    +0.000 C 
ATOM     23  O   UNL     1       1.082   2.968  18.005  0.00  0.00    +0.000 OA
ENDBRANCH  16  23
ENDBRANCH  15  20
ENDBRANCH   1  15
TORSDOF 3
ENDMDL
MODEL 2
REMARK VINA RESULT:      -7.6      1.712      1.938
REMARK  Name = 
REMARK  4 active torsions:
REMARK  status: ('A' for Active; 'I' for Inactive)
REMARK    1  A    between atoms: C_1  and  O_2
REMARK    2  A    between atoms: O_2  and  C_3
REMARK    3  A    between atoms: C_7  and  C_8
REMARK    4  A    between atoms: C_8  and  N_9
REMARK                            x       y       z     vdW  Elec       q    Type
REMARK                         _______ _______ _______ _____ _____    ______ ____
ROOT
ATOM      1  N   UNL     1       2.604   7.833  18.466  0.00  0.00    +0.000 N 
ATOM      2  C   UNL     1       1.927   9.024  18.298  0.00  0.00    +0.000 C 
ATOM      3  O   UNL     1       2.156   9.721  17.305  0.00  0.00    +0.000 OA
ATOM      4  N   UNL     1       1.018   9.407  19.292  0.00  0.00    +0.000 N 
ATOM      5  S   UNL     1       0.108  10.863  18.968  0.00  0.00    +0.000 S 
ATOM      6  C   UNL     1      -0.474  10.936  20.619  0.00  0.00    +0.000 A 
ATOM      7  C   UNL     1      -1.292  11.923  21.153  0.00  0.00    +0.000 A 
ATOM      8  C   UNL     1      -1.657  11.836  22.495  0.00  0.00    +0.000 A 
ATOM      9  C   UNL     1      -1.198  10.766  23.279  0.00  0.00    +0.000 A 
ATOM     10  C   UNL     1      -0.373   9.773  22.729  0.00  0.00    +0.000 A 
ATOM     11  C   UNL     1      -0.017   9.871  21.388  0.00  0.00    +0.000 A 
ATOM     12  C   UNL     1       0.858   8.944  20.611  0.00  0.00    +0.000 A 
ATOM     13  O   UNL     1       1.312   7.918  21.099  0.00  0.00    +0.000 OA
ATOM     14  H   UNL     1       2.209   7.133  19.084  0.00  0.00    +0.000 HD
ENDROOT
BRANCH   1  15
ATOM     15  C   UNL     1       3.428   7.429  17.339  0.00  0.00    +0.000 C 
BRANCH  15  20
ATOM     16  C   UNL     1       5.437   4.526  18.754  0.00  0.00    +0.000 A 
ATOM     17  C   UNL     1       6.645   4.674  18.074  0.00  0.00    +0.000 A 
ATOM     18  C   UNL     1       6.830   5.727  17.174  0.00  0.00    +0.000 A 
ATOM     19  C   UNL     1       5.807   6.652  16.957  0.00  0.00    +0.000 A 
ATOM     20  C   UNL     1       4.593   6.529  17.640  0.00  0.00    +0.000 A 
ATOM     21  C   UNL     1       4.417   5.452  18.530  0.00  0.00    +0.000 A 
BRANCH  16  23
ATOM     22  C   UNL     1       4.236   2.598  19.464  0.00  0.00    +0.000 C 
ATOM     23  O   UNL     1       5.371   3.448  19.593  0.00  0.00    +0.000 OA
ENDBRANCH  16  23
ENDBRANCH  15  20
ENDBRANCH   1  15
TORSDOF 3
ENDMDL
MODEL 3
REMARK VINA RESULT:      -7.6      2.411      3.697
REMARK  Name = 
REMARK  4 active torsions:
REMARK  status: ('A' for Active; 'I' for Inactive)
REMARK    1  A    between atoms: C_1  and  O_2
REMARK    2  A    between atoms: O_2  and  C_3
REMARK    3  A    between atoms: C_7  and  C_8
REMARK    4  A    between atoms: C_8  and  N_9
REMARK                            x       y       z     vdW  Elec       q    Type
REMARK                         _______ _______ _______ _____ _____    ______ ____
ROOT
ATOM      1  N   UNL     1       2.672   6.815  18.745  0.00  0.00    +0.000 N 
ATOM      2  C   UNL     1       2.204   8.083  18.467  0.00  0.00    +0.000 C 
ATOM      3  O   UNL     1       2.598   8.670  17.454  0.00  0.00    +0.000 OA
ATOM      4  N   UNL     1       1.314   8.668  19.375  0.00  0.00    +0.000 N 
ATOM      5  S   UNL     1       0.668  10.224  18.911  0.00  0.00    +0.000 S 
ATOM      6  C   UNL     1       0.012  10.494  20.514  0.00  0.00    +0.000 A 
ATOM      7  C   UNL     1      -0.666  11.630  20.937  0.00  0.00    +0.000 A 
ATOM      8  C   UNL     1      -1.116  11.689  22.254  0.00  0.00    +0.000 A 
ATOM      9  C   UNL     1      -0.880  10.614  23.125  0.00  0.00    +0.000 A 
ATOM     10  C   UNL     1      -0.194   9.470  22.687  0.00  0.00    +0.000 A 
ATOM     11  C   UNL     1       0.249   9.424  21.369  0.00  0.00    +0.000 A 
ATOM     12  C   UNL     1       1.007   8.323  20.705  0.00  0.00    +0.000 A 
ATOM     13  O   UNL     1       1.262   7.272  21.278  0.00  0.00    +0.000 OA
ATOM     14  H   UNL     1       2.135   6.227  19.373  0.00  0.00    +0.000 HD
ENDROOT
BRANCH   1  15
ATOM     15  C   UNL     1       3.483   6.215  17.699  0.00  0.00    +0.000 C 
BRANCH  15  20
ATOM     16  C   UNL     1       7.155   7.207  17.639  0.00  0.00    +0.000 A 
ATOM     17  C   UNL     1       7.702   6.275  18.520  0.00  0.00    +0.000 A 
ATOM     18  C   UNL     1       6.897   5.304  19.120  0.00  0.00    +0.000 A 
ATOM     19  C   UNL     1       5.532   5.248  18.830  0.00  0.00    +0.000 A 
ATOM     20  C   UNL     1       4.966   6.164  17.938  0.00  0.00    +0.000 A 
ATOM     21  C   UNL     1       5.789   7.148  17.356  0.00  0.00    +0.000 A 
BRANCH  16  23
ATOM     22  C   UNL     1       8.312   9.266  17.926  0.00  0.00    +0.000 C 
ATOM     23  O   UNL     1       8.041   8.117  17.130  0.00  0.00    +0.000 OA
ENDBRANCH  16  23
ENDBRANCH  15  20
ENDBRANCH   1  15
TORSDOF 3
ENDMDL
MODEL 4
REMARK VINA RESULT:      -7.5      2.334      3.816
REMARK  Name = 
REMARK  4 active torsions:
REMARK  status: ('A' for Active; 'I' for Inactive)
REMARK    1  A    between atoms: C_1  and  O_2
REMARK    2  A    between atoms: O_2  and  C_3
REMARK    3  A    between atoms: C_7  and  C_8
REMARK    4  A    between atoms: C_8  and  N_9
REMARK                            x       y       z     vdW  Elec       q    Type
REMARK                         _______ _______ _______ _____ _____    ______ ____
ROOT
ATOM      1  N   UNL     1       2.694   6.625  18.286  0.00  0.00    +0.000 N 
ATOM      2  C   UNL     1       2.193   6.913  19.540  0.00  0.00    +0.000 C 
ATOM      3  O   UNL     1       2.146   6.024  20.396  0.00  0.00    +0.000 OA
ATOM      4  N   UNL     1       1.726   8.210  19.778  0.00  0.00    +0.000 N 
ATOM      5  S   UNL     1       1.213   8.544  21.415  0.00  0.00    +0.000 S 
ATOM      6  C   UNL     1       0.475  10.060  20.936  0.00  0.00    +0.000 A 
ATOM      7  C   UNL     1      -0.212  10.932  21.770  0.00  0.00    +0.000 A 
ATOM      8  C   UNL     1      -0.749  12.097  21.225  0.00  0.00    +0.000 A 
ATOM      9  C   UNL     1      -0.591  12.368  19.857  0.00  0.00    +0.000 A 
ATOM     10  C   UNL     1       0.106  11.480  19.023  0.00  0.00    +0.000 A 
ATOM     11  C   UNL     1       0.638  10.321  19.580  0.00  0.00    +0.000 A 
ATOM     12  C   UNL     1       1.393   9.241  18.879  0.00  0.00    +0.000 A 
ATOM     13  O   UNL     1       1.686   9.317  17.694  0.00  0.00    +0.000 OA
ATOM     14  H   UNL     1       3.018   7.392  17.706  0.00  0.00    +0.000 HD
ENDROOT
BRANCH   1  15
ATOM     15  C   UNL     1       3.284   5.305  18.146  0.00  0.00    +0.000 C 
BRANCH  15  20
ATOM     16  C   UNL     1       6.700   6.019  16.632  0.00  0.00    +0.000 A 
ATOM     17  C   UNL     1       6.859   4.920  15.790  0.00  0.00    +0.000 A 
ATOM     18  C   UNL     1       5.854   3.954  15.683  0.00  0.00    +0.000 A 
ATOM     19  C   UNL     1       4.671   4.089  16.412  0.00  0.00    +0.000 A 
ATOM     20  C   UNL     1       4.487   5.191  17.252  0.00  0.00    +0.000 A 
ATOM     21  C   UNL     1       5.516   6.146  17.362  0.00  0.00    +0.000 A 
BRANCH  16  23
ATOM     22  C   UNL     1       7.638   8.019  17.517  0.00  0.00    +0.000 C 
ATOM     23  O   UNL     1       7.758   6.885  16.664  0.00  0.00    +0.000 OA
ENDBRANCH  16  23
ENDBRANCH  15  20
ENDBRANCH   1  15
TORSDOF 3
ENDMDL
MODEL 5
REMARK VINA RESULT:      -7.5      2.526      8.174
REMARK  Name = 
REMARK  4 active torsions:
REMARK  status: ('A' for Active; 'I' for Inactive)
REMARK    1  A    between atoms: C_1  and  O_2
REMARK    2  A    between atoms: O_2  and  C_3
REMARK    3  A    between atoms: C_7  and  C_8
REMARK    4  A    between atoms: C_8  and  N_9
REMARK                            x       y       z     vdW  Elec       q    Type
REMARK                         _______ _______ _______ _____ _____    ______ ____
ROOT
ATOM      1  N   UNL     1       1.860   7.540  20.311  0.00  0.00    +0.000 N 
ATOM      2  C   UNL     1       2.220   6.227  20.085  0.00  0.00    +0.000 C 
ATOM      3  O   UNL     1       1.992   5.374  20.949  0.00  0.00    +0.000 OA
ATOM      4  N   UNL     1       2.864   5.921  18.881  0.00  0.00    +0.000 N 
ATOM      5  S   UNL     1       3.189   4.227  18.603  0.00  0.00    +0.000 S 
ATOM      6  C   UNL     1       4.236   4.591  17.245  0.00  0.00    +0.000 A 
ATOM      7  C   UNL     1       4.937   3.665  16.484  0.00  0.00    +0.000 A 
ATOM      8  C   UNL     1       5.738   4.125  15.440  0.00  0.00    +0.000 A 
ATOM      9  C   UNL     1       5.825   5.501  15.177  0.00  0.00    +0.000 A 
ATOM     10  C   UNL     1       5.111   6.429  15.952  0.00  0.00    +0.000 A 
ATOM     11  C   UNL     1       4.315   5.956  16.990  0.00  0.00    +0.000 A 
ATOM     12  C   UNL     1       3.493   6.760  17.942  0.00  0.00    +0.000 A 
ATOM     13  O   UNL     1       3.388   7.975  17.844  0.00  0.00    +0.000 OA
ATOM     14  H   UNL     1       1.758   8.159  19.514  0.00  0.00    +0.000 HD
ENDROOT
BRANCH   1  15
ATOM     15  C   UNL     1       1.079   7.766  21.515  0.00  0.00    +0.000 C 
BRANCH  15  20
ATOM     16  C   UNL     1      -0.666  10.994  20.512  0.00  0.00    +0.000 A 
ATOM     17  C   UNL     1      -1.116  11.455  21.749  0.00  0.00    +0.000 A 
ATOM     18  C   UNL     1      -0.836  10.743  22.918  0.00  0.00    +0.000 A 
ATOM     19  C   UNL     1      -0.090   9.565  22.860  0.00  0.00    +0.000 A 
ATOM     20  C   UNL     1       0.382   9.093  21.632  0.00  0.00    +0.000 A 
ATOM     21  C   UNL     1       0.077   9.813  20.460  0.00  0.00    +0.000 A 
BRANCH  16  23
ATOM     22  C   UNL     1      -1.542  11.093  18.302  0.00  0.00    +0.000 C 
ATOM     23  O   UNL     1      -1.017  11.768  19.440  0.00  0.00    +0.000 OA
ENDBRANCH  16  23
ENDBRANCH  15  20
ENDBRANCH   1  15
TORSDOF 3
ENDMDL
MODEL 6
REMARK VINA RESULT:      -7.5      1.291      2.173
REMARK  Name = 
REMARK  4 active torsions:
REMARK  status: ('A' for Active; 'I' for Inactive)
REMARK    1  A    between atoms: C_1  and  O_2
REMARK    2  A    between atoms: O_2  and  C_3
REMARK    3  A    between atoms: C_7  and  C_8
REMARK    4  A    between atoms: C_8  and  N_9
REMARK                            x       y       z     vdW  Elec       q    Type
REMARK                         _______ _______ _______ _____ _____    ______ ____
ROOT
ATOM      1  N   UNL     1       2.472   7.985  18.739  0.00  0.00    +0.000 N 
ATOM      2  C   UNL     1       1.752   9.131  18.468  0.00  0.00    +0.000 C 
ATOM      3  O   UNL     1       1.968   9.754  17.424  0.00  0.00    +0.000 OA
ATOM      4  N   UNL     1       0.816   9.557  19.417  0.00  0.00    +0.000 N 
ATOM      5  S   UNL     1      -0.145  10.945  18.966  0.00  0.00    +0.000 S 
ATOM      6  C   UNL     1      -0.752  11.128  20.600  0.00  0.00    +0.000 A 
ATOM      7  C   UNL     1      -1.614  12.123  21.042  0.00  0.00    +0.000 A 
ATOM      8  C   UNL     1      -1.995  12.131  22.383  0.00  0.00    +0.000 A 
ATOM      9  C   UNL     1      -1.506  11.147  23.257  0.00  0.00    +0.000 A 
ATOM     10  C   UNL     1      -0.636  10.146  22.798  0.00  0.00    +0.000 A 
ATOM     11  C   UNL     1      -0.265  10.149  21.457  0.00  0.00    +0.000 A 
ATOM     12  C   UNL     1       0.656   9.197  20.769  0.00  0.00    +0.000 A 
ATOM     13  O   UNL     1       1.142   8.233  21.343  0.00  0.00    +0.000 OA
ATOM     14  H   UNL     1       2.096   7.322  19.408  0.00  0.00    +0.000 HD
ENDROOT
BRANCH   1  15
ATOM     15  C   UNL     1       3.327   7.524  17.658  0.00  0.00    +0.000 C 
BRANCH  15  20
ATOM     16  C   UNL     1       4.792   4.146  16.704  0.00  0.00    +0.000 A 
ATOM     17  C   UNL     1       3.891   3.276  17.318  0.00  0.00    +0.000 A 
ATOM     18  C   UNL     1       2.790   3.772  18.020  0.00  0.00    +0.000 A 
ATOM     19  C   UNL     1       2.573   5.149  18.104  0.00  0.00    +0.000 A 
ATOM     20  C   UNL     1       3.457   6.037  17.484  0.00  0.00    +0.000 A 
ATOM     21  C   UNL     1       4.572   5.521  16.794  0.00  0.00    +0.000 A 
BRANCH  16  23
ATOM     22  C   UNL     1       6.860   4.393  15.553  0.00  0.00    +0.000 C 
ATOM     23  O   UNL     1       5.838   3.542  16.061  0.00  0.00    +0.000 OA
ENDBRANCH  16  23
ENDBRANCH  15  20
ENDBRANCH   1  15
TORSDOF 3
ENDMDL
MODEL 7
REMARK VINA RESULT:      -7.5      2.998      7.317
REMARK  Name = 
REMARK  4 active torsions:
REMARK  status: ('A' for Active; 'I' for Inactive)
REMARK    1  A    between atoms: C_1  and  O_2
REMARK    2  A    between atoms: O_2  and  C_3
REMARK    3  A    between atoms: C_7  and  C_8
REMARK    4  A    between atoms: C_8  and  N_9
REMARK                            x       y       z     vdW  Elec       q    Type
REMARK                         _______ _______ _______ _____ _____    ______ ____
ROOT
ATOM      1  N   UNL     1       1.324   9.146  19.281  0.00  0.00    +0.000 N 
ATOM      2  C   UNL     1       2.105   8.301  18.518  0.00  0.00    +0.000 C 
ATOM      3  O   UNL     1       2.402   8.622  17.364  0.00  0.00    +0.000 OA
ATOM      4  N   UNL     1       2.505   7.086  19.086  0.00  0.00    +0.000 N 
ATOM      5  S   UNL     1       3.585   6.114  18.116  0.00  0.00    +0.000 S 
ATOM      6  C   UNL     1       3.375   4.727  19.168  0.00  0.00    +0.000 A 
ATOM      7  C   UNL     1       3.951   3.476  18.992  0.00  0.00    +0.000 A 
ATOM      8  C   UNL     1       3.672   2.475  19.920  0.00  0.00    +0.000 A 
ATOM      9  C   UNL     1       2.822   2.741  21.005  0.00  0.00    +0.000 A 
ATOM     10  C   UNL     1       2.246   4.010  21.173  0.00  0.00    +0.000 A 
ATOM     11  C   UNL     1       2.534   5.001  20.240  0.00  0.00    +0.000 A 
ATOM     12  C   UNL     1       2.020   6.402  20.217  0.00  0.00    +0.000 A 
ATOM     13  O   UNL     1       1.311   6.848  21.108  0.00  0.00    +0.000 OA
ATOM     14  H   UNL     1       1.341   9.042  20.290  0.00  0.00    +0.000 HD
ENDROOT
BRANCH   1  15
ATOM     15  C   UNL     1       1.056  10.443  18.685  0.00  0.00    +0.000 C 
BRANCH  15  20
ATOM     16  C   UNL     1      -2.479  10.336  17.285  0.00  0.00    +0.000 A 
ATOM     17  C   UNL     1      -3.130  11.240  18.123  0.00  0.00    +0.000 A 
ATOM     18  C   UNL     1      -2.429  11.910  19.128  0.00  0.00    +0.000 A 
ATOM     19  C   UNL     1      -1.061  11.691  19.295  0.00  0.00    +0.000 A 
ATOM     20  C   UNL     1      -0.386  10.799  18.456  0.00  0.00    +0.000 A 
ATOM     21  C   UNL     1      -1.111  10.118  17.459  0.00  0.00    +0.000 A 
BRANCH  16  23
ATOM     22  C   UNL     1      -3.255  10.275  15.036  0.00  0.00    +0.000 C 
ATOM     23  O   UNL     1      -3.275   9.731  16.351  0.00  0.00    +0.000 OA
ENDBRANCH  16  23
ENDBRANCH  15  20
ENDBRANCH   1  15
TORSDOF 3
ENDMDL
MODEL 8
REMARK VINA RESULT:      -7.5      1.664      2.381
REMARK  Name = 
REMARK  4 active torsions:
REMARK  status: ('A' for Active; 'I' for Inactive)
REMARK    1  A    between atoms: C_1  and  O_2
REMARK    2  A    between atoms: O_2  and  C_3
REMARK    3  A    between atoms: C_7  and  C_8
REMARK    4  A    between atoms: C_8  and  N_9
REMARK                            x       y       z     vdW  Elec       q    Type
REMARK                         _______ _______ _______ _____ _____    ______ ____
ROOT
ATOM      1  N   UNL     1       2.307   8.043  18.738  0.00  0.00    +0.000 N 
ATOM      2  C   UNL     1       1.638   9.221  18.473  0.00  0.00    +0.000 C 
ATOM      3  O   UNL     1       1.890   9.845  17.437  0.00  0.00    +0.000 OA
ATOM      4  N   UNL     1       0.711   9.677  19.417  0.00  0.00    +0.000 N 
ATOM      5  S   UNL     1      -0.186  11.108  18.971  0.00  0.00    +0.000 S 
ATOM      6  C   UNL     1      -0.802  11.300  20.601  0.00  0.00    +0.000 A 
ATOM      7  C   UNL     1      -1.626  12.325  21.046  0.00  0.00    +0.000 A 
ATOM      8  C   UNL     1      -2.019  12.335  22.383  0.00  0.00    +0.000 A 
ATOM      9  C   UNL     1      -1.581  11.323  23.251  0.00  0.00    +0.000 A 
ATOM     10  C   UNL     1      -0.748  10.291  22.790  0.00  0.00    +0.000 A 
ATOM     11  C   UNL     1      -0.364  10.292  21.453  0.00  0.00    +0.000 A 
ATOM     12  C   UNL     1       0.522   9.310  20.763  0.00  0.00    +0.000 A 
ATOM     13  O   UNL     1       0.962   8.320  21.332  0.00  0.00    +0.000 OA
ATOM     14  H   UNL     1       1.897   7.390  19.396  0.00  0.00    +0.000 HD
ENDROOT
BRANCH   1  15
ATOM     15  C   UNL     1       3.152   7.558  17.660  0.00  0.00    +0.000 C 
BRANCH  15  20
ATOM     16  C   UNL     1       5.619   4.736  18.306  0.00  0.00    +0.000 A 
ATOM     17  C   UNL     1       4.770   3.630  18.318  0.00  0.00    +0.000 A 
ATOM     18  C   UNL     1       3.400   3.783  18.090  0.00  0.00    +0.000 A 
ATOM     19  C   UNL     1       2.868   5.049  17.835  0.00  0.00    +0.000 A 
ATOM     20  C   UNL     1       3.705   6.168  17.806  0.00  0.00    +0.000 A 
ATOM     21  C   UNL     1       5.081   5.999  18.055  0.00  0.00    +0.000 A 
BRANCH  16  23
ATOM     22  C   UNL     1       7.758   5.555  18.951  0.00  0.00    +0.000 C 
ATOM     23  O   UNL     1       6.935   4.461  18.559  0.00  0.00    +0.000 OA
ENDBRANCH  16  23
ENDBRANCH  15  20
ENDBRANCH   1  15
TORSDOF 3
ENDMDL
MODEL 9
REMARK VINA RESULT:      -7.4      2.495      8.395
REMARK  Name = 
REMARK  4 active torsions:
REMARK  status: ('A' for Active; 'I' for Inactive)
REMARK    1  A    between atoms: C_1  and  O_2
REMARK    2  A    between atoms: O_2  and  C_3
REMARK    3  A    between atoms: C_7  and  C_8
REMARK    4  A    between atoms: C_8  and  N_9
REMARK                            x       y       z     vdW  Elec       q    Type
REMARK                         _______ _______ _______ _____ _____    ______ ____
ROOT
ATOM      1  N   UNL     1       1.879   7.767  20.102  0.00  0.00    +0.000 N 
ATOM      2  C   UNL     1       2.213   6.435  19.962  0.00  0.00    +0.000 C 
ATOM      3  O   UNL     1       1.946   5.641  20.870  0.00  0.00    +0.000 OA
ATOM      4  N   UNL     1       2.877   6.045  18.794  0.00  0.00    +0.000 N 
ATOM      5  S   UNL     1       3.169   4.330  18.624  0.00  0.00    +0.000 S 
ATOM      6  C   UNL     1       4.255   4.591  17.273  0.00  0.00    +0.000 A 
ATOM      7  C   UNL     1       4.951   3.606  16.584  0.00  0.00    +0.000 A 
ATOM      8  C   UNL     1       5.785   3.986  15.534  0.00  0.00    +0.000 A 
ATOM      9  C   UNL     1       5.910   5.341  15.193  0.00  0.00    +0.000 A 
ATOM     10  C   UNL     1       5.201   6.328  15.895  0.00  0.00    +0.000 A 
ATOM     11  C   UNL     1       4.371   5.936  16.940  0.00  0.00    +0.000 A 
ATOM     12  C   UNL     1       3.547   6.813  17.823  0.00  0.00    +0.000 A 
ATOM     13  O   UNL     1       3.473   8.021  17.651  0.00  0.00    +0.000 OA
ATOM     14  H   UNL     1       1.810   8.340  19.268  0.00  0.00    +0.000 HD
ENDROOT
BRANCH   1  15
ATOM     15  C   UNL     1       1.076   8.082  21.271  0.00  0.00    +0.000 C 
BRANCH  15  20
ATOM     16  C   UNL     1      -0.777  11.223  22.352  0.00  0.00    +0.000 A 
ATOM     17  C   UNL     1      -1.156  11.752  21.120  0.00  0.00    +0.000 A 
ATOM     18  C   UNL     1      -0.841  11.087  19.933  0.00  0.00    +0.000 A 
ATOM     19  C   UNL     1      -0.151   9.873  19.970  0.00  0.00    +0.000 A 
ATOM     20  C   UNL     1       0.226   9.318  21.197  0.00  0.00    +0.000 A 
ATOM     21  C   UNL     1      -0.085  10.011  22.384  0.00  0.00    +0.000 A 
BRANCH  16  23
ATOM     22  C   UNL     1      -1.495  13.327  23.199  0.00  0.00    +0.000 C 
ATOM     23  O   UNL     1      -1.128  11.973  23.441  0.00  0.00    +0.000 OA
ENDBRANCH  16  23
ENDBRANCH  15  20
ENDBRANCH   1  15
TORSDOF 3
ENDMDL
