MODEL 1
REMARK VINA RESULT:      -9.4      0.000      0.000
REMARK  Name = 
REMARK  9 active torsions:
REMARK  status: ('A' for Active; 'I' for Inactive)
REMARK    1  A    between atoms: C_1  and  C_2
REMARK    2  A    between atoms: C_4  and  N_5
REMARK    3  A    between atoms: C_13  and  C_14
REMARK    4  A    between atoms: C_15  and  N_16
REMARK    5  A    between atoms: N_16  and  C_17
REMARK    6  A    between atoms: C_17  and  C_18
REMARK    7  A    between atoms: C_18  and  O_19
REMARK    8  A    between atoms: C_18  and  C_20
REMARK    9  A    between atoms: C_24  and  C_25
REMARK                            x       y       z     vdW  Elec       q    Type
REMARK                         _______ _______ _______ _____ _____    ______ ____
ROOT
ATOM      1  C   UNL     1       2.994   4.634  19.390  0.00  0.00    +0.000 A 
ATOM      2  C   UNL     1       3.567   4.171  18.254  0.00  0.00    +0.000 A 
ATOM      3  C   UNL     1       3.886   2.748  18.165  0.00  0.00    +0.000 A 
ATOM      4  C   UNL     1       3.612   1.905  19.168  0.00  0.00    +0.000 A 
ATOM      5  N   UNL     1       3.013   2.366  20.305  0.00  0.00    +0.000 N 
ATOM      6  C   UNL     1       2.673   3.680  20.509  0.00  0.00    +0.000 A 
ATOM      7  O   UNL     1       2.170   4.041  21.570  0.00  0.00    +0.000 OA
ATOM      8  H   UNL     1       2.796   1.734  21.067  0.00  0.00    +0.000 HD
ENDROOT
BRANCH   1  16
ATOM      9  C   UNL     1       2.048   9.788  17.511  0.00  0.00    +0.000 C 
ATOM     10  C   UNL     1       1.613   9.300  18.862  0.00  0.00    +0.000 A 
ATOM     11  C   UNL     1       0.796  10.111  19.684  0.00  0.00    +0.000 A 
ATOM     12  C   UNL     1       0.353   9.692  20.952  0.00  0.00    +0.000 A 
ATOM     13  C   UNL     1       0.713   8.420  21.432  0.00  0.00    +0.000 A 
ATOM     14  C   UNL     1       1.507   7.622  20.595  0.00  0.00    +0.000 A 
ATOM     15  N   UNL     1       1.984   6.342  20.729  0.00  0.00    +0.000 N 
ATOM     16  C   UNL     1       2.627   5.993  19.565  0.00  0.00    +0.000 A 
ATOM     17  N   UNL     1       2.709   7.030  18.754  0.00  0.00    +0.000 NA
ATOM     18  C   UNL     1       1.962   8.025  19.348  0.00  0.00    +0.000 A 
ATOM     19  H   UNL     1       1.812   5.726  21.510  0.00  0.00    +0.000 HD
BRANCH  12  20
ATOM     20  N   UNL     1      -0.464  10.556  21.745  0.00  0.00    +0.000 N 
ATOM     21  C   UNL     1      -1.103  11.714  21.347  0.00  0.00    +0.000 A 
ATOM     22  C   UNL     1      -1.783  12.181  22.448  0.00  0.00    +0.000 A 
ATOM     23  N   UNL     1      -1.583  11.364  23.520  0.00  0.00    +0.000 NA
ATOM     24  C   UNL     1      -0.794  10.410  23.079  0.00  0.00    +0.000 A 
ENDBRANCH  12  20
ENDBRANCH   1  16
BRANCH   2  25
ATOM     25  N   UNL     1       3.936   4.931  17.137  0.00  0.00    +0.000 N 
ATOM     26  H   UNL     1       3.109   5.189  16.591  0.00  0.00    +0.000 HD
BRANCH  25  27
ATOM     27  C   UNL     1       4.944   4.381  16.202  0.00  0.00    +0.000 C 
BRANCH  27  28
ATOM     28  C   UNL     1       5.911   5.487  15.703  0.00  0.00    +0.000 C 
BRANCH  28  29
ATOM     29  C   UNL     1       6.812   5.948  16.828  0.00  0.00    +0.000 A 
ATOM     30  C   UNL     1       7.173   5.049  17.842  0.00  0.00    +0.000 A 
ATOM     31  C   UNL     1       7.911   5.478  18.948  0.00  0.00    +0.000 A 
ATOM     32  C   UNL     1       8.300   6.811  19.052  0.00  0.00    +0.000 A 
ATOM     33  C   UNL     1       7.967   7.720  18.043  0.00  0.00    +0.000 A 
ATOM     34  C   UNL     1       7.229   7.286  16.936  0.00  0.00    +0.000 A 
BRANCH  33  35
ATOM     35  C   UNL     1       8.360   9.093  18.156  0.00  0.00    +0.000 C 
ATOM     36  N   UNL     1       8.701  10.200  18.243  0.00  0.00    +0.000 NA
ENDBRANCH  33  35
ENDBRANCH  28  29
BRANCH  28  37
ATOM     37  O   UNL     1       5.188   6.601  15.165  0.00  0.00    +0.000 OA
ATOM     38  H   UNL     1       5.056   7.244  15.883  0.00  0.00    +0.000 HD
ENDBRANCH  28  37
ENDBRANCH  27  28
ENDBRANCH  25  27
ENDBRANCH   2  25
TORSDOF 8
ENDMDL
MODEL 2
REMARK VINA RESULT:      -9.3      1.920      3.368
REMARK  Name = 
REMARK  9 active torsions:
REMARK  status: ('A' for Active; 'I' for Inactive)
REMARK    1  A    between atoms: C_1  and  C_2
REMARK    2  A    between atoms: C_4  and  N_5
REMARK    3  A    between atoms: C_13  and  C_14
REMARK    4  A    between atoms: C_15  and  N_16
REMARK    5  A    between atoms: N_16  and  C_17
REMARK    6  A    between atoms: C_17  and  C_18
REMARK    7  A    between atoms: C_18  and  O_19
REMARK    8  A    between atoms: C_18  and  C_20
REMARK    9  A    between atoms: C_24  and  C_25
REMARK                            x       y       z     vdW  Elec       q    Type
REMARK                         _______ _______ _______ _____ _____    ______ ____
ROOT
ATOM      1  C   UNL     1       2.914   4.503  19.623  0.00  0.00    +0.000 A 
ATOM      2  C   UNL     1       4.164   4.076  19.322  0.00  0.00    +0.000 A 
ATOM      3  C   UNL     1       4.397   2.640  19.195  0.00  0.00    +0.000 A 
ATOM      4  C   UNL     1       3.408   1.753  19.356  0.00  0.00    +0.000 A 
ATOM      5  N   UNL     1       2.142   2.182  19.637  0.00  0.00    +0.000 N 
ATOM      6  C   UNL     1       1.801   3.503  19.787  0.00  0.00    +0.000 A 
ATOM      7  O   UNL     1       0.652   3.826  20.077  0.00  0.00    +0.000 OA
ATOM      8  H   UNL     1       1.386   1.518  19.754  0.00  0.00    +0.000 HD
ENDROOT
BRANCH   1  16
ATOM      9  C   UNL     1       2.079   9.602  17.550  0.00  0.00    +0.000 C 
ATOM     10  C   UNL     1       1.643   9.177  18.923  0.00  0.00    +0.000 A 
ATOM     11  C   UNL     1       0.854  10.040  19.718  0.00  0.00    +0.000 A 
ATOM     12  C   UNL     1       0.411   9.682  21.004  0.00  0.00    +0.000 A 
ATOM     13  C   UNL     1       0.744   8.421  21.532  0.00  0.00    +0.000 A 
ATOM     14  C   UNL     1       1.511   7.572  20.721  0.00  0.00    +0.000 A 
ATOM     15  N   UNL     1       1.958   6.287  20.902  0.00  0.00    +0.000 N 
ATOM     16  C   UNL     1       2.582   5.876  19.747  0.00  0.00    +0.000 A 
ATOM     17  N   UNL     1       2.682   6.879  18.895  0.00  0.00    +0.000 NA
ATOM     18  C   UNL     1       1.965   7.915  19.455  0.00  0.00    +0.000 A 
ATOM     19  H   UNL     1       1.777   5.706  21.707  0.00  0.00    +0.000 HD
BRANCH  12  20
ATOM     20  N   UNL     1      -0.378  10.597  21.769  0.00  0.00    +0.000 N 
ATOM     21  C   UNL     1      -0.859  11.830  21.375  0.00  0.00    +0.000 A 
ATOM     22  C   UNL     1      -1.580  12.323  22.439  0.00  0.00    +0.000 A 
ATOM     23  N   UNL     1      -1.555  11.450  23.485  0.00  0.00    +0.000 NA
ATOM     24  C   UNL     1      -0.832  10.435  23.064  0.00  0.00    +0.000 A 
ENDBRANCH  12  20
ENDBRANCH   1  16
BRANCH   2  25
ATOM     25  N   UNL     1       5.299   4.878  19.152  0.00  0.00    +0.000 N 
ATOM     26  H   UNL     1       5.082   5.856  19.366  0.00  0.00    +0.000 HD
BRANCH  25  27
ATOM     27  C   UNL     1       6.009   4.843  17.852  0.00  0.00    +0.000 C 
BRANCH  27  28
ATOM     28  C   UNL     1       5.037   5.114  16.674  0.00  0.00    +0.000 C 
BRANCH  28  29
ATOM     29  C   UNL     1       5.686   4.748  15.358  0.00  0.00    +0.000 A 
ATOM     30  C   UNL     1       7.025   5.092  15.124  0.00  0.00    +0.000 A 
ATOM     31  C   UNL     1       7.615   4.864  13.879  0.00  0.00    +0.000 A 
ATOM     32  C   UNL     1       6.873   4.286  12.851  0.00  0.00    +0.000 A 
ATOM     33  C   UNL     1       5.542   3.917  13.069  0.00  0.00    +0.000 A 
ATOM     34  C   UNL     1       4.956   4.146  14.319  0.00  0.00    +0.000 A 
BRANCH  33  35
ATOM     35  C   UNL     1       4.777   3.331  12.009  0.00  0.00    +0.000 C 
ATOM     36  N   UNL     1       4.160   2.877  11.136  0.00  0.00    +0.000 NA
ENDBRANCH  33  35
ENDBRANCH  28  29
BRANCH  28  37
ATOM     37  O   UNL     1       4.622   6.486  16.652  0.00  0.00    +0.000 OA
ATOM     38  H   UNL     1       5.392   7.025  16.404  0.00  0.00    +0.000 HD
ENDBRANCH  28  37
ENDBRANCH  27  28
ENDBRANCH  25  27
ENDBRANCH   2  25
TORSDOF 8
ENDMDL
MODEL 3
REMARK VINA RESULT:      -9.1      1.838      2.983
REMARK  Name = 
REMARK  9 active torsions:
REMARK  status: ('A' for Active; 'I' for Inactive)
REMARK    1  A    between atoms: C_1  and  C_2
REMARK    2  A    between atoms: C_4  and  N_5
REMARK    3  A    between atoms: C_13  and  C_14
REMARK    4  A    between atoms: C_15  and  N_16
REMARK    5  A    between atoms: N_16  and  C_17
REMARK    6  A    between atoms: C_17  and  C_18
REMARK    7  A    between atoms: C_18  and  O_19
REMARK    8  A    between atoms: C_18  and  C_20
REMARK    9  A    between atoms: C_24  and  C_25
REMARK                            x       y       z     vdW  Elec       q    Type
REMARK                         _______ _______ _______ _____ _____    ______ ____
ROOT
ATOM      1  C   UNL     1       2.934   4.804  19.707  0.00  0.00    +0.000 A 
ATOM      2  C   UNL     1       4.182   4.439  19.323  0.00  0.00    +0.000 A 
ATOM      3  C   UNL     1       4.487   3.015  19.211  0.00  0.00    +0.000 A 
ATOM      4  C   UNL     1       3.565   2.079  19.465  0.00  0.00    +0.000 A 
ATOM      5  N   UNL     1       2.301   2.444  19.830  0.00  0.00    +0.000 N 
ATOM      6  C   UNL     1       1.896   3.748  19.975  0.00  0.00    +0.000 A 
ATOM      7  O   UNL     1       0.755   4.013  20.343  0.00  0.00    +0.000 OA
ATOM      8  H   UNL     1       1.594   1.742  20.017  0.00  0.00    +0.000 HD
ENDROOT
BRANCH   1  16
ATOM      9  C   UNL     1       1.935   9.869  17.625  0.00  0.00    +0.000 C 
ATOM     10  C   UNL     1       1.470   9.416  18.979  0.00  0.00    +0.000 A 
ATOM     11  C   UNL     1       0.613  10.237  19.749  0.00  0.00    +0.000 A 
ATOM     12  C   UNL     1       0.141   9.850  21.016  0.00  0.00    +0.000 A 
ATOM     13  C   UNL     1       0.514   8.604  21.550  0.00  0.00    +0.000 A 
ATOM     14  C   UNL     1       1.349   7.796  20.765  0.00  0.00    +0.000 A 
ATOM     15  N   UNL     1       1.849   6.532  20.956  0.00  0.00    +0.000 N 
ATOM     16  C   UNL     1       2.534   6.158  19.823  0.00  0.00    +0.000 A 
ATOM     17  N   UNL     1       2.617   7.170  18.980  0.00  0.00    +0.000 NA
ATOM     18  C   UNL     1       1.832   8.167  19.518  0.00  0.00    +0.000 A 
ATOM     19  H   UNL     1       1.666   5.939  21.752  0.00  0.00    +0.000 HD
BRANCH  12  20
ATOM     20  N   UNL     1      -0.718  10.723  21.755  0.00  0.00    +0.000 N 
ATOM     21  C   UNL     1      -1.074  10.628  23.086  0.00  0.00    +0.000 A 
ATOM     22  C   UNL     1      -1.894  11.702  23.346  0.00  0.00    +0.000 A 
ATOM     23  N   UNL     1      -2.072  12.456  22.224  0.00  0.00    +0.000 NA
ATOM     24  C   UNL     1      -1.368  11.851  21.293  0.00  0.00    +0.000 A 
ENDBRANCH  12  20
ENDBRANCH   1  16
BRANCH   2  25
ATOM     25  N   UNL     1       5.254   5.298  19.052  0.00  0.00    +0.000 N 
ATOM     26  H   UNL     1       5.232   5.598  18.073  0.00  0.00    +0.000 HD
BRANCH  25  27
ATOM     27  C   UNL     1       6.629   4.840  19.357  0.00  0.00    +0.000 C 
BRANCH  27  28
ATOM     28  C   UNL     1       7.594   5.134  18.178  0.00  0.00    +0.000 C 
BRANCH  28  29
ATOM     29  C   UNL     1       6.813   5.430  16.916  0.00  0.00    +0.000 A 
ATOM     30  C   UNL     1       5.946   6.531  16.878  0.00  0.00    +0.000 A 
ATOM     31  C   UNL     1       5.132   6.762  15.767  0.00  0.00    +0.000 A 
ATOM     32  C   UNL     1       5.177   5.896  14.677  0.00  0.00    +0.000 A 
ATOM     33  C   UNL     1       6.048   4.802  14.686  0.00  0.00    +0.000 A 
ATOM     34  C   UNL     1       6.863   4.576  15.802  0.00  0.00    +0.000 A 
BRANCH  33  35
ATOM     35  C   UNL     1       6.088   3.906  13.570  0.00  0.00    +0.000 C 
ATOM     36  N   UNL     1       6.127   3.198  12.650  0.00  0.00    +0.000 NA
ENDBRANCH  33  35
ENDBRANCH  28  29
BRANCH  28  37
ATOM     37  O   UNL     1       8.488   4.036  17.956  0.00  0.00    +0.000 OA
ATOM     38  H   UNL     1       9.051   4.261  17.196  0.00  0.00    +0.000 HD
ENDBRANCH  28  37
ENDBRANCH  27  28
ENDBRANCH  25  27
ENDBRANCH   2  25
TORSDOF 8
ENDMDL
MODEL 4
REMARK VINA RESULT:      -8.5      1.942      2.777
REMARK  Name = 
REMARK  9 active torsions:
REMARK  status: ('A' for Active; 'I' for Inactive)
REMARK    1  A    between atoms: C_1  and  C_2
REMARK    2  A    between atoms: C_4  and  N_5
REMARK    3  A    between atoms: C_13  and  C_14
REMARK    4  A    between atoms: C_15  and  N_16
REMARK    5  A    between atoms: N_16  and  C_17
REMARK    6  A    between atoms: C_17  and  C_18
REMARK    7  A    between atoms: C_18  and  O_19
REMARK    8  A    between atoms: C_18  and  C_20
REMARK    9  A    between atoms: C_24  and  C_25
REMARK                            x       y       z     vdW  Elec       q    Type
REMARK                         _______ _______ _______ _____ _____    ______ ____
ROOT
ATOM      1  C   UNL     1       2.870   4.702  19.749  0.00  0.00    +0.000 A 
ATOM      2  C   UNL     1       4.155   4.309  19.574  0.00  0.00    +0.000 A 
ATOM      3  C   UNL     1       4.435   2.881  19.445  0.00  0.00    +0.000 A 
ATOM      4  C   UNL     1       3.456   1.969  19.484  0.00  0.00    +0.000 A 
ATOM      5  N   UNL     1       2.158   2.364  19.637  0.00  0.00    +0.000 N 
ATOM      6  C   UNL     1       1.771   3.674  19.775  0.00  0.00    +0.000 A 
ATOM      7  O   UNL     1       0.591   3.966  19.948  0.00  0.00    +0.000 OA
ATOM      8  H   UNL     1       1.409   1.682  19.661  0.00  0.00    +0.000 HD
ENDROOT
BRANCH   1  16
ATOM      9  C   UNL     1       1.984   9.784  17.657  0.00  0.00    +0.000 C 
ATOM     10  C   UNL     1       1.500   9.341  19.006  0.00  0.00    +0.000 A 
ATOM     11  C   UNL     1       0.651  10.178  19.768  0.00  0.00    +0.000 A 
ATOM     12  C   UNL     1       0.161   9.801  21.032  0.00  0.00    +0.000 A 
ATOM     13  C   UNL     1       0.506   8.548  21.570  0.00  0.00    +0.000 A 
ATOM     14  C   UNL     1       1.332   7.724  20.792  0.00  0.00    +0.000 A 
ATOM     15  N   UNL     1       1.807   6.452  20.988  0.00  0.00    +0.000 N 
ATOM     16  C   UNL     1       2.495   6.064  19.861  0.00  0.00    +0.000 A 
ATOM     17  N   UNL     1       2.604   7.073  19.018  0.00  0.00    +0.000 NA
ATOM     18  C   UNL     1       1.833   8.086  19.549  0.00  0.00    +0.000 A 
ATOM     19  H   UNL     1       1.607   5.862  21.783  0.00  0.00    +0.000 HD
BRANCH  12  20
ATOM     20  N   UNL     1      -0.687  10.690  21.763  0.00  0.00    +0.000 N 
ATOM     21  C   UNL     1      -1.293  11.844  21.308  0.00  0.00    +0.000 A 
ATOM     22  C   UNL     1      -2.025  12.341  22.362  0.00  0.00    +0.000 A 
ATOM     23  N   UNL     1      -1.888  11.546  23.461  0.00  0.00    +0.000 NA
ATOM     24  C   UNL     1      -1.086  10.576  23.081  0.00  0.00    +0.000 A 
ENDBRANCH  12  20
ENDBRANCH   1  16
BRANCH   2  25
ATOM     25  N   UNL     1       5.283   5.139  19.540  0.00  0.00    +0.000 N 
ATOM     26  H   UNL     1       5.235   5.837  20.289  0.00  0.00    +0.000 HD
BRANCH  25  27
ATOM     27  C   UNL     1       5.611   5.845  18.280  0.00  0.00    +0.000 C 
BRANCH  27  28
ATOM     28  C   UNL     1       6.907   5.282  17.641  0.00  0.00    +0.000 C 
BRANCH  28  29
ATOM     29  C   UNL     1       6.659   4.887  16.202  0.00  0.00    +0.000 A 
ATOM     30  C   UNL     1       5.805   3.813  15.913  0.00  0.00    +0.000 A 
ATOM     31  C   UNL     1       5.646   3.358  14.602  0.00  0.00    +0.000 A 
ATOM     32  C   UNL     1       6.336   3.975  13.562  0.00  0.00    +0.000 A 
ATOM     33  C   UNL     1       7.179   5.060  13.825  0.00  0.00    +0.000 A 
ATOM     34  C   UNL     1       7.333   5.513  15.140  0.00  0.00    +0.000 A 
BRANCH  33  35
ATOM     35  C   UNL     1       7.896   5.688  12.755  0.00  0.00    +0.000 C 
ATOM     36  N   UNL     1       8.498   6.184  11.895  0.00  0.00    +0.000 NA
ENDBRANCH  33  35
ENDBRANCH  28  29
BRANCH  28  37
ATOM     37  O   UNL     1       7.401   4.158  18.381  0.00  0.00    +0.000 OA
ATOM     38  H   UNL     1       8.358   4.280  18.503  0.00  0.00    +0.000 HD
ENDBRANCH  28  37
ENDBRANCH  27  28
ENDBRANCH  25  27
ENDBRANCH   2  25
TORSDOF 8
ENDMDL
MODEL 5
REMARK VINA RESULT:      -8.4      2.075      3.100
REMARK  Name = 
REMARK  9 active torsions:
REMARK  status: ('A' for Active; 'I' for Inactive)
REMARK    1  A    between atoms: C_1  and  C_2
REMARK    2  A    between atoms: C_4  and  N_5
REMARK    3  A    between atoms: C_13  and  C_14
REMARK    4  A    between atoms: C_15  and  N_16
REMARK    5  A    between atoms: N_16  and  C_17
REMARK    6  A    between atoms: C_17  and  C_18
REMARK    7  A    between atoms: C_18  and  O_19
REMARK    8  A    between atoms: C_18  and  C_20
REMARK    9  A    between atoms: C_24  and  C_25
REMARK                            x       y       z     vdW  Elec       q    Type
REMARK                         _______ _______ _______ _____ _____    ______ ____
ROOT
ATOM      1  C   UNL     1       3.156   4.008  18.959  0.00  0.00    +0.000 A 
ATOM      2  C   UNL     1       4.367   3.465  19.232  0.00  0.00    +0.000 A 
ATOM      3  C   UNL     1       4.584   2.054  18.923  0.00  0.00    +0.000 A 
ATOM      4  C   UNL     1       3.623   1.303  18.372  0.00  0.00    +0.000 A 
ATOM      5  N   UNL     1       2.410   1.852  18.074  0.00  0.00    +0.000 N 
ATOM      6  C   UNL     1       2.085   3.163  18.323  0.00  0.00    +0.000 A 
ATOM      7  O   UNL     1       0.962   3.591  18.068  0.00  0.00    +0.000 OA
ATOM      8  H   UNL     1       1.679   1.293  17.651  0.00  0.00    +0.000 HD
ENDROOT
BRANCH   1  16
ATOM      9  C   UNL     1       2.284   9.254  17.315  0.00  0.00    +0.000 C 
ATOM     10  C   UNL     1       1.923   8.735  18.676  0.00  0.00    +0.000 A 
ATOM     11  C   UNL     1       1.197   9.547  19.578  0.00  0.00    +0.000 A 
ATOM     12  C   UNL     1       0.825   9.101  20.859  0.00  0.00    +0.000 A 
ATOM     13  C   UNL     1       1.168   7.801  21.273  0.00  0.00    +0.000 A 
ATOM     14  C   UNL     1       1.871   7.004  20.358  0.00  0.00    +0.000 A 
ATOM     15  N   UNL     1       2.307   5.704  20.418  0.00  0.00    +0.000 N 
ATOM     16  C   UNL     1       2.855   5.372  19.201  0.00  0.00    +0.000 A 
ATOM     17  N   UNL     1       2.921   6.433  18.420  0.00  0.00    +0.000 NA
ATOM     18  C   UNL     1       2.256   7.433  19.095  0.00  0.00    +0.000 A 
ATOM     19  H   UNL     1       2.164   5.068  21.189  0.00  0.00    +0.000 HD
BRANCH  12  20
ATOM     20  N   UNL     1       0.098   9.967  21.734  0.00  0.00    +0.000 N 
ATOM     21  C   UNL     1      -0.220  11.296  21.534  0.00  0.00    +0.000 A 
ATOM     22  C   UNL     1      -0.943  11.692  22.636  0.00  0.00    +0.000 A 
ATOM     23  N   UNL     1      -1.077  10.664  23.520  0.00  0.00    +0.000 NA
ATOM     24  C   UNL     1      -0.447   9.653  22.965  0.00  0.00    +0.000 A 
ENDBRANCH  12  20
ENDBRANCH   1  16
BRANCH   2  25
ATOM     25  N   UNL     1       5.454   4.115  19.830  0.00  0.00    +0.000 N 
ATOM     26  H   UNL     1       5.315   4.187  20.842  0.00  0.00    +0.000 HD
BRANCH  25  27
ATOM     27  C   UNL     1       5.850   5.451  19.329  0.00  0.00    +0.000 C 
BRANCH  27  28
ATOM     28  C   UNL     1       6.974   5.343  18.265  0.00  0.00    +0.000 C 
BRANCH  28  29
ATOM     29  C   UNL     1       6.415   5.579  16.879  0.00  0.00    +0.000 A 
ATOM     30  C   UNL     1       5.607   6.698  16.637  0.00  0.00    +0.000 A 
ATOM     31  C   UNL     1       4.988   6.880  15.398  0.00  0.00    +0.000 A 
ATOM     32  C   UNL     1       5.174   5.944  14.383  0.00  0.00    +0.000 A 
ATOM     33  C   UNL     1       5.992   4.830  14.596  0.00  0.00    +0.000 A 
ATOM     34  C   UNL     1       6.611   4.654  15.839  0.00  0.00    +0.000 A 
BRANCH  33  35
ATOM     35  C   UNL     1       6.175   3.864  13.555  0.00  0.00    +0.000 C 
ATOM     36  N   UNL     1       6.315   3.097  12.694  0.00  0.00    +0.000 NA
ENDBRANCH  33  35
ENDBRANCH  28  29
BRANCH  28  37
ATOM     37  O   UNL     1       7.619   4.065  18.324  0.00  0.00    +0.000 OA
ATOM     38  H   UNL     1       8.385   4.146  18.918  0.00  0.00    +0.000 HD
ENDBRANCH  28  37
ENDBRANCH  27  28
ENDBRANCH  25  27
ENDBRANCH   2  25
TORSDOF 8
ENDMDL
MODEL 6
REMARK VINA RESULT:      -8.4      4.190     10.265
REMARK  Name = 
REMARK  9 active torsions:
REMARK  status: ('A' for Active; 'I' for Inactive)
REMARK    1  A    between atoms: C_1  and  C_2
REMARK    2  A    between atoms: C_4  and  N_5
REMARK    3  A    between atoms: C_13  and  C_14
REMARK    4  A    between atoms: C_15  and  N_16
REMARK    5  A    between atoms: N_16  and  C_17
REMARK    6  A    between atoms: C_17  and  C_18
REMARK    7  A    between atoms: C_18  and  O_19
REMARK    8  A    between atoms: C_18  and  C_20
REMARK    9  A    between atoms: C_24  and  C_25
REMARK                            x       y       z     vdW  Elec       q    Type
REMARK                         _______ _______ _______ _____ _____    ______ ____
ROOT
ATOM      1  C   UNL     1       0.281  10.877  19.405  0.00  0.00    +0.000 A 
ATOM      2  C   UNL     1      -0.752  11.081  18.551  0.00  0.00    +0.000 A 
ATOM      3  C   UNL     1      -1.535  12.307  18.686  0.00  0.00    +0.000 A 
ATOM      4  C   UNL     1      -1.246  13.224  19.617  0.00  0.00    +0.000 A 
ATOM      5  N   UNL     1      -0.192  13.032  20.464  0.00  0.00    +0.000 N 
ATOM      6  C   UNL     1       0.612  11.919  20.440  0.00  0.00    +0.000 A 
ATOM      7  O   UNL     1       1.523  11.785  21.252  0.00  0.00    +0.000 OA
ATOM      8  H   UNL     1       0.039  13.724  21.167  0.00  0.00    +0.000 HD
ENDROOT
BRANCH   1  16
ATOM      9  C   UNL     1       1.689   5.693  20.863  0.00  0.00    +0.000 C 
ATOM     10  C   UNL     1       2.266   6.412  19.679  0.00  0.00    +0.000 A 
ATOM     11  C   UNL     1       3.115   5.731  18.776  0.00  0.00    +0.000 A 
ATOM     12  C   UNL     1       3.669   6.360  17.646  0.00  0.00    +0.000 A 
ATOM     13  C   UNL     1       3.373   7.709  17.381  0.00  0.00    +0.000 A 
ATOM     14  C   UNL     1       2.514   8.362  18.277  0.00  0.00    +0.000 A 
ATOM     15  N   UNL     1       1.991   9.631  18.288  0.00  0.00    +0.000 N 
ATOM     16  C   UNL     1       1.113   9.731  19.342  0.00  0.00    +0.000 A 
ATOM     17  N   UNL     1       1.157   8.642  20.085  0.00  0.00    +0.000 NA
ATOM     18  C   UNL     1       1.968   7.760  19.402  0.00  0.00    +0.000 A 
ATOM     19  H   UNL     1       2.149  10.341  17.588  0.00  0.00    +0.000 HD
BRANCH  12  20
ATOM     20  N   UNL     1       4.528   5.626  16.770  0.00  0.00    +0.000 N 
ATOM     21  C   UNL     1       4.766   4.265  16.765  0.00  0.00    +0.000 A 
ATOM     22  C   UNL     1       5.641   4.028  15.730  0.00  0.00    +0.000 A 
ATOM     23  N   UNL     1       5.968   5.190  15.098  0.00  0.00    +0.000 NA
ATOM     24  C   UNL     1       5.299   6.124  15.737  0.00  0.00    +0.000 A 
ENDBRANCH  12  20
ENDBRANCH   1  16
BRANCH   2  25
ATOM     25  N   UNL     1      -1.189  10.205  17.550  0.00  0.00    +0.000 N 
ATOM     26  H   UNL     1      -0.938  10.566  16.625  0.00  0.00    +0.000 HD
BRANCH  25  27
ATOM     27  C   UNL     1      -2.619   9.820  17.516  0.00  0.00    +0.000 C 
BRANCH  27  28
ATOM     28  C   UNL     1      -3.419  10.716  16.534  0.00  0.00    +0.000 C 
BRANCH  28  29
ATOM     29  C   UNL     1      -4.744  11.119  17.145  0.00  0.00    +0.000 A 
ATOM     30  C   UNL     1      -5.378  12.293  16.716  0.00  0.00    +0.000 A 
ATOM     31  C   UNL     1      -6.543  12.745  17.341  0.00  0.00    +0.000 A 
ATOM     32  C   UNL     1      -7.091  12.025  18.400  0.00  0.00    +0.000 A 
ATOM     33  C   UNL     1      -6.485  10.841  18.831  0.00  0.00    +0.000 A 
ATOM     34  C   UNL     1      -5.319  10.391  18.201  0.00  0.00    +0.000 A 
BRANCH  33  35
ATOM     35  C   UNL     1      -7.043  10.106  19.927  0.00  0.00    +0.000 C 
ATOM     36  N   UNL     1      -7.475   9.497  20.816  0.00  0.00    +0.000 NA
ENDBRANCH  33  35
ENDBRANCH  28  29
BRANCH  28  37
ATOM     37  O   UNL     1      -3.638  10.047  15.285  0.00  0.00    +0.000 OA
ATOM     38  H   UNL     1      -4.574  10.161  15.048  0.00  0.00    +0.000 HD
ENDBRANCH  28  37
ENDBRANCH  27  28
ENDBRANCH  25  27
ENDBRANCH   2  25
TORSDOF 8
ENDMDL
MODEL 7
REMARK VINA RESULT:      -8.2      1.135      1.550
REMARK  Name = 
REMARK  9 active torsions:
REMARK  status: ('A' for Active; 'I' for Inactive)
REMARK    1  A    between atoms: C_1  and  C_2
REMARK    2  A    between atoms: C_4  and  N_5
REMARK    3  A    between atoms: C_13  and  C_14
REMARK    4  A    between atoms: C_15  and  N_16
REMARK    5  A    between atoms: N_16  and  C_17
REMARK    6  A    between atoms: C_17  and  C_18
REMARK    7  A    between atoms: C_18  and  O_19
REMARK    8  A    between atoms: C_18  and  C_20
REMARK    9  A    between atoms: C_24  and  C_25
REMARK                            x       y       z     vdW  Elec       q    Type
REMARK                         _______ _______ _______ _____ _____    ______ ____
ROOT
ATOM      1  C   UNL     1       2.799   4.486  19.192  0.00  0.00    +0.000 A 
ATOM      2  C   UNL     1       3.524   4.043  18.136  0.00  0.00    +0.000 A 
ATOM      3  C   UNL     1       3.725   2.604  17.984  0.00  0.00    +0.000 A 
ATOM      4  C   UNL     1       3.201   1.728  18.851  0.00  0.00    +0.000 A 
ATOM      5  N   UNL     1       2.451   2.171  19.902  0.00  0.00    +0.000 N 
ATOM      6  C   UNL     1       2.199   3.496  20.154  0.00  0.00    +0.000 A 
ATOM      7  O   UNL     1       1.547   3.835  21.139  0.00  0.00    +0.000 OA
ATOM      8  H   UNL     1       2.045   1.515  20.559  0.00  0.00    +0.000 HD
ENDROOT
BRANCH   1  16
ATOM      9  C   UNL     1       2.214   9.755  17.495  0.00  0.00    +0.000 C 
ATOM     10  C   UNL     1       1.749   9.252  18.830  0.00  0.00    +0.000 A 
ATOM     11  C   UNL     1       0.995  10.090  19.684  0.00  0.00    +0.000 A 
ATOM     12  C   UNL     1       0.526   9.660  20.939  0.00  0.00    +0.000 A 
ATOM     13  C   UNL     1       0.798   8.350  21.373  0.00  0.00    +0.000 A 
ATOM     14  C   UNL     1       1.530   7.528  20.506  0.00  0.00    +0.000 A 
ATOM     15  N   UNL     1       1.917   6.213  20.594  0.00  0.00    +0.000 N 
ATOM     16  C   UNL     1       2.530   5.860  19.414  0.00  0.00    +0.000 A 
ATOM     17  N   UNL     1       2.682   6.916  18.639  0.00  0.00    +0.000 NA
ATOM     18  C   UNL     1       2.009   7.940  19.270  0.00  0.00    +0.000 A 
ATOM     19  H   UNL     1       1.703   5.584  21.354  0.00  0.00    +0.000 HD
BRANCH  12  20
ATOM     20  N   UNL     1      -0.225  10.552  21.765  0.00  0.00    +0.000 N 
ATOM     21  C   UNL     1      -0.601  11.850  21.482  0.00  0.00    +0.000 A 
ATOM     22  C   UNL     1      -1.326  12.290  22.565  0.00  0.00    +0.000 A 
ATOM     23  N   UNL     1      -1.406  11.319  23.519  0.00  0.00    +0.000 NA
ATOM     24  C   UNL     1      -0.741  10.299  23.022  0.00  0.00    +0.000 A 
ENDBRANCH  12  20
ENDBRANCH   1  16
BRANCH   2  25
ATOM     25  N   UNL     1       4.154   4.835  17.168  0.00  0.00    +0.000 N 
ATOM     26  H   UNL     1       3.465   5.404  16.669  0.00  0.00    +0.000 HD
BRANCH  25  27
ATOM     27  C   UNL     1       5.016   4.176  16.160  0.00  0.00    +0.000 C 
BRANCH  27  28
ATOM     28  C   UNL     1       6.069   5.163  15.589  0.00  0.00    +0.000 C 
BRANCH  28  29
ATOM     29  C   UNL     1       6.711   5.955  16.707  0.00  0.00    +0.000 A 
ATOM     30  C   UNL     1       6.989   7.317  16.522  0.00  0.00    +0.000 A 
ATOM     31  C   UNL     1       7.681   8.044  17.493  0.00  0.00    +0.000 A 
ATOM     32  C   UNL     1       8.099   7.419  18.665  0.00  0.00    +0.000 A 
ATOM     33  C   UNL     1       7.815   6.066  18.879  0.00  0.00    +0.000 A 
ATOM     34  C   UNL     1       7.121   5.343  17.903  0.00  0.00    +0.000 A 
BRANCH  33  35
ATOM     35  C   UNL     1       8.255   5.422  20.080  0.00  0.00    +0.000 C 
ATOM     36  N   UNL     1       8.596   4.879  21.049  0.00  0.00    +0.000 NA
ENDBRANCH  33  35
ENDBRANCH  28  29
BRANCH  28  37
ATOM     37  O   UNL     1       5.478   6.052  14.633  0.00  0.00    +0.000 OA
ATOM     38  H   UNL     1       4.743   6.513  15.072  0.00  0.00    +0.000 HD
ENDBRANCH  28  37
ENDBRANCH  27  28
ENDBRANCH  25  27
ENDBRANCH   2  25
TORSDOF 8
ENDMDL
MODEL 8
REMARK VINA RESULT:      -8.2      2.322      8.264
REMARK  Name = 
REMARK  9 active torsions:
REMARK  status: ('A' for Active; 'I' for Inactive)
REMARK    1  A    between atoms: C_1  and  C_2
REMARK    2  A    between atoms: C_4  and  N_5
REMARK    3  A    between atoms: C_13  and  C_14
REMARK    4  A    between atoms: C_15  and  N_16
REMARK    5  A    between atoms: N_16  and  C_17
REMARK    6  A    between atoms: C_17  and  C_18
REMARK    7  A    between atoms: C_18  and  O_19
REMARK    8  A    between atoms: C_18  and  C_20
REMARK    9  A    between atoms: C_24  and  C_25
REMARK                            x       y       z     vdW  Elec       q    Type
REMARK                         _______ _______ _______ _____ _____    ______ ____
ROOT
ATOM      1  C   UNL     1       3.288   3.773  19.912  0.00  0.00    +0.000 A 
ATOM      2  C   UNL     1       2.152   4.351  20.372  0.00  0.00    +0.000 A 
ATOM      3  C   UNL     1       1.436   3.704  21.468  0.00  0.00    +0.000 A 
ATOM      4  C   UNL     1       1.885   2.574  22.027  0.00  0.00    +0.000 A 
ATOM      5  N   UNL     1       3.041   2.002  21.582  0.00  0.00    +0.000 N 
ATOM      6  C   UNL     1       3.797   2.511  20.555  0.00  0.00    +0.000 A 
ATOM      7  O   UNL     1       4.810   1.930  20.173  0.00  0.00    +0.000 OA
ATOM      8  H   UNL     1       3.392   1.150  22.003  0.00  0.00    +0.000 HD
ENDROOT
BRANCH   1  16
ATOM      9  C   UNL     1       7.586   6.737  17.981  0.00  0.00    +0.000 C 
ATOM     10  C   UNL     1       6.745   5.833  17.128  0.00  0.00    +0.000 A 
ATOM     11  C   UNL     1       7.108   5.582  15.784  0.00  0.00    +0.000 A 
ATOM     12  C   UNL     1       6.360   4.732  14.949  0.00  0.00    +0.000 A 
ATOM     13  C   UNL     1       5.213   4.092  15.452  0.00  0.00    +0.000 A 
ATOM     14  C   UNL     1       4.880   4.338  16.792  0.00  0.00    +0.000 A 
ATOM     15  N   UNL     1       3.880   3.848  17.595  0.00  0.00    +0.000 N 
ATOM     16  C   UNL     1       4.065   4.334  18.868  0.00  0.00    +0.000 A 
ATOM     17  N   UNL     1       5.044   5.219  18.886  0.00  0.00    +0.000 NA
ATOM     18  C   UNL     1       5.601   5.182  17.625  0.00  0.00    +0.000 A 
ATOM     19  H   UNL     1       3.182   3.171  17.323  0.00  0.00    +0.000 HD
BRANCH  12  20
ATOM     20  N   UNL     1       6.767   4.520  13.595  0.00  0.00    +0.000 N 
ATOM     21  C   UNL     1       6.316   3.552  12.720  0.00  0.00    +0.000 A 
ATOM     22  C   UNL     1       6.980   3.761  11.533  0.00  0.00    +0.000 A 
ATOM     23  N   UNL     1       7.838   4.815  11.640  0.00  0.00    +0.000 NA
ATOM     24  C   UNL     1       7.697   5.245  12.874  0.00  0.00    +0.000 A 
ENDBRANCH  12  20
ENDBRANCH   1  16
BRANCH   2  25
ATOM     25  N   UNL     1       1.548   5.512  19.873  0.00  0.00    +0.000 N 
ATOM     26  H   UNL     1       1.684   5.578  18.860  0.00  0.00    +0.000 HD
BRANCH  25  27
ATOM     27  C   UNL     1       1.915   6.818  20.467  0.00  0.00    +0.000 C 
BRANCH  27  28
ATOM     28  C   UNL     1       2.191   7.878  19.369  0.00  0.00    +0.000 C 
BRANCH  28  29
ATOM     29  C   UNL     1       1.199   9.016  19.470  0.00  0.00    +0.000 A 
ATOM     30  C   UNL     1       0.734   9.637  18.303  0.00  0.00    +0.000 A 
ATOM     31  C   UNL     1      -0.095  10.760  18.372  0.00  0.00    +0.000 A 
ATOM     32  C   UNL     1      -0.473  11.272  19.611  0.00  0.00    +0.000 A 
ATOM     33  C   UNL     1      -0.037  10.655  20.787  0.00  0.00    +0.000 A 
ATOM     34  C   UNL     1       0.792   9.530  20.713  0.00  0.00    +0.000 A 
BRANCH  33  35
ATOM     35  C   UNL     1      -0.419  11.188  22.061  0.00  0.00    +0.000 C 
ATOM     36  N   UNL     1      -0.732  11.642  23.083  0.00  0.00    +0.000 NA
ENDBRANCH  33  35
ENDBRANCH  28  29
BRANCH  28  37
ATOM     37  O   UNL     1       2.137   7.293  18.062  0.00  0.00    +0.000 OA
ATOM     38  H   UNL     1       1.584   7.866  17.503  0.00  0.00    +0.000 HD
ENDBRANCH  28  37
ENDBRANCH  27  28
ENDBRANCH  25  27
ENDBRANCH   2  25
TORSDOF 8
ENDMDL
MODEL 9
REMARK VINA RESULT:      -8.1      4.452     10.290
REMARK  Name = 
REMARK  9 active torsions:
REMARK  status: ('A' for Active; 'I' for Inactive)
REMARK    1  A    between atoms: C_1  and  C_2
REMARK    2  A    between atoms: C_4  and  N_5
REMARK    3  A    between atoms: C_13  and  C_14
REMARK    4  A    between atoms: C_15  and  N_16
REMARK    5  A    between atoms: N_16  and  C_17
REMARK    6  A    between atoms: C_17  and  C_18
REMARK    7  A    between atoms: C_18  and  O_19
REMARK    8  A    between atoms: C_18  and  C_20
REMARK    9  A    between atoms: C_24  and  C_25
REMARK                            x       y       z     vdW  Elec       q    Type
REMARK                         _______ _______ _______ _____ _____    ______ ____
ROOT
ATOM      1  C   UNL     1       0.285  10.818  19.418  0.00  0.00    +0.000 A 
ATOM      2  C   UNL     1      -0.726  11.041  18.544  0.00  0.00    +0.000 A 
ATOM      3  C   UNL     1      -1.533  12.248  18.708  0.00  0.00    +0.000 A 
ATOM      4  C   UNL     1      -1.286  13.128  19.684  0.00  0.00    +0.000 A 
ATOM      5  N   UNL     1      -0.254  12.917  20.553  0.00  0.00    +0.000 N 
ATOM      6  C   UNL     1       0.569  11.819  20.505  0.00  0.00    +0.000 A 
ATOM      7  O   UNL     1       1.459  11.665  21.337  0.00  0.00    +0.000 OA
ATOM      8  H   UNL     1      -0.056  13.581  21.291  0.00  0.00    +0.000 HD
ENDROOT
BRANCH   1  16
ATOM      9  C   UNL     1       1.781   5.624  20.751  0.00  0.00    +0.000 C 
ATOM     10  C   UNL     1       2.351   6.384  19.589  0.00  0.00    +0.000 A 
ATOM     11  C   UNL     1       3.216   5.742  18.674  0.00  0.00    +0.000 A 
ATOM     12  C   UNL     1       3.765   6.408  17.563  0.00  0.00    +0.000 A 
ATOM     13  C   UNL     1       3.445   7.758  17.331  0.00  0.00    +0.000 A 
ATOM     14  C   UNL     1       2.570   8.373  18.238  0.00  0.00    +0.000 A 
ATOM     15  N   UNL     1       2.024   9.632  18.279  0.00  0.00    +0.000 N 
ATOM     16  C   UNL     1       1.138   9.689  19.330  0.00  0.00    +0.000 A 
ATOM     17  N   UNL     1       1.199   8.582  20.045  0.00  0.00    +0.000 NA
ATOM     18  C   UNL     1       2.030   7.733  19.345  0.00  0.00    +0.000 A 
ATOM     19  H   UNL     1       2.172  10.362  17.598  0.00  0.00    +0.000 HD
BRANCH  12  20
ATOM     20  N   UNL     1       4.641   5.713  16.673  0.00  0.00    +0.000 N 
ATOM     21  C   UNL     1       4.922   4.361  16.651  0.00  0.00    +0.000 A 
ATOM     22  C   UNL     1       5.798   4.164  15.609  0.00  0.00    +0.000 A 
ATOM     23  N   UNL     1       6.083   5.343  14.988  0.00  0.00    +0.000 NA
ATOM     24  C   UNL     1       5.388   6.248  15.641  0.00  0.00    +0.000 A 
ENDBRANCH  12  20
ENDBRANCH   1  16
BRANCH   2  25
ATOM     25  N   UNL     1      -1.119  10.202  17.494  0.00  0.00    +0.000 N 
ATOM     26  H   UNL     1      -0.851  10.608  16.592  0.00  0.00    +0.000 HD
BRANCH  25  27
ATOM     27  C   UNL     1      -2.540   9.793  17.404  0.00  0.00    +0.000 C 
BRANCH  27  28
ATOM     28  C   UNL     1      -3.339  10.736  16.466  0.00  0.00    +0.000 C 
BRANCH  28  29
ATOM     29  C   UNL     1      -4.617  11.190  17.137  0.00  0.00    +0.000 A 
ATOM     30  C   UNL     1      -5.195  10.397  18.139  0.00  0.00    +0.000 A 
ATOM     31  C   UNL     1      -6.430  10.736  18.695  0.00  0.00    +0.000 A 
ATOM     32  C   UNL     1      -7.102  11.876  18.258  0.00  0.00    +0.000 A 
ATOM     33  C   UNL     1      -6.535  12.691  17.273  0.00  0.00    +0.000 A 
ATOM     34  C   UNL     1      -5.296  12.347  16.720  0.00  0.00    +0.000 A 
BRANCH  33  35
ATOM     35  C   UNL     1      -7.231  13.857  16.818  0.00  0.00    +0.000 C 
ATOM     36  N   UNL     1      -7.817  14.791  16.453  0.00  0.00    +0.000 NA
ENDBRANCH  33  35
ENDBRANCH  28  29
BRANCH  28  37
ATOM     37  O   UNL     1      -3.639  10.092  15.221  0.00  0.00    +0.000 OA
ATOM     38  H   UNL     1      -4.452   9.573  15.344  0.00  0.00    +0.000 HD
ENDBRANCH  28  37
ENDBRANCH  27  28
ENDBRANCH  25  27
ENDBRANCH   2  25
TORSDOF 8
ENDMDL
