MODEL 1
REMARK VINA RESULT:      -8.3      0.000      0.000
REMARK  Name = 
REMARK  2 active torsions:
REMARK  status: ('A' for Active; 'I' for Inactive)
REMARK    1  A    between atoms: C_2  and  C_3
REMARK    2  A    between atoms: C_3  and  C_4
REMARK                            x       y       z     vdW  Elec       q    Type
REMARK                         _______ _______ _______ _____ _____    ______ ____
ROOT
ATOM      1  O   UNL     1       7.529   6.850  16.412  0.00  0.00    +0.000 OA
ATOM      2  C   UNL     1       6.772   5.896  16.621  0.00  0.00    +0.000 C 
ATOM      3  N   UNL     1       5.656   6.115  17.400  0.00  0.00    +0.000 N 
ATOM      4  C   UNL     1       4.510   5.392  17.630  0.00  0.00    +0.000 A 
ATOM      5  N   UNL     1       4.232   4.300  17.019  0.00  0.00    +0.000 NA
ATOM      6  C   UNL     1       3.053   3.629  17.220  0.00  0.00    +0.000 A 
ATOM      7  O   UNL     1       2.586   2.885  16.364  0.00  0.00    +0.000 OA
ATOM      8  C   UNL     1       2.336   3.729  18.514  0.00  0.00    +0.000 A 
ATOM      9  C   UNL     1       1.468   2.698  18.903  0.00  0.00    +0.000 A 
ATOM     10  C   UNL     1       0.789   2.774  20.119  0.00  0.00    +0.000 A 
ATOM     11  C   UNL     1       0.972   3.881  20.942  0.00  0.00    +0.000 A 
ATOM     12  C   UNL     1       1.821   4.918  20.547  0.00  0.00    +0.000 A 
ATOM     13  C   UNL     1       2.507   4.846  19.327  0.00  0.00    +0.000 A 
ATOM     14  S   UNL     1       3.530   6.197  18.818  0.00  0.00    +0.000 S 
ATOM     15  H   UNL     1       5.653   7.045  17.798  0.00  0.00    +0.000 HD
ENDROOT
BRANCH   2  16
ATOM     16  C   UNL     1       7.088   4.507  16.096  0.00  0.00    +0.000 C 
BRANCH  16  17
ATOM     17  C   UNL     1       6.968   4.426  14.591  0.00  0.00    +0.000 A 
ATOM     18  C   UNL     1       6.034   3.569  13.995  0.00  0.00    +0.000 A 
ATOM     19  C   UNL     1       5.931   3.492  12.604  0.00  0.00    +0.000 A 
ATOM     20  C   UNL     1       6.756   4.271  11.795  0.00  0.00    +0.000 A 
ATOM     21  C   UNL     1       7.681   5.138  12.376  0.00  0.00    +0.000 A 
ATOM     22  C   UNL     1       7.782   5.220  13.765  0.00  0.00    +0.000 A 
ENDBRANCH  16  17
ENDBRANCH   2  16
TORSDOF 2
ENDMDL
MODEL 2
REMARK VINA RESULT:      -8.0      0.405      1.122
REMARK  Name = 
REMARK  2 active torsions:
REMARK  status: ('A' for Active; 'I' for Inactive)
REMARK    1  A    between atoms: C_2  and  C_3
REMARK    2  A    between atoms: C_3  and  C_4
REMARK                            x       y       z     vdW  Elec       q    Type
REMARK                         _______ _______ _______ _____ _____    ______ ____
ROOT
ATOM      1  O   UNL     1       7.525   6.689  16.343  0.00  0.00    +0.000 OA
ATOM      2  C   UNL     1       6.768   5.743  16.582  0.00  0.00    +0.000 C 
ATOM      3  N   UNL     1       5.753   5.941  17.494  0.00  0.00    +0.000 N 
ATOM      4  C   UNL     1       4.618   5.231  17.810  0.00  0.00    +0.000 A 
ATOM      5  N   UNL     1       4.241   4.186  17.173  0.00  0.00    +0.000 NA
ATOM      6  C   UNL     1       3.072   3.532  17.467  0.00  0.00    +0.000 A 
ATOM      7  O   UNL     1       2.490   2.852  16.629  0.00  0.00    +0.000 OA
ATOM      8  C   UNL     1       2.508   3.569  18.838  0.00  0.00    +0.000 A 
ATOM      9  C   UNL     1       1.659   2.537  19.263  0.00  0.00    +0.000 A 
ATOM     10  C   UNL     1       1.123   2.555  20.551  0.00  0.00    +0.000 A 
ATOM     11  C   UNL     1       1.430   3.605  21.411  0.00  0.00    +0.000 A 
ATOM     12  C   UNL     1       2.261   4.643  20.982  0.00  0.00    +0.000 A 
ATOM     13  C   UNL     1       2.803   4.630  19.690  0.00  0.00    +0.000 A 
ATOM     14  S   UNL     1       3.803   5.986  19.148  0.00  0.00    +0.000 S 
ATOM     15  H   UNL     1       5.823   6.844  17.943  0.00  0.00    +0.000 HD
ENDROOT
BRANCH   2  16
ATOM     16  C   UNL     1       6.980   4.382  15.944  0.00  0.00    +0.000 C 
BRANCH  16  17
ATOM     17  C   UNL     1       7.023   4.459  14.435  0.00  0.00    +0.000 A 
ATOM     18  C   UNL     1       7.859   5.381  13.792  0.00  0.00    +0.000 A 
ATOM     19  C   UNL     1       7.892   5.453  12.397  0.00  0.00    +0.000 A 
ATOM     20  C   UNL     1       7.093   4.606  11.632  0.00  0.00    +0.000 A 
ATOM     21  C   UNL     1       6.267   3.675  12.260  0.00  0.00    +0.000 A 
ATOM     22  C   UNL     1       6.237   3.597  13.653  0.00  0.00    +0.000 A 
ENDBRANCH  16  17
ENDBRANCH   2  16
TORSDOF 2
ENDMDL
MODEL 3
REMARK VINA RESULT:      -8.0      1.809      2.262
REMARK  Name = 
REMARK  2 active torsions:
REMARK  status: ('A' for Active; 'I' for Inactive)
REMARK    1  A    between atoms: C_2  and  C_3
REMARK    2  A    between atoms: C_3  and  C_4
REMARK                            x       y       z     vdW  Elec       q    Type
REMARK                         _______ _______ _______ _____ _____    ______ ____
ROOT
ATOM      1  O   UNL     1       8.290   4.180  16.703  0.00  0.00    +0.000 OA
ATOM      2  C   UNL     1       7.111   4.508  16.872  0.00  0.00    +0.000 C 
ATOM      3  N   UNL     1       6.459   4.021  17.984  0.00  0.00    +0.000 N 
ATOM      4  C   UNL     1       5.278   4.355  18.606  0.00  0.00    +0.000 A 
ATOM      5  N   UNL     1       4.550   5.347  18.248  0.00  0.00    +0.000 NA
ATOM      6  C   UNL     1       3.409   5.697  18.923  0.00  0.00    +0.000 A 
ATOM      7  O   UNL     1       2.973   6.843  18.892  0.00  0.00    +0.000 OA
ATOM      8  C   UNL     1       2.622   4.680  19.661  0.00  0.00    +0.000 A 
ATOM      9  C   UNL     1       1.257   4.900  19.896  0.00  0.00    +0.000 A 
ATOM     10  C   UNL     1       0.502   3.950  20.585  0.00  0.00    +0.000 A 
ATOM     11  C   UNL     1       1.111   2.786  21.044  0.00  0.00    +0.000 A 
ATOM     12  C   UNL     1       2.474   2.575  20.827  0.00  0.00    +0.000 A 
ATOM     13  C   UNL     1       3.238   3.524  20.135  0.00  0.00    +0.000 A 
ATOM     14  S   UNL     1       4.976   3.264  19.926  0.00  0.00    +0.000 S 
ATOM     15  H   UNL     1       7.023   3.350  18.487  0.00  0.00    +0.000 HD
ENDROOT
BRANCH   2  16
ATOM     16  C   UNL     1       6.377   5.367  15.858  0.00  0.00    +0.000 C 
BRANCH  16  17
ATOM     17  C   UNL     1       6.550   4.856  14.446  0.00  0.00    +0.000 A 
ATOM     18  C   UNL     1       7.567   5.360  13.625  0.00  0.00    +0.000 A 
ATOM     19  C   UNL     1       7.720   4.889  12.318  0.00  0.00    +0.000 A 
ATOM     20  C   UNL     1       6.861   3.911  11.820  0.00  0.00    +0.000 A 
ATOM     21  C   UNL     1       5.853   3.393  12.632  0.00  0.00    +0.000 A 
ATOM     22  C   UNL     1       5.702   3.857  13.938  0.00  0.00    +0.000 A 
ENDBRANCH  16  17
ENDBRANCH   2  16
TORSDOF 2
ENDMDL
MODEL 4
REMARK VINA RESULT:      -7.8      4.436      5.832
REMARK  Name = 
REMARK  2 active torsions:
REMARK  status: ('A' for Active; 'I' for Inactive)
REMARK    1  A    between atoms: C_2  and  C_3
REMARK    2  A    between atoms: C_3  and  C_4
REMARK                            x       y       z     vdW  Elec       q    Type
REMARK                         _______ _______ _______ _____ _____    ______ ____
ROOT
ATOM      1  O   UNL     1       3.196   4.381  20.350  0.00  0.00    +0.000 OA
ATOM      2  C   UNL     1       2.662   5.303  19.724  0.00  0.00    +0.000 C 
ATOM      3  N   UNL     1       2.255   6.414  20.430  0.00  0.00    +0.000 N 
ATOM      4  C   UNL     1       1.871   7.681  20.057  0.00  0.00    +0.000 A 
ATOM      5  N   UNL     1       1.910   8.099  18.846  0.00  0.00    +0.000 NA
ATOM      6  C   UNL     1       1.580   9.387  18.507  0.00  0.00    +0.000 A 
ATOM      7  O   UNL     1       2.025   9.916  17.494  0.00  0.00    +0.000 OA
ATOM      8  C   UNL     1       0.613  10.161  19.322  0.00  0.00    +0.000 A 
ATOM      9  C   UNL     1      -0.097  11.216  18.733  0.00  0.00    +0.000 A 
ATOM     10  C   UNL     1      -1.013  11.952  19.485  0.00  0.00    +0.000 A 
ATOM     11  C   UNL     1      -1.215  11.638  20.825  0.00  0.00    +0.000 A 
ATOM     12  C   UNL     1      -0.493  10.599  21.419  0.00  0.00    +0.000 A 
ATOM     13  C   UNL     1       0.427   9.856  20.669  0.00  0.00    +0.000 A 
ATOM     14  S   UNL     1       1.374   8.585  21.456  0.00  0.00    +0.000 S 
ATOM     15  H   UNL     1       2.361   6.285  21.427  0.00  0.00    +0.000 HD
ENDROOT
BRANCH   2  16
ATOM     16  C   UNL     1       2.398   5.195  18.233  0.00  0.00    +0.000 C 
BRANCH  16  17
ATOM     17  C   UNL     1       3.678   5.178  17.427  0.00  0.00    +0.000 A 
ATOM     18  C   UNL     1       4.147   3.987  16.860  0.00  0.00    +0.000 A 
ATOM     19  C   UNL     1       5.333   3.974  16.121  0.00  0.00    +0.000 A 
ATOM     20  C   UNL     1       6.059   5.149  15.940  0.00  0.00    +0.000 A 
ATOM     21  C   UNL     1       5.595   6.344  16.488  0.00  0.00    +0.000 A 
ATOM     22  C   UNL     1       4.409   6.360  17.222  0.00  0.00    +0.000 A 
ENDBRANCH  16  17
ENDBRANCH   2  16
TORSDOF 2
ENDMDL
MODEL 5
REMARK VINA RESULT:      -7.8      1.330      1.330
REMARK  Name = 
REMARK  2 active torsions:
REMARK  status: ('A' for Active; 'I' for Inactive)
REMARK    1  A    between atoms: C_2  and  C_3
REMARK    2  A    between atoms: C_3  and  C_4
REMARK                            x       y       z     vdW  Elec       q    Type
REMARK                         _______ _______ _______ _____ _____    ______ ____
ROOT
ATOM      1  O   UNL     1       5.286   7.284  15.159  0.00  0.00    +0.000 OA
ATOM      2  C   UNL     1       5.250   6.267  15.859  0.00  0.00    +0.000 C 
ATOM      3  N   UNL     1       4.232   6.154  16.782  0.00  0.00    +0.000 N 
ATOM      4  C   UNL     1       3.745   5.104  17.525  0.00  0.00    +0.000 A 
ATOM      5  N   UNL     1       4.165   3.900  17.402  0.00  0.00    +0.000 NA
ATOM      6  C   UNL     1       3.621   2.859  18.110  0.00  0.00    +0.000 A 
ATOM      7  O   UNL     1       3.680   1.705  17.699  0.00  0.00    +0.000 OA
ATOM      8  C   UNL     1       3.001   3.088  19.438  0.00  0.00    +0.000 A 
ATOM      9  C   UNL     1       2.923   2.031  20.355  0.00  0.00    +0.000 A 
ATOM     10  C   UNL     1       2.347   2.231  21.609  0.00  0.00    +0.000 A 
ATOM     11  C   UNL     1       1.844   3.484  21.945  0.00  0.00    +0.000 A 
ATOM     12  C   UNL     1       1.903   4.534  21.025  0.00  0.00    +0.000 A 
ATOM     13  C   UNL     1       2.482   4.339  19.764  0.00  0.00    +0.000 A 
ATOM     14  S   UNL     1       2.492   5.665  18.592  0.00  0.00    +0.000 S 
ATOM     15  H   UNL     1       3.680   6.999  16.838  0.00  0.00    +0.000 HD
ENDROOT
BRANCH   2  16
ATOM     16  C   UNL     1       6.324   5.199  15.759  0.00  0.00    +0.000 C 
BRANCH  16  17
ATOM     17  C   UNL     1       6.512   4.711  14.340  0.00  0.00    +0.000 A 
ATOM     18  C   UNL     1       5.624   3.782  13.783  0.00  0.00    +0.000 A 
ATOM     19  C   UNL     1       5.804   3.328  12.473  0.00  0.00    +0.000 A 
ATOM     20  C   UNL     1       6.870   3.799  11.709  0.00  0.00    +0.000 A 
ATOM     21  C   UNL     1       7.753   4.734  12.248  0.00  0.00    +0.000 A 
ATOM     22  C   UNL     1       7.571   5.192  13.553  0.00  0.00    +0.000 A 
ENDBRANCH  16  17
ENDBRANCH   2  16
TORSDOF 2
ENDMDL
MODEL 6
REMARK VINA RESULT:      -7.8      1.682      1.847
REMARK  Name = 
REMARK  2 active torsions:
REMARK  status: ('A' for Active; 'I' for Inactive)
REMARK    1  A    between atoms: C_2  and  C_3
REMARK    2  A    between atoms: C_3  and  C_4
REMARK                            x       y       z     vdW  Elec       q    Type
REMARK                         _______ _______ _______ _____ _____    ______ ____
ROOT
ATOM      1  O   UNL     1       8.027   4.467  16.176  0.00  0.00    +0.000 OA
ATOM      2  C   UNL     1       6.817   4.622  16.374  0.00  0.00    +0.000 C 
ATOM      3  N   UNL     1       6.303   4.213  17.585  0.00  0.00    +0.000 N 
ATOM      4  C   UNL     1       5.110   4.444  18.230  0.00  0.00    +0.000 A 
ATOM      5  N   UNL     1       4.210   5.239  17.782  0.00  0.00    +0.000 NA
ATOM      6  C   UNL     1       3.056   5.501  18.474  0.00  0.00    +0.000 A 
ATOM      7  O   UNL     1       2.431   6.543  18.306  0.00  0.00    +0.000 OA
ATOM      8  C   UNL     1       2.483   4.495  19.401  0.00  0.00    +0.000 A 
ATOM      9  C   UNL     1       1.112   4.526  19.692  0.00  0.00    +0.000 A 
ATOM     10  C   UNL     1       0.557   3.584  20.559  0.00  0.00    +0.000 A 
ATOM     11  C   UNL     1       1.372   2.618  21.140  0.00  0.00    +0.000 A 
ATOM     12  C   UNL     1       2.742   2.598  20.866  0.00  0.00    +0.000 A 
ATOM     13  C   UNL     1       3.305   3.540  19.995  0.00  0.00    +0.000 A 
ATOM     14  S   UNL     1       5.051   3.534  19.710  0.00  0.00    +0.000 S 
ATOM     15  H   UNL     1       6.993   3.726  18.141  0.00  0.00    +0.000 HD
ENDROOT
BRANCH   2  16
ATOM     16  C   UNL     1       5.907   5.186  15.298  0.00  0.00    +0.000 C 
BRANCH  16  17
ATOM     17  C   UNL     1       6.185   4.582  13.940  0.00  0.00    +0.000 A 
ATOM     18  C   UNL     1       5.337   3.603  13.408  0.00  0.00    +0.000 A 
ATOM     19  C   UNL     1       5.600   3.043  12.155  0.00  0.00    +0.000 A 
ATOM     20  C   UNL     1       6.712   3.455  11.423  0.00  0.00    +0.000 A 
ATOM     21  C   UNL     1       7.557   4.438  11.936  0.00  0.00    +0.000 A 
ATOM     22  C   UNL     1       7.292   5.002  13.184  0.00  0.00    +0.000 A 
ENDBRANCH  16  17
ENDBRANCH   2  16
TORSDOF 2
ENDMDL
MODEL 7
REMARK VINA RESULT:      -7.7      1.366      1.724
REMARK  Name = 
REMARK  2 active torsions:
REMARK  status: ('A' for Active; 'I' for Inactive)
REMARK    1  A    between atoms: C_2  and  C_3
REMARK    2  A    between atoms: C_3  and  C_4
REMARK                            x       y       z     vdW  Elec       q    Type
REMARK                         _______ _______ _______ _____ _____    ______ ____
ROOT
ATOM      1  O   UNL     1       5.234   7.296  15.139  0.00  0.00    +0.000 OA
ATOM      2  C   UNL     1       5.222   6.287  15.852  0.00  0.00    +0.000 C 
ATOM      3  N   UNL     1       4.211   6.165  16.781  0.00  0.00    +0.000 N 
ATOM      4  C   UNL     1       3.750   5.114  17.540  0.00  0.00    +0.000 A 
ATOM      5  N   UNL     1       4.195   3.918  17.429  0.00  0.00    +0.000 NA
ATOM      6  C   UNL     1       3.676   2.875  18.153  0.00  0.00    +0.000 A 
ATOM      7  O   UNL     1       3.757   1.718  17.757  0.00  0.00    +0.000 OA
ATOM      8  C   UNL     1       3.058   3.108  19.481  0.00  0.00    +0.000 A 
ATOM      9  C   UNL     1       3.007   2.060  20.412  0.00  0.00    +0.000 A 
ATOM     10  C   UNL     1       2.433   2.264  21.667  0.00  0.00    +0.000 A 
ATOM     11  C   UNL     1       1.906   3.510  21.989  0.00  0.00    +0.000 A 
ATOM     12  C   UNL     1       1.939   4.550  21.056  0.00  0.00    +0.000 A 
ATOM     13  C   UNL     1       2.515   4.352  19.795  0.00  0.00    +0.000 A 
ATOM     14  S   UNL     1       2.492   5.663  18.607  0.00  0.00    +0.000 S 
ATOM     15  H   UNL     1       3.642   6.999  16.830  0.00  0.00    +0.000 HD
ENDROOT
BRANCH   2  16
ATOM     16  C   UNL     1       6.318   5.241  15.759  0.00  0.00    +0.000 C 
BRANCH  16  17
ATOM     17  C   UNL     1       6.499   4.729  14.348  0.00  0.00    +0.000 A 
ATOM     18  C   UNL     1       7.550   5.196  13.549  0.00  0.00    +0.000 A 
ATOM     19  C   UNL     1       7.711   4.724  12.244  0.00  0.00    +0.000 A 
ATOM     20  C   UNL     1       6.825   3.780  11.725  0.00  0.00    +0.000 A 
ATOM     21  C   UNL     1       5.783   3.298  12.515  0.00  0.00    +0.000 A 
ATOM     22  C   UNL     1       5.624   3.764  13.821  0.00  0.00    +0.000 A 
ENDBRANCH  16  17
ENDBRANCH   2  16
TORSDOF 2
ENDMDL
MODEL 8
REMARK VINA RESULT:      -7.7      4.135      5.511
REMARK  Name = 
REMARK  2 active torsions:
REMARK  status: ('A' for Active; 'I' for Inactive)
REMARK    1  A    between atoms: C_2  and  C_3
REMARK    2  A    between atoms: C_3  and  C_4
REMARK                            x       y       z     vdW  Elec       q    Type
REMARK                         _______ _______ _______ _____ _____    ______ ____
ROOT
ATOM      1  O   UNL     1       3.547   4.091  20.027  0.00  0.00    +0.000 OA
ATOM      2  C   UNL     1       3.011   5.017  19.410  0.00  0.00    +0.000 C 
ATOM      3  N   UNL     1       2.529   6.084  20.136  0.00  0.00    +0.000 N 
ATOM      4  C   UNL     1       2.116   7.350  19.791  0.00  0.00    +0.000 A 
ATOM      5  N   UNL     1       2.200   7.817  18.601  0.00  0.00    +0.000 NA
ATOM      6  C   UNL     1       1.840   9.105  18.294  0.00  0.00    +0.000 A 
ATOM      7  O   UNL     1       2.315   9.689  17.326  0.00  0.00    +0.000 OA
ATOM      8  C   UNL     1       0.805   9.811  19.087  0.00  0.00    +0.000 A 
ATOM      9  C   UNL     1       0.086  10.864  18.502  0.00  0.00    +0.000 A 
ATOM     10  C   UNL     1      -0.893  11.536  19.233  0.00  0.00    +0.000 A 
ATOM     11  C   UNL     1      -1.149  11.163  20.549  0.00  0.00    +0.000 A 
ATOM     12  C   UNL     1      -0.420  10.127  21.139  0.00  0.00    +0.000 A 
ATOM     13  C   UNL     1       0.564   9.447  20.409  0.00  0.00    +0.000 A 
ATOM     14  S   UNL     1       1.517   8.180  21.195  0.00  0.00    +0.000 S 
ATOM     15  H   UNL     1       2.590   5.920  21.131  0.00  0.00    +0.000 HD
ENDROOT
BRANCH   2  16
ATOM     16  C   UNL     1       2.826   4.959  17.904  0.00  0.00    +0.000 C 
BRANCH  16  17
ATOM     17  C   UNL     1       4.144   5.009  17.165  0.00  0.00    +0.000 A 
ATOM     18  C   UNL     1       4.989   6.120  17.287  0.00  0.00    +0.000 A 
ATOM     19  C   UNL     1       6.204   6.165  16.599  0.00  0.00    +0.000 A 
ATOM     20  C   UNL     1       6.588   5.101  15.784  0.00  0.00    +0.000 A 
ATOM     21  C   UNL     1       5.762   3.984  15.664  0.00  0.00    +0.000 A 
ATOM     22  C   UNL     1       4.551   3.935  16.356  0.00  0.00    +0.000 A 
ENDBRANCH  16  17
ENDBRANCH   2  16
TORSDOF 2
ENDMDL
MODEL 9
REMARK VINA RESULT:      -7.5      3.443      5.257
REMARK  Name = 
REMARK  2 active torsions:
REMARK  status: ('A' for Active; 'I' for Inactive)
REMARK    1  A    between atoms: C_2  and  C_3
REMARK    2  A    between atoms: C_3  and  C_4
REMARK                            x       y       z     vdW  Elec       q    Type
REMARK                         _______ _______ _______ _____ _____    ______ ____
ROOT
ATOM      1  O   UNL     1       5.157   6.538  15.716  0.00  0.00    +0.000 OA
ATOM      2  C   UNL     1       4.720   6.593  16.870  0.00  0.00    +0.000 C 
ATOM      3  N   UNL     1       3.705   7.487  17.134  0.00  0.00    +0.000 N 
ATOM      4  C   UNL     1       2.837   7.644  18.189  0.00  0.00    +0.000 A 
ATOM      5  N   UNL     1       2.779   6.832  19.178  0.00  0.00    +0.000 NA
ATOM      6  C   UNL     1       1.861   6.975  20.188  0.00  0.00    +0.000 A 
ATOM      7  O   UNL     1       1.496   6.017  20.861  0.00  0.00    +0.000 OA
ATOM      8  C   UNL     1       1.332   8.312  20.547  0.00  0.00    +0.000 A 
ATOM      9  C   UNL     1       0.833   8.534  21.839  0.00  0.00    +0.000 A 
ATOM     10  C   UNL     1       0.335   9.787  22.193  0.00  0.00    +0.000 A 
ATOM     11  C   UNL     1       0.328  10.817  21.257  0.00  0.00    +0.000 A 
ATOM     12  C   UNL     1       0.806  10.592  19.964  0.00  0.00    +0.000 A 
ATOM     13  C   UNL     1       1.310   9.335  19.602  0.00  0.00    +0.000 A 
ATOM     14  S   UNL     1       1.853   9.056  17.941  0.00  0.00    +0.000 S 
ATOM     15  H   UNL     1       3.509   8.080  16.338  0.00  0.00    +0.000 HD
ENDROOT
BRANCH   2  16
ATOM     16  C   UNL     1       5.318   5.751  17.982  0.00  0.00    +0.000 C 
BRANCH  16  17
ATOM     17  C   UNL     1       4.594   4.435  18.154  0.00  0.00    +0.000 A 
ATOM     18  C   UNL     1       4.765   3.674  19.317  0.00  0.00    +0.000 A 
ATOM     19  C   UNL     1       4.099   2.456  19.471  0.00  0.00    +0.000 A 
ATOM     20  C   UNL     1       3.254   1.987  18.466  0.00  0.00    +0.000 A 
ATOM     21  C   UNL     1       3.065   2.742  17.309  0.00  0.00    +0.000 A 
ATOM     22  C   UNL     1       3.725   3.961  17.157  0.00  0.00    +0.000 A 
ENDBRANCH  16  17
ENDBRANCH   2  16
TORSDOF 2
ENDMDL
