MODEL 1
REMARK VINA RESULT:      -7.5      0.000      0.000
REMARK  Name = 
REMARK  5 active torsions:
REMARK  status: ('A' for Active; 'I' for Inactive)
REMARK    1  A    between atoms: C_1  and  O_2
REMARK    2  A    between atoms: O_2  and  C_3
REMARK    3  A    between atoms: C_12  and  C_13
REMARK    4  A    between atoms: C_17  and  O_18
REMARK    5  A    between atoms: N_22  and  C_23
REMARK                            x       y       z     vdW  Elec       q    Type
REMARK                         _______ _______ _______ _____ _____    ______ ____
ROOT
ATOM      1  C   UNL     1       6.683   7.331  17.758  0.00  0.00    +0.000 A 
ATOM      2  C   UNL     1       7.830   6.625  18.082  0.00  0.00    +0.000 A 
ATOM      3  C   UNL     1       7.746   5.321  18.572  0.00  0.00    +0.000 A 
ATOM      4  C   UNL     1       6.479   4.762  18.741  0.00  0.00    +0.000 A 
ATOM      5  N   UNL     1       6.141   3.489  19.143  0.00  0.00    +0.000 N 
ATOM      6  C   UNL     1       4.808   3.322  19.033  0.00  0.00    +0.000 A 
ATOM      7  C   UNL     1       4.162   4.557  18.720  0.00  0.00    +0.000 A 
ATOM      8  C   UNL     1       5.285   5.444  18.450  0.00  0.00    +0.000 A 
ATOM      9  C   UNL     1       5.426   6.752  17.943  0.00  0.00    +0.000 A 
ATOM     10  C   UNL     1       2.479   4.685  18.351  0.00  0.00    +0.000 C 
ATOM     11  C   UNL     1       0.977   4.482  19.006  0.00  0.00    +0.000 C 
ATOM     12  C   UNL     1       0.497   3.232  19.804  0.00  0.00    +0.000 C 
ATOM     13  N   UNL     1       1.547   2.262  20.174  0.00  0.00    +0.000 NA
ATOM     14  C   UNL     1       1.985   2.688  21.560  0.00  0.00    +0.000 C 
ATOM     15  C   UNL     1       2.639   2.474  19.188  0.00  0.00    +0.000 C 
ATOM     16  C   UNL     1       4.090   1.990  19.196  0.00  0.00    +0.000 C 
ATOM     17  C   UNL     1       2.399   3.260  17.765  0.00  0.00    +0.000 C 
ATOM     18  H   UNL     1       6.816   2.768  19.373  0.00  0.00    +0.000 HD
ENDROOT
BRANCH  10  19
ATOM     19  C   UNL     1       2.395   6.177  18.475  0.00  0.00    +0.000 A 
ATOM     20  C   UNL     1       2.414   7.102  17.435  0.00  0.00    +0.000 A 
ATOM     21  C   UNL     1       2.239   8.464  17.733  0.00  0.00    +0.000 A 
ATOM     22  C   UNL     1       2.044   8.925  19.047  0.00  0.00    +0.000 A 
ATOM     23  C   UNL     1       1.970   8.009  20.078  0.00  0.00    +0.000 A 
ATOM     24  C   UNL     1       2.110   6.664  19.803  0.00  0.00    +0.000 A 
BRANCH  23  25
ATOM     25  O   UNL     1       1.738   8.379  21.368  0.00  0.00    +0.000 OA
ATOM     26  H   UNL     1       0.781   8.424  21.509  0.00  0.00    +0.000 HD
ENDBRANCH  23  25
ENDBRANCH  10  19
BRANCH   1  28
ATOM     27  C   UNL     1       7.819   9.381  17.574  0.00  0.00    +0.000 C 
ATOM     28  O   UNL     1       6.658   8.616  17.283  0.00  0.00    +0.000 OA
ENDBRANCH   1  28
TORSDOF 3
ENDMDL
MODEL 2
REMARK VINA RESULT:      -6.7      8.853     10.821
REMARK  Name = 
REMARK  5 active torsions:
REMARK  status: ('A' for Active; 'I' for Inactive)
REMARK    1  A    between atoms: C_1  and  O_2
REMARK    2  A    between atoms: O_2  and  C_3
REMARK    3  A    between atoms: C_12  and  C_13
REMARK    4  A    between atoms: C_17  and  O_18
REMARK    5  A    between atoms: N_22  and  C_23
REMARK                            x       y       z     vdW  Elec       q    Type
REMARK                         _______ _______ _______ _____ _____    ______ ____
ROOT
ATOM      1  C   UNL     1       5.926  13.485  23.361  0.00  0.00    +0.000 A 
ATOM      2  C   UNL     1       6.199  12.267  23.962  0.00  0.00    +0.000 A 
ATOM      3  C   UNL     1       7.313  11.520  23.576  0.00  0.00    +0.000 A 
ATOM      4  C   UNL     1       8.127  12.027  22.563  0.00  0.00    +0.000 A 
ATOM      5  N   UNL     1       9.301  11.515  22.058  0.00  0.00    +0.000 N 
ATOM      6  C   UNL     1       9.837  12.393  21.186  0.00  0.00    +0.000 A 
ATOM      7  C   UNL     1       8.935  13.471  20.928  0.00  0.00    +0.000 A 
ATOM      8  C   UNL     1       7.880  13.244  21.905  0.00  0.00    +0.000 A 
ATOM      9  C   UNL     1       6.751  13.967  22.343  0.00  0.00    +0.000 A 
ATOM     10  C   UNL     1       9.353  14.857  19.985  0.00  0.00    +0.000 C 
ATOM     11  C   UNL     1       9.775  15.321  18.457  0.00  0.00    +0.000 C 
ATOM     12  C   UNL     1      10.867  14.645  17.573  0.00  0.00    +0.000 C 
ATOM     13  N   UNL     1      11.400  13.363  18.077  0.00  0.00    +0.000 NA
ATOM     14  C   UNL     1      10.541  12.308  17.411  0.00  0.00    +0.000 C 
ATOM     15  C   UNL     1      11.161  13.389  19.543  0.00  0.00    +0.000 C 
ATOM     16  C   UNL     1      11.226  12.266  20.579  0.00  0.00    +0.000 C 
ATOM     17  C   UNL     1      10.848  14.782  20.358  0.00  0.00    +0.000 C 
ATOM     18  H   UNL     1       9.737  10.660  22.388  0.00  0.00    +0.000 HD
ENDROOT
BRANCH  10  19
ATOM     19  C   UNL     1       7.954  15.370  19.817  0.00  0.00    +0.000 A 
ATOM     20  C   UNL     1       7.412  16.515  20.396  0.00  0.00    +0.000 A 
ATOM     21  C   UNL     1       6.101  16.891  20.058  0.00  0.00    +0.000 A 
ATOM     22  C   UNL     1       5.319  16.153  19.153  0.00  0.00    +0.000 A 
ATOM     23  C   UNL     1       5.868  15.047  18.533  0.00  0.00    +0.000 A 
ATOM     24  C   UNL     1       7.164  14.677  18.829  0.00  0.00    +0.000 A 
BRANCH  23  25
ATOM     25  O   UNL     1       5.185  14.312  17.613  0.00  0.00    +0.000 OA
ATOM     26  H   UNL     1       5.527  14.525  16.732  0.00  0.00    +0.000 HD
ENDBRANCH  23  25
ENDBRANCH  10  19
BRANCH   1  28
ATOM     27  C   UNL     1       4.241  14.899  22.533  0.00  0.00    +0.000 C 
ATOM     28  O   UNL     1       4.855  14.285  23.657  0.00  0.00    +0.000 OA
ENDBRANCH   1  28
TORSDOF 3
ENDMDL
MODEL 3
REMARK VINA RESULT:      -6.6      7.162     10.715
REMARK  Name = 
REMARK  5 active torsions:
REMARK  status: ('A' for Active; 'I' for Inactive)
REMARK    1  A    between atoms: C_1  and  O_2
REMARK    2  A    between atoms: O_2  and  C_3
REMARK    3  A    between atoms: C_12  and  C_13
REMARK    4  A    between atoms: C_17  and  O_18
REMARK    5  A    between atoms: N_22  and  C_23
REMARK                            x       y       z     vdW  Elec       q    Type
REMARK                         _______ _______ _______ _____ _____    ______ ____
ROOT
ATOM      1  C   UNL     1      -3.263  10.954  16.752  0.00  0.00    +0.000 A 
ATOM      2  C   UNL     1      -4.638  10.971  16.588  0.00  0.00    +0.000 A 
ATOM      3  C   UNL     1      -5.460  11.556  17.553  0.00  0.00    +0.000 A 
ATOM      4  C   UNL     1      -4.858  12.102  18.688  0.00  0.00    +0.000 A 
ATOM      5  N   UNL     1      -5.440  12.779  19.735  0.00  0.00    +0.000 N 
ATOM      6  C   UNL     1      -4.479  13.259  20.550  0.00  0.00    +0.000 A 
ATOM      7  C   UNL     1      -3.194  12.758  20.174  0.00  0.00    +0.000 A 
ATOM      8  C   UNL     1      -3.471  12.087  18.913  0.00  0.00    +0.000 A 
ATOM      9  C   UNL     1      -2.685  11.499  17.900  0.00  0.00    +0.000 A 
ATOM     10  C   UNL     1      -1.717  13.288  20.898  0.00  0.00    +0.000 C 
ATOM     11  C   UNL     1      -0.894  13.302  22.329  0.00  0.00    +0.000 C 
ATOM     12  C   UNL     1      -1.482  13.723  23.710  0.00  0.00    +0.000 C 
ATOM     13  N   UNL     1      -2.946  13.913  23.755  0.00  0.00    +0.000 NA
ATOM     14  C   UNL     1      -3.489  12.570  24.196  0.00  0.00    +0.000 C 
ATOM     15  C   UNL     1      -3.345  14.209  22.355  0.00  0.00    +0.000 C 
ATOM     16  C   UNL     1      -4.727  14.225  21.699  0.00  0.00    +0.000 C 
ATOM     17  C   UNL     1      -2.264  14.695  21.216  0.00  0.00    +0.000 C 
ATOM     18  H   UNL     1      -6.433  12.975  19.803  0.00  0.00    +0.000 HD
ENDROOT
BRANCH  10  19
ATOM     19  C   UNL     1      -0.861  12.187  20.349  0.00  0.00    +0.000 A 
ATOM     20  C   UNL     1       0.076  12.293  19.325  0.00  0.00    +0.000 A 
ATOM     21  C   UNL     1       0.854  11.168  18.996  0.00  0.00    +0.000 A 
ATOM     22  C   UNL     1       0.719   9.942  19.668  0.00  0.00    +0.000 A 
ATOM     23  C   UNL     1      -0.169   9.843  20.721  0.00  0.00    +0.000 A 
ATOM     24  C   UNL     1      -0.922  10.944  21.079  0.00  0.00    +0.000 A 
BRANCH  23  25
ATOM     25  O   UNL     1      -0.319   8.701  21.446  0.00  0.00    +0.000 OA
ATOM     26  H   UNL     1       0.351   8.689  22.145  0.00  0.00    +0.000 HD
ENDBRANCH  23  25
ENDBRANCH  10  19
BRANCH   1  28
ATOM     27  C   UNL     1      -2.916  10.074  14.600  0.00  0.00    +0.000 C 
ATOM     28  O   UNL     1      -2.373  10.396  15.873  0.00  0.00    +0.000 OA
ENDBRANCH   1  28
TORSDOF 3
ENDMDL
MODEL 4
REMARK VINA RESULT:      -6.5      7.317     10.677
REMARK  Name = 
REMARK  5 active torsions:
REMARK  status: ('A' for Active; 'I' for Inactive)
REMARK    1  A    between atoms: C_1  and  O_2
REMARK    2  A    between atoms: O_2  and  C_3
REMARK    3  A    between atoms: C_12  and  C_13
REMARK    4  A    between atoms: C_17  and  O_18
REMARK    5  A    between atoms: N_22  and  C_23
REMARK                            x       y       z     vdW  Elec       q    Type
REMARK                         _______ _______ _______ _____ _____    ______ ____
ROOT
ATOM      1  C   UNL     1      -2.177  10.532  17.761  0.00  0.00    +0.000 A 
ATOM      2  C   UNL     1      -3.453  10.582  17.224  0.00  0.00    +0.000 A 
ATOM      3  C   UNL     1      -4.432  11.394  17.798  0.00  0.00    +0.000 A 
ATOM      4  C   UNL     1      -4.092  12.135  18.931  0.00  0.00    +0.000 A 
ATOM      5  N   UNL     1      -4.852  13.044  19.631  0.00  0.00    +0.000 N 
ATOM      6  C   UNL     1      -4.091  13.636  20.574  0.00  0.00    +0.000 A 
ATOM      7  C   UNL     1      -2.812  13.005  20.668  0.00  0.00    +0.000 A 
ATOM      8  C   UNL     1      -2.820  12.099  19.528  0.00  0.00    +0.000 A 
ATOM      9  C   UNL     1      -1.864  11.275  18.900  0.00  0.00    +0.000 A 
ATOM     10  C   UNL     1      -1.527  13.600  21.657  0.00  0.00    +0.000 C 
ATOM     11  C   UNL     1      -1.106  13.873  23.231  0.00  0.00    +0.000 C 
ATOM     12  C   UNL     1      -1.986  14.601  24.292  0.00  0.00    +0.000 C 
ATOM     13  N   UNL     1      -3.383  14.868  23.896  0.00  0.00    +0.000 NA
ATOM     14  C   UNL     1      -4.159  13.675  24.414  0.00  0.00    +0.000 C 
ATOM     15  C   UNL     1      -3.372  14.885  22.410  0.00  0.00    +0.000 C 
ATOM     16  C   UNL     1      -4.527  14.831  21.408  0.00  0.00    +0.000 C 
ATOM     17  C   UNL     1      -1.988  15.069  21.543  0.00  0.00    +0.000 C 
ATOM     18  H   UNL     1      -5.803  13.298  19.386  0.00  0.00    +0.000 HD
ENDROOT
BRANCH  10  19
ATOM     19  C   UNL     1      -0.676  12.368  21.582  0.00  0.00    +0.000 A 
ATOM     20  C   UNL     1       0.507  12.215  20.864  0.00  0.00    +0.000 A 
ATOM     21  C   UNL     1       1.220  11.009  20.978  0.00  0.00    +0.000 A 
ATOM     22  C   UNL     1       0.781   9.953  21.794  0.00  0.00    +0.000 A 
ATOM     23  C   UNL     1      -0.362  10.117  22.552  0.00  0.00    +0.000 A 
ATOM     24  C   UNL     1      -1.062  11.304  22.477  0.00  0.00    +0.000 A 
BRANCH  23  25
ATOM     25  O   UNL     1      -0.821   9.155  23.399  0.00  0.00    +0.000 OA
ATOM     26  H   UNL     1      -1.601   8.741  23.002  0.00  0.00    +0.000 HD
ENDBRANCH  23  25
ENDBRANCH  10  19
BRANCH   1  28
ATOM     27  C   UNL     1       0.058   9.849  18.020  0.00  0.00    +0.000 C 
ATOM     28  O   UNL     1      -1.152   9.759  17.281  0.00  0.00    +0.000 OA
ENDBRANCH   1  28
TORSDOF 3
ENDMDL
MODEL 5
REMARK VINA RESULT:      -6.3      8.928     11.818
REMARK  Name = 
REMARK  5 active torsions:
REMARK  status: ('A' for Active; 'I' for Inactive)
REMARK    1  A    between atoms: C_1  and  O_2
REMARK    2  A    between atoms: O_2  and  C_3
REMARK    3  A    between atoms: C_12  and  C_13
REMARK    4  A    between atoms: C_17  and  O_18
REMARK    5  A    between atoms: N_22  and  C_23
REMARK                            x       y       z     vdW  Elec       q    Type
REMARK                         _______ _______ _______ _____ _____    ______ ____
ROOT
ATOM      1  C   UNL     1      -6.863  12.073  20.386  0.00  0.00    +0.000 A 
ATOM      2  C   UNL     1      -7.159  11.841  19.053  0.00  0.00    +0.000 A 
ATOM      3  C   UNL     1      -6.140  11.778  18.101  0.00  0.00    +0.000 A 
ATOM      4  C   UNL     1      -4.826  11.972  18.528  0.00  0.00    +0.000 A 
ATOM      5  N   UNL     1      -3.660  11.896  17.802  0.00  0.00    +0.000 N 
ATOM      6  C   UNL     1      -2.604  12.012  18.633  0.00  0.00    +0.000 A 
ATOM      7  C   UNL     1      -3.029  12.359  19.952  0.00  0.00    +0.000 A 
ATOM      8  C   UNL     1      -4.477  12.235  19.864  0.00  0.00    +0.000 A 
ATOM      9  C   UNL     1      -5.541  12.273  20.788  0.00  0.00    +0.000 A 
ATOM     10  C   UNL     1      -1.959  12.435  21.308  0.00  0.00    +0.000 C 
ATOM     11  C   UNL     1      -0.655  13.255  21.900  0.00  0.00    +0.000 C 
ATOM     12  C   UNL     1       0.652  13.571  21.113  0.00  0.00    +0.000 C 
ATOM     13  N   UNL     1       0.613  13.295  19.662  0.00  0.00    +0.000 NA
ATOM     14  C   UNL     1       0.196  14.610  19.037  0.00  0.00    +0.000 C 
ATOM     15  C   UNL     1      -0.448  12.269  19.489  0.00  0.00    +0.000 C 
ATOM     16  C   UNL     1      -1.157  11.778  18.225  0.00  0.00    +0.000 C 
ATOM     17  C   UNL     1      -1.007  11.361  20.740  0.00  0.00    +0.000 C 
ATOM     18  H   UNL     1      -3.620  11.672  16.813  0.00  0.00    +0.000 HD
ENDROOT
BRANCH  10  19
ATOM     19  C   UNL     1      -2.903  13.157  22.222  0.00  0.00    +0.000 A 
ATOM     20  C   UNL     1      -3.389  14.452  22.063  0.00  0.00    +0.000 A 
ATOM     21  C   UNL     1      -4.337  14.939  22.980  0.00  0.00    +0.000 A 
ATOM     22  C   UNL     1      -4.813  14.162  24.049  0.00  0.00    +0.000 A 
ATOM     23  C   UNL     1      -4.377  12.858  24.183  0.00  0.00    +0.000 A 
ATOM     24  C   UNL     1      -3.467  12.351  23.277  0.00  0.00    +0.000 A 
BRANCH  23  25
ATOM     25  O   UNL     1      -4.829  12.035  25.168  0.00  0.00    +0.000 OA
ATOM     26  H   UNL     1      -4.140  11.953  25.843  0.00  0.00    +0.000 HD
ENDBRANCH  23  25
ENDBRANCH  10  19
BRANCH   1  28
ATOM     27  C   UNL     1      -7.883  13.448  21.998  0.00  0.00    +0.000 C 
ATOM     28  O   UNL     1      -7.788  12.166  21.392  0.00  0.00    +0.000 OA
ENDBRANCH   1  28
TORSDOF 3
ENDMDL
MODEL 6
REMARK VINA RESULT:      -6.3      8.620     11.119
REMARK  Name = 
REMARK  5 active torsions:
REMARK  status: ('A' for Active; 'I' for Inactive)
REMARK    1  A    between atoms: C_1  and  O_2
REMARK    2  A    between atoms: O_2  and  C_3
REMARK    3  A    between atoms: C_12  and  C_13
REMARK    4  A    between atoms: C_17  and  O_18
REMARK    5  A    between atoms: N_22  and  C_23
REMARK                            x       y       z     vdW  Elec       q    Type
REMARK                         _______ _______ _______ _____ _____    ______ ____
ROOT
ATOM      1  C   UNL     1      -4.774  11.249  17.498  0.00  0.00    +0.000 A 
ATOM      2  C   UNL     1      -3.923  10.877  16.470  0.00  0.00    +0.000 A 
ATOM      3  C   UNL     1      -2.540  10.977  16.623  0.00  0.00    +0.000 A 
ATOM      4  C   UNL     1      -2.045  11.475  17.829  0.00  0.00    +0.000 A 
ATOM      5  N   UNL     1      -0.738  11.609  18.239  0.00  0.00    +0.000 N 
ATOM      6  C   UNL     1      -0.708  12.000  19.528  0.00  0.00    +0.000 A 
ATOM      7  C   UNL     1      -2.020  12.328  19.993  0.00  0.00    +0.000 A 
ATOM      8  C   UNL     1      -2.865  11.889  18.891  0.00  0.00    +0.000 A 
ATOM      9  C   UNL     1      -4.255  11.753  18.692  0.00  0.00    +0.000 A 
ATOM     10  C   UNL     1      -2.379  12.715  21.638  0.00  0.00    +0.000 C 
ATOM     11  C   UNL     1      -2.075  13.833  22.815  0.00  0.00    +0.000 C 
ATOM     12  C   UNL     1      -0.667  14.374  23.210  0.00  0.00    +0.000 C 
ATOM     13  N   UNL     1       0.441  14.007  22.304  0.00  0.00    +0.000 NA
ATOM     14  C   UNL     1       0.529  15.161  21.326  0.00  0.00    +0.000 C 
ATOM     15  C   UNL     1      -0.009  12.768  21.618  0.00  0.00    +0.000 C 
ATOM     16  C   UNL     1       0.549  12.060  20.383  0.00  0.00    +0.000 C 
ATOM     17  C   UNL     1      -1.237  11.840  22.195  0.00  0.00    +0.000 C 
ATOM     18  H   UNL     1       0.064  11.338  17.679  0.00  0.00    +0.000 HD
ENDROOT
BRANCH  10  19
ATOM     19  C   UNL     1      -3.747  13.272  21.382  0.00  0.00    +0.000 A 
ATOM     20  C   UNL     1      -4.960  12.717  21.781  0.00  0.00    +0.000 A 
ATOM     21  C   UNL     1      -6.148  13.424  21.526  0.00  0.00    +0.000 A 
ATOM     22  C   UNL     1      -6.152  14.674  20.883  0.00  0.00    +0.000 A 
ATOM     23  C   UNL     1      -4.950  15.256  20.532  0.00  0.00    +0.000 A 
ATOM     24  C   UNL     1      -3.770  14.592  20.799  0.00  0.00    +0.000 A 
BRANCH  23  25
ATOM     25  O   UNL     1      -4.877  16.484  19.947  0.00  0.00    +0.000 OA
ATOM     26  H   UNL     1      -5.623  17.017  20.256  0.00  0.00    +0.000 HD
ENDBRANCH  23  25
ENDBRANCH  10  19
BRANCH   1  28
ATOM     27  C   UNL     1      -6.776  10.850  18.665  0.00  0.00    +0.000 C 
ATOM     28  O   UNL     1      -6.142  11.202  17.443  0.00  0.00    +0.000 OA
ENDBRANCH   1  28
TORSDOF 3
ENDMDL
MODEL 7
REMARK VINA RESULT:      -6.2      8.143     11.077
REMARK  Name = 
REMARK  5 active torsions:
REMARK  status: ('A' for Active; 'I' for Inactive)
REMARK    1  A    between atoms: C_1  and  O_2
REMARK    2  A    between atoms: O_2  and  C_3
REMARK    3  A    between atoms: C_12  and  C_13
REMARK    4  A    between atoms: C_17  and  O_18
REMARK    5  A    between atoms: N_22  and  C_23
REMARK                            x       y       z     vdW  Elec       q    Type
REMARK                         _______ _______ _______ _____ _____    ______ ____
ROOT
ATOM      1  C   UNL     1      -0.123  12.589  20.746  0.00  0.00    +0.000 A 
ATOM      2  C   UNL     1       0.286  11.668  19.796  0.00  0.00    +0.000 A 
ATOM      3  C   UNL     1      -0.638  11.092  18.923  0.00  0.00    +0.000 A 
ATOM      4  C   UNL     1      -1.979  11.457  19.048  0.00  0.00    +0.000 A 
ATOM      5  N   UNL     1      -3.054  11.081  18.276  0.00  0.00    +0.000 N 
ATOM      6  C   UNL     1      -4.145  11.777  18.655  0.00  0.00    +0.000 A 
ATOM      7  C   UNL     1      -3.884  12.530  19.841  0.00  0.00    +0.000 A 
ATOM      8  C   UNL     1      -2.447  12.367  20.011  0.00  0.00    +0.000 A 
ATOM      9  C   UNL     1      -1.472  12.932  20.858  0.00  0.00    +0.000 A 
ATOM     10  C   UNL     1      -5.004  13.658  20.518  0.00  0.00    +0.000 C 
ATOM     11  C   UNL     1      -6.498  13.760  21.216  0.00  0.00    +0.000 C 
ATOM     12  C   UNL     1      -7.802  13.109  20.664  0.00  0.00    +0.000 C 
ATOM     13  N   UNL     1      -7.625  12.155  19.551  0.00  0.00    +0.000 NA
ATOM     14  C   UNL     1      -7.513  10.803  20.224  0.00  0.00    +0.000 C 
ATOM     15  C   UNL     1      -6.338  12.534  18.912  0.00  0.00    +0.000 C 
ATOM     16  C   UNL     1      -5.469  11.779  17.905  0.00  0.00    +0.000 C 
ATOM     17  C   UNL     1      -5.635  14.001  19.153  0.00  0.00    +0.000 C 
ATOM     18  H   UNL     1      -2.990  10.461  17.476  0.00  0.00    +0.000 HD
ENDROOT
BRANCH  10  19
ATOM     19  C   UNL     1      -4.313  13.803  21.841  0.00  0.00    +0.000 A 
ATOM     20  C   UNL     1      -3.551  14.888  22.267  0.00  0.00    +0.000 A 
ATOM     21  C   UNL     1      -3.045  14.889  23.579  0.00  0.00    +0.000 A 
ATOM     22  C   UNL     1      -3.284  13.833  24.475  0.00  0.00    +0.000 A 
ATOM     23  C   UNL     1      -4.084  12.779  24.078  0.00  0.00    +0.000 A 
ATOM     24  C   UNL     1      -4.615  12.772  22.804  0.00  0.00    +0.000 A 
BRANCH  23  25
ATOM     25  O   UNL     1      -4.395  11.746  24.908  0.00  0.00    +0.000 OA
ATOM     26  H   UNL     1      -4.060  10.925  24.518  0.00  0.00    +0.000 HD
ENDBRANCH  23  25
ENDBRANCH  10  19
BRANCH   1  28
ATOM     27  C   UNL     1       0.360  14.545  21.958  0.00  0.00    +0.000 C 
ATOM     28  O   UNL     1       0.701  13.200  21.655  0.00  0.00    +0.000 OA
ENDBRANCH   1  28
TORSDOF 3
ENDMDL
MODEL 8
REMARK VINA RESULT:      -6.2      7.229     10.779
REMARK  Name = 
REMARK  5 active torsions:
REMARK  status: ('A' for Active; 'I' for Inactive)
REMARK    1  A    between atoms: C_1  and  O_2
REMARK    2  A    between atoms: O_2  and  C_3
REMARK    3  A    between atoms: C_12  and  C_13
REMARK    4  A    between atoms: C_17  and  O_18
REMARK    5  A    between atoms: N_22  and  C_23
REMARK                            x       y       z     vdW  Elec       q    Type
REMARK                         _______ _______ _______ _____ _____    ______ ____
ROOT
ATOM      1  C   UNL     1      -3.198  10.874  16.827  0.00  0.00    +0.000 A 
ATOM      2  C   UNL     1      -4.570  10.886  16.638  0.00  0.00    +0.000 A 
ATOM      3  C   UNL     1      -5.409  11.488  17.577  0.00  0.00    +0.000 A 
ATOM      4  C   UNL     1      -4.828  12.056  18.712  0.00  0.00    +0.000 A 
ATOM      5  N   UNL     1      -5.429  12.753  19.735  0.00  0.00    +0.000 N 
ATOM      6  C   UNL     1      -4.483  13.249  20.558  0.00  0.00    +0.000 A 
ATOM      7  C   UNL     1      -3.191  12.743  20.214  0.00  0.00    +0.000 A 
ATOM      8  C   UNL     1      -3.445  12.047  18.961  0.00  0.00    +0.000 A 
ATOM      9  C   UNL     1      -2.641  11.441  17.974  0.00  0.00    +0.000 A 
ATOM     10  C   UNL     1      -1.727  13.287  20.954  0.00  0.00    +0.000 C 
ATOM     11  C   UNL     1      -0.929  13.329  22.399  0.00  0.00    +0.000 C 
ATOM     12  C   UNL     1      -1.541  13.776  23.761  0.00  0.00    +0.000 C 
ATOM     13  N   UNL     1      -3.006  13.966  23.776  0.00  0.00    +0.000 NA
ATOM     14  C   UNL     1      -3.556  12.630  24.233  0.00  0.00    +0.000 C 
ATOM     15  C   UNL     1      -3.381  14.234  22.364  0.00  0.00    +0.000 C 
ATOM     16  C   UNL     1      -4.751  14.236  21.684  0.00  0.00    +0.000 C 
ATOM     17  C   UNL     1      -2.280  14.700  21.235  0.00  0.00    +0.000 C 
ATOM     18  H   UNL     1      -6.423  12.949  19.782  0.00  0.00    +0.000 HD
ENDROOT
BRANCH  10  19
ATOM     19  C   UNL     1      -0.860  12.177  20.441  0.00  0.00    +0.000 A 
ATOM     20  C   UNL     1      -0.964  10.825  20.758  0.00  0.00    +0.000 A 
ATOM     21  C   UNL     1      -0.115   9.909  20.114  0.00  0.00    +0.000 A 
ATOM     22  C   UNL     1       0.834  10.310  19.159  0.00  0.00    +0.000 A 
ATOM     23  C   UNL     1       0.907  11.642  18.799  0.00  0.00    +0.000 A 
ATOM     24  C   UNL     1       0.062  12.554  19.398  0.00  0.00    +0.000 A 
BRANCH  23  25
ATOM     25  O   UNL     1       1.771  12.095  17.849  0.00  0.00    +0.000 OA
ATOM     26  H   UNL     1       1.536  11.692  17.001  0.00  0.00    +0.000 HD
ENDBRANCH  23  25
ENDBRANCH  10  19
BRANCH   1  28
ATOM     27  C   UNL     1      -2.798  10.006  14.678  0.00  0.00    +0.000 C 
ATOM     28  O   UNL     1      -2.293  10.299  15.973  0.00  0.00    +0.000 OA
ENDBRANCH   1  28
TORSDOF 3
ENDMDL
MODEL 9
REMARK VINA RESULT:      -6.2      9.476     11.952
REMARK  Name = 
REMARK  5 active torsions:
REMARK  status: ('A' for Active; 'I' for Inactive)
REMARK    1  A    between atoms: C_1  and  O_2
REMARK    2  A    between atoms: O_2  and  C_3
REMARK    3  A    between atoms: C_12  and  C_13
REMARK    4  A    between atoms: C_17  and  O_18
REMARK    5  A    between atoms: N_22  and  C_23
REMARK                            x       y       z     vdW  Elec       q    Type
REMARK                         _______ _______ _______ _____ _____    ______ ____
ROOT
ATOM      1  C   UNL     1      -5.315  11.650  18.003  0.00  0.00    +0.000 A 
ATOM      2  C   UNL     1      -4.321  11.315  17.098  0.00  0.00    +0.000 A 
ATOM      3  C   UNL     1      -2.976  11.404  17.458  0.00  0.00    +0.000 A 
ATOM      4  C   UNL     1      -2.666  11.854  18.742  0.00  0.00    +0.000 A 
ATOM      5  N   UNL     1      -1.434  11.967  19.347  0.00  0.00    +0.000 N 
ATOM      6  C   UNL     1      -1.598  12.308  20.641  0.00  0.00    +0.000 A 
ATOM      7  C   UNL     1      -2.964  12.623  20.918  0.00  0.00    +0.000 A 
ATOM      8  C   UNL     1      -3.636  12.230  19.687  0.00  0.00    +0.000 A 
ATOM      9  C   UNL     1      -4.980  12.106  19.279  0.00  0.00    +0.000 A 
ATOM     10  C   UNL     1      -3.564  12.947  22.505  0.00  0.00    +0.000 C 
ATOM     11  C   UNL     1      -3.440  14.017  23.757  0.00  0.00    +0.000 C 
ATOM     12  C   UNL     1      -2.108  14.538  24.376  0.00  0.00    +0.000 C 
ATOM     13  N   UNL     1      -0.877  14.203  23.632  0.00  0.00    +0.000 NA
ATOM     14  C   UNL     1      -0.648  15.393  22.723  0.00  0.00    +0.000 C 
ATOM     15  C   UNL     1      -1.218  12.992  22.839  0.00  0.00    +0.000 C 
ATOM     16  C   UNL     1      -0.481  12.330  21.674  0.00  0.00    +0.000 C 
ATOM     17  C   UNL     1      -2.515  12.047  23.191  0.00  0.00    +0.000 C 
ATOM     18  H   UNL     1      -0.558  11.716  18.902  0.00  0.00    +0.000 HD
ENDROOT
BRANCH  10  19
ATOM     19  C   UNL     1      -4.880  13.518  22.071  0.00  0.00    +0.000 A 
ATOM     20  C   UNL     1      -6.130  12.917  22.196  0.00  0.00    +0.000 A 
ATOM     21  C   UNL     1      -7.273  13.639  21.809  0.00  0.00    +0.000 A 
ATOM     22  C   UNL     1      -7.197  14.947  21.302  0.00  0.00    +0.000 A 
ATOM     23  C   UNL     1      -5.966  15.570  21.225  0.00  0.00    +0.000 A 
ATOM     24  C   UNL     1      -4.834  14.890  21.627  0.00  0.00    +0.000 A 
BRANCH  23  25
ATOM     25  O   UNL     1      -5.822  16.851  20.787  0.00  0.00    +0.000 OA
ATOM     26  H   UNL     1      -6.621  17.347  21.017  0.00  0.00    +0.000 HD
ENDBRANCH  23  25
ENDBRANCH  10  19
BRANCH   1  28
ATOM     27  C   UNL     1      -7.381  12.763  18.155  0.00  0.00    +0.000 C 
ATOM     28  O   UNL     1      -6.660  11.609  17.743  0.00  0.00    +0.000 OA
ENDBRANCH   1  28
TORSDOF 3
ENDMDL
