MODEL 1
REMARK VINA RESULT:      -7.7      0.000      0.000
REMARK  Name = 
REMARK  10 active torsions:
REMARK  status: ('A' for Active; 'I' for Inactive)
REMARK    1  A    between atoms: C_1  and  S_2
REMARK    2  A    between atoms: S_2  and  C_5
REMARK    3  A    between atoms: C_5  and  C_6
REMARK    4  A    between atoms: C_6  and  N_7
REMARK    5  A    between atoms: C_6  and  C_20
REMARK    6  A    between atoms: N_7  and  C_8
REMARK    7  A    between atoms: C_8  and  C_9
REMARK    8  A    between atoms: C_8  and  C_16
REMARK    9  A    between atoms: N_22  and  C_23
REMARK   10  A    between atoms: C_23  and  C_24
REMARK                            x       y       z     vdW  Elec       q    Type
REMARK                         _______ _______ _______ _____ _____    ______ ____
ROOT
ATOM      1  C   UNL     1       5.008   5.373  17.317  0.00  0.00    +0.000 C 
ENDROOT
BRANCH   1   2
ATOM      2  C   UNL     1       5.455   5.408  15.809  0.00  0.00    +0.000 C 
ATOM      3  O   UNL     1       5.272   6.447  15.165  0.00  0.00    +0.000 OA
ATOM      4  N   UNL     1       5.899   4.254  15.205  0.00  0.00    +0.000 N 
ATOM      5  H   UNL     1       6.443   3.610  15.781  0.00  0.00    +0.000 HD
BRANCH   4   6
ATOM      6  C   UNL     1       6.308   4.248  13.805  0.00  0.00    +0.000 C 
ATOM      7  C   UNL     1       5.278   4.058  12.708  0.00  0.00    +0.000 C 
ATOM      8  C   UNL     1       6.193   2.927  13.056  0.00  0.00    +0.000 C 
BRANCH   6   9
ATOM      9  C   UNL     1       7.464   5.073  13.496  0.00  0.00    +0.000 C 
ATOM     10  N   UNL     1       8.390   5.737  13.268  0.00  0.00    +0.000 NA
ENDBRANCH   6   9
ENDBRANCH   4   6
ENDBRANCH   1   2
BRANCH   1  11
ATOM     11  N   UNL     1       3.695   4.685  17.281  0.00  0.00    +0.000 NA
ATOM     12  H   UNL     1       3.220   4.901  16.397  0.00  0.00    +0.000 HD
BRANCH  11  13
ATOM     13  C   UNL     1       2.739   4.791  18.412  0.00  0.00    +0.000 C 
BRANCH  13  14
ATOM     14  C   UNL     1       2.398   6.232  18.797  0.00  0.00    +0.000 A 
ATOM     15  C   UNL     1       2.276   7.238  17.823  0.00  0.00    +0.000 A 
ATOM     16  C   UNL     1       1.839   8.520  18.173  0.00  0.00    +0.000 A 
ATOM     17  C   UNL     1       1.544   8.809  19.499  0.00  0.00    +0.000 A 
ATOM     18  F   UNL     1       1.107  10.032  19.829  0.00  0.00    +0.000 F 
ATOM     19  C   UNL     1       1.685   7.843  20.485  0.00  0.00    +0.000 A 
ATOM     20  C   UNL     1       2.108   6.556  20.137  0.00  0.00    +0.000 A 
ENDBRANCH  13  14
BRANCH  13  21
ATOM     21  C   UNL     1       1.435   3.922  18.191  0.00  0.00    +0.000 C 
ATOM     22  F   UNL     1       1.746   2.649  17.839  0.00  0.00    +0.000 F 
ATOM     23  F   UNL     1       0.707   3.855  19.332  0.00  0.00    +0.000 F 
ATOM     24  F   UNL     1       0.620   4.401  17.225  0.00  0.00    +0.000 F 
ENDBRANCH  13  21
ENDBRANCH  11  13
ENDBRANCH   1  11
BRANCH   1  25
ATOM     25  C   UNL     1       5.948   4.729  18.325  0.00  0.00    +0.000 C 
BRANCH  25  27
ATOM     26  C   UNL     1       7.643   6.932  17.705  0.00  0.00    +0.000 C 
ATOM     27  S   UNL     1       7.650   5.230  18.222  0.00  0.00    +0.000 S 
ATOM     28  O   UNL     1       8.268   4.428  17.184  0.00  0.00    +0.000 OA
ATOM     29  O   UNL     1       8.172   5.191  19.575  0.00  0.00    +0.000 OA
ENDBRANCH  25  27
ENDBRANCH   1  25
TORSDOF 9
ENDMDL
MODEL 2
REMARK VINA RESULT:      -7.7      3.085      6.583
REMARK  Name = 
REMARK  10 active torsions:
REMARK  status: ('A' for Active; 'I' for Inactive)
REMARK    1  A    between atoms: C_1  and  S_2
REMARK    2  A    between atoms: S_2  and  C_5
REMARK    3  A    between atoms: C_5  and  C_6
REMARK    4  A    between atoms: C_6  and  N_7
REMARK    5  A    between atoms: C_6  and  C_20
REMARK    6  A    between atoms: N_7  and  C_8
REMARK    7  A    between atoms: C_8  and  C_9
REMARK    8  A    between atoms: C_8  and  C_16
REMARK    9  A    between atoms: N_22  and  C_23
REMARK   10  A    between atoms: C_23  and  C_24
REMARK                            x       y       z     vdW  Elec       q    Type
REMARK                         _______ _______ _______ _____ _____    ______ ____
ROOT
ATOM      1  C   UNL     1       5.503   3.968  18.538  0.00  0.00    +0.000 C 
ENDROOT
BRANCH   1   2
ATOM      2  C   UNL     1       4.281   3.202  19.167  0.00  0.00    +0.000 C 
ATOM      3  O   UNL     1       4.473   2.077  19.643  0.00  0.00    +0.000 OA
ATOM      4  N   UNL     1       3.015   3.728  19.046  0.00  0.00    +0.000 N 
ATOM      5  H   UNL     1       2.930   4.744  19.087  0.00  0.00    +0.000 HD
BRANCH   4   6
ATOM      6  C   UNL     1       1.858   3.038  19.605  0.00  0.00    +0.000 C 
ATOM      7  C   UNL     1       1.168   1.940  18.818  0.00  0.00    +0.000 C 
ATOM      8  C   UNL     1       0.515   3.280  18.931  0.00  0.00    +0.000 C 
BRANCH   6   9
ATOM      9  C   UNL     1       1.848   2.924  21.054  0.00  0.00    +0.000 C 
ATOM     10  N   UNL     1       1.860   2.837  22.213  0.00  0.00    +0.000 NA
ENDBRANCH   6   9
ENDBRANCH   4   6
ENDBRANCH   1   2
BRANCH   1  11
ATOM     11  N   UNL     1       5.059   4.266  17.154  0.00  0.00    +0.000 NA
ATOM     12  H   UNL     1       5.022   3.395  16.613  0.00  0.00    +0.000 HD
BRANCH  11  13
ATOM     13  C   UNL     1       5.704   5.337  16.353  0.00  0.00    +0.000 C 
BRANCH  13  14
ATOM     14  C   UNL     1       6.081   4.905  14.935  0.00  0.00    +0.000 A 
ATOM     15  C   UNL     1       7.277   5.336  14.335  0.00  0.00    +0.000 A 
ATOM     16  C   UNL     1       7.671   4.832  13.091  0.00  0.00    +0.000 A 
ATOM     17  C   UNL     1       6.864   3.915  12.431  0.00  0.00    +0.000 A 
ATOM     18  F   UNL     1       7.253   3.420  11.249  0.00  0.00    +0.000 F 
ATOM     19  C   UNL     1       5.663   3.496  12.987  0.00  0.00    +0.000 A 
ATOM     20  C   UNL     1       5.272   3.986  14.237  0.00  0.00    +0.000 A 
ENDBRANCH  13  14
BRANCH  13  21
ATOM     21  C   UNL     1       4.869   6.681  16.351  0.00  0.00    +0.000 C 
ATOM     22  F   UNL     1       4.686   7.144  15.088  0.00  0.00    +0.000 F 
ATOM     23  F   UNL     1       3.640   6.480  16.885  0.00  0.00    +0.000 F 
ATOM     24  F   UNL     1       5.450   7.683  17.049  0.00  0.00    +0.000 F 
ENDBRANCH  13  21
ENDBRANCH  11  13
ENDBRANCH   1  11
BRANCH   1  25
ATOM     25  C   UNL     1       6.003   5.218  19.246  0.00  0.00    +0.000 C 
BRANCH  25  27
ATOM     26  C   UNL     1       8.120   7.041  18.695  0.00  0.00    +0.000 C 
ATOM     27  S   UNL     1       7.768   5.412  19.316  0.00  0.00    +0.000 S 
ATOM     28  O   UNL     1       8.339   4.433  18.411  0.00  0.00    +0.000 OA
ATOM     29  O   UNL     1       8.127   5.397  20.720  0.00  0.00    +0.000 OA
ENDBRANCH  25  27
ENDBRANCH   1  25
TORSDOF 9
ENDMDL
MODEL 3
REMARK VINA RESULT:      -7.6      1.057      1.677
REMARK  Name = 
REMARK  10 active torsions:
REMARK  status: ('A' for Active; 'I' for Inactive)
REMARK    1  A    between atoms: C_1  and  S_2
REMARK    2  A    between atoms: S_2  and  C_5
REMARK    3  A    between atoms: C_5  and  C_6
REMARK    4  A    between atoms: C_6  and  N_7
REMARK    5  A    between atoms: C_6  and  C_20
REMARK    6  A    between atoms: N_7  and  C_8
REMARK    7  A    between atoms: C_8  and  C_9
REMARK    8  A    between atoms: C_8  and  C_16
REMARK    9  A    between atoms: N_22  and  C_23
REMARK   10  A    between atoms: C_23  and  C_24
REMARK                            x       y       z     vdW  Elec       q    Type
REMARK                         _______ _______ _______ _____ _____    ______ ____
ROOT
ATOM      1  C   UNL     1       5.365   6.562  17.432  0.00  0.00    +0.000 C 
ENDROOT
BRANCH   1   2
ATOM      2  C   UNL     1       5.624   6.210  15.921  0.00  0.00    +0.000 C 
ATOM      3  O   UNL     1       5.152   6.954  15.053  0.00  0.00    +0.000 OA
ATOM      4  N   UNL     1       6.236   5.021  15.596  0.00  0.00    +0.000 N 
ATOM      5  H   UNL     1       6.966   4.689  16.228  0.00  0.00    +0.000 HD
BRANCH   4   6
ATOM      6  C   UNL     1       6.480   4.657  14.205  0.00  0.00    +0.000 C 
ATOM      7  C   UNL     1       5.322   4.285  13.298  0.00  0.00    +0.000 C 
ATOM      8  C   UNL     1       6.223   3.208  13.814  0.00  0.00    +0.000 C 
BRANCH   6   9
ATOM      9  C   UNL     1       7.627   5.304  13.589  0.00  0.00    +0.000 C 
ATOM     10  N   UNL     1       8.544   5.806  13.082  0.00  0.00    +0.000 NA
ENDBRANCH   6   9
ENDBRANCH   4   6
ENDBRANCH   1   2
BRANCH   1  11
ATOM     11  N   UNL     1       3.909   6.841  17.486  0.00  0.00    +0.000 NA
ATOM     12  H   UNL     1       3.750   7.849  17.377  0.00  0.00    +0.000 HD
BRANCH  11  13
ATOM     13  C   UNL     1       3.064   6.308  18.584  0.00  0.00    +0.000 C 
BRANCH  13  14
ATOM     14  C   UNL     1       2.172   7.361  19.243  0.00  0.00    +0.000 A 
ATOM     15  C   UNL     1       1.768   7.239  20.585  0.00  0.00    +0.000 A 
ATOM     16  C   UNL     1       1.061   8.269  21.212  0.00  0.00    +0.000 A 
ATOM     17  C   UNL     1       0.736   9.416  20.499  0.00  0.00    +0.000 A 
ATOM     18  F   UNL     1       0.075  10.410  21.108  0.00  0.00    +0.000 F 
ATOM     19  C   UNL     1       1.095   9.549  19.165  0.00  0.00    +0.000 A 
ATOM     20  C   UNL     1       1.815   8.527  18.538  0.00  0.00    +0.000 A 
ENDBRANCH  13  14
BRANCH  13  21
ATOM     21  C   UNL     1       2.235   5.032  18.149  0.00  0.00    +0.000 C 
ATOM     22  F   UNL     1       1.131   5.380  17.439  0.00  0.00    +0.000 F 
ATOM     23  F   UNL     1       2.982   4.226  17.356  0.00  0.00    +0.000 F 
ATOM     24  F   UNL     1       1.805   4.282  19.188  0.00  0.00    +0.000 F 
ENDBRANCH  13  21
ENDBRANCH  11  13
ENDBRANCH   1  11
BRANCH   1  25
ATOM     25  C   UNL     1       5.778   5.544  18.484  0.00  0.00    +0.000 C 
BRANCH  25  27
ATOM     26  C   UNL     1       8.156   7.110  18.471  0.00  0.00    +0.000 C 
ATOM     27  S   UNL     1       7.510   5.505  18.882  0.00  0.00    +0.000 S 
ATOM     28  O   UNL     1       8.123   4.517  18.015  0.00  0.00    +0.000 OA
ATOM     29  O   UNL     1       7.597   5.358  20.322  0.00  0.00    +0.000 OA
ENDBRANCH  25  27
ENDBRANCH   1  25
TORSDOF 9
ENDMDL
MODEL 4
REMARK VINA RESULT:      -7.6      1.749      3.086
REMARK  Name = 
REMARK  10 active torsions:
REMARK  status: ('A' for Active; 'I' for Inactive)
REMARK    1  A    between atoms: C_1  and  S_2
REMARK    2  A    between atoms: S_2  and  C_5
REMARK    3  A    between atoms: C_5  and  C_6
REMARK    4  A    between atoms: C_6  and  N_7
REMARK    5  A    between atoms: C_6  and  C_20
REMARK    6  A    between atoms: N_7  and  C_8
REMARK    7  A    between atoms: C_8  and  C_9
REMARK    8  A    between atoms: C_8  and  C_16
REMARK    9  A    between atoms: N_22  and  C_23
REMARK   10  A    between atoms: C_23  and  C_24
REMARK                            x       y       z     vdW  Elec       q    Type
REMARK                         _______ _______ _______ _____ _____    ______ ____
ROOT
ATOM      1  C   UNL     1       4.982   5.386  17.215  0.00  0.00    +0.000 C 
ENDROOT
BRANCH   1   2
ATOM      2  C   UNL     1       5.441   5.424  15.711  0.00  0.00    +0.000 C 
ATOM      3  O   UNL     1       5.240   6.456  15.060  0.00  0.00    +0.000 OA
ATOM      4  N   UNL     1       5.918   4.278  15.118  0.00  0.00    +0.000 N 
ATOM      5  H   UNL     1       6.471   3.650  15.702  0.00  0.00    +0.000 HD
BRANCH   4   6
ATOM      6  C   UNL     1       6.339   4.274  13.721  0.00  0.00    +0.000 C 
ATOM      7  C   UNL     1       5.318   4.097  12.614  0.00  0.00    +0.000 C 
ATOM      8  C   UNL     1       6.221   2.958  12.965  0.00  0.00    +0.000 C 
BRANCH   6   9
ATOM      9  C   UNL     1       7.505   5.092  13.426  0.00  0.00    +0.000 C 
ATOM     10  N   UNL     1       8.427   5.752  13.173  0.00  0.00    +0.000 NA
ENDBRANCH   6   9
ENDBRANCH   4   6
ENDBRANCH   1   2
BRANCH   1  11
ATOM     11  N   UNL     1       3.604   4.841  17.151  0.00  0.00    +0.000 NA
ATOM     12  H   UNL     1       3.331   4.717  16.169  0.00  0.00    +0.000 HD
BRANCH  11  13
ATOM     13  C   UNL     1       2.493   5.466  17.913  0.00  0.00    +0.000 C 
BRANCH  13  14
ATOM     14  C   UNL     1       2.029   4.641  19.114  0.00  0.00    +0.000 A 
ATOM     15  C   UNL     1       1.139   3.563  18.960  0.00  0.00    +0.000 A 
ATOM     16  C   UNL     1       0.823   2.739  20.045  0.00  0.00    +0.000 A 
ATOM     17  C   UNL     1       1.376   2.999  21.292  0.00  0.00    +0.000 A 
ATOM     18  F   UNL     1       1.087   2.197  22.325  0.00  0.00    +0.000 F 
ATOM     19  C   UNL     1       2.233   4.075  21.479  0.00  0.00    +0.000 A 
ATOM     20  C   UNL     1       2.562   4.893  20.394  0.00  0.00    +0.000 A 
ENDBRANCH  13  14
BRANCH  13  21
ATOM     21  C   UNL     1       2.799   6.965  18.317  0.00  0.00    +0.000 C 
ATOM     22  F   UNL     1       3.855   7.039  19.167  0.00  0.00    +0.000 F 
ATOM     23  F   UNL     1       3.115   7.698  17.222  0.00  0.00    +0.000 F 
ATOM     24  F   UNL     1       1.766   7.585  18.929  0.00  0.00    +0.000 F 
ENDBRANCH  13  21
ENDBRANCH  11  13
ENDBRANCH   1  11
BRANCH   1  25
ATOM     25  C   UNL     1       5.841   4.614  18.205  0.00  0.00    +0.000 C 
BRANCH  25  27
ATOM     26  C   UNL     1       7.606   6.807  17.773  0.00  0.00    +0.000 C 
ATOM     27  S   UNL     1       7.546   5.108  18.295  0.00  0.00    +0.000 S 
ATOM     28  O   UNL     1       8.274   4.298  17.338  0.00  0.00    +0.000 OA
ATOM     29  O   UNL     1       7.911   5.072  19.698  0.00  0.00    +0.000 OA
ENDBRANCH  25  27
ENDBRANCH   1  25
TORSDOF 9
ENDMDL
MODEL 5
REMARK VINA RESULT:      -7.3      3.142      6.704
REMARK  Name = 
REMARK  10 active torsions:
REMARK  status: ('A' for Active; 'I' for Inactive)
REMARK    1  A    between atoms: C_1  and  S_2
REMARK    2  A    between atoms: S_2  and  C_5
REMARK    3  A    between atoms: C_5  and  C_6
REMARK    4  A    between atoms: C_6  and  N_7
REMARK    5  A    between atoms: C_6  and  C_20
REMARK    6  A    between atoms: N_7  and  C_8
REMARK    7  A    between atoms: C_8  and  C_9
REMARK    8  A    between atoms: C_8  and  C_16
REMARK    9  A    between atoms: N_22  and  C_23
REMARK   10  A    between atoms: C_23  and  C_24
REMARK                            x       y       z     vdW  Elec       q    Type
REMARK                         _______ _______ _______ _____ _____    ______ ____
ROOT
ATOM      1  C   UNL     1       5.145   4.363  18.613  0.00  0.00    +0.000 C 
ENDROOT
BRANCH   1   2
ATOM      2  C   UNL     1       3.660   4.135  19.078  0.00  0.00    +0.000 C 
ATOM      3  O   UNL     1       2.828   5.021  18.848  0.00  0.00    +0.000 OA
ATOM      4  N   UNL     1       3.350   3.038  19.848  0.00  0.00    +0.000 N 
ATOM      5  H   UNL     1       3.856   2.174  19.647  0.00  0.00    +0.000 HD
BRANCH   4   6
ATOM      6  C   UNL     1       1.986   2.803  20.308  0.00  0.00    +0.000 C 
ATOM      7  C   UNL     1       1.426   3.593  21.475  0.00  0.00    +0.000 C 
ATOM      8  C   UNL     1       1.818   2.164  21.679  0.00  0.00    +0.000 C 
BRANCH   6   9
ATOM      9  C   UNL     1       1.050   2.387  19.276  0.00  0.00    +0.000 C 
ATOM     10  N   UNL     1       0.312   2.037  18.449  0.00  0.00    +0.000 NA
ENDBRANCH   6   9
ENDBRANCH   4   6
ENDBRANCH   1   2
BRANCH   1  11
ATOM     11  N   UNL     1       5.054   4.376  17.132  0.00  0.00    +0.000 NA
ATOM     12  H   UNL     1       5.223   3.430  16.771  0.00  0.00    +0.000 HD
BRANCH  11  13
ATOM     13  C   UNL     1       5.803   5.372  16.324  0.00  0.00    +0.000 C 
BRANCH  13  14
ATOM     14  C   UNL     1       6.250   4.846  14.959  0.00  0.00    +0.000 A 
ATOM     15  C   UNL     1       5.463   3.931  14.236  0.00  0.00    +0.000 A 
ATOM     16  C   UNL     1       5.819   3.558  12.936  0.00  0.00    +0.000 A 
ATOM     17  C   UNL     1       6.971   4.077  12.360  0.00  0.00    +0.000 A 
ATOM     18  F   UNL     1       7.299   3.732  11.108  0.00  0.00    +0.000 F 
ATOM     19  C   UNL     1       7.782   4.958  13.063  0.00  0.00    +0.000 A 
ATOM     20  C   UNL     1       7.422   5.345  14.358  0.00  0.00    +0.000 A 
ENDBRANCH  13  14
BRANCH  13  21
ATOM     21  C   UNL     1       5.038   6.751  16.196  0.00  0.00    +0.000 C 
ATOM     22  F   UNL     1       5.762   7.766  16.732  0.00  0.00    +0.000 F 
ATOM     23  F   UNL     1       4.822   7.058  14.894  0.00  0.00    +0.000 F 
ATOM     24  F   UNL     1       3.836   6.765  16.815  0.00  0.00    +0.000 F 
ENDBRANCH  13  21
ENDBRANCH  11  13
ENDBRANCH   1  11
BRANCH   1  25
ATOM     25  C   UNL     1       5.878   5.588  19.138  0.00  0.00    +0.000 C 
BRANCH  25  27
ATOM     26  C   UNL     1       8.287   7.025  18.645  0.00  0.00    +0.000 C 
ATOM     27  S   UNL     1       7.650   5.459  19.199  0.00  0.00    +0.000 S 
ATOM     28  O   UNL     1       8.035   4.435  18.248  0.00  0.00    +0.000 OA
ATOM     29  O   UNL     1       8.003   5.318  20.598  0.00  0.00    +0.000 OA
ENDBRANCH  25  27
ENDBRANCH   1  25
TORSDOF 9
ENDMDL
MODEL 6
REMARK VINA RESULT:      -7.3      3.106      4.848
REMARK  Name = 
REMARK  10 active torsions:
REMARK  status: ('A' for Active; 'I' for Inactive)
REMARK    1  A    between atoms: C_1  and  S_2
REMARK    2  A    between atoms: S_2  and  C_5
REMARK    3  A    between atoms: C_5  and  C_6
REMARK    4  A    between atoms: C_6  and  N_7
REMARK    5  A    between atoms: C_6  and  C_20
REMARK    6  A    between atoms: N_7  and  C_8
REMARK    7  A    between atoms: C_8  and  C_9
REMARK    8  A    between atoms: C_8  and  C_16
REMARK    9  A    between atoms: N_22  and  C_23
REMARK   10  A    between atoms: C_23  and  C_24
REMARK                            x       y       z     vdW  Elec       q    Type
REMARK                         _______ _______ _______ _____ _____    ______ ____
ROOT
ATOM      1  C   UNL     1       3.406   5.557  19.449  0.00  0.00    +0.000 C 
ENDROOT
BRANCH   1   2
ATOM      2  C   UNL     1       4.899   5.439  18.968  0.00  0.00    +0.000 C 
ATOM      3  O   UNL     1       5.608   4.554  19.462  0.00  0.00    +0.000 OA
ATOM      4  N   UNL     1       5.420   6.398  18.130  0.00  0.00    +0.000 N 
ATOM      5  H   UNL     1       4.791   6.791  17.429  0.00  0.00    +0.000 HD
BRANCH   4   6
ATOM      6  C   UNL     1       6.804   6.327  17.676  0.00  0.00    +0.000 C 
ATOM      7  C   UNL     1       7.942   6.573  18.648  0.00  0.00    +0.000 C 
ATOM      8  C   UNL     1       7.592   7.629  17.650  0.00  0.00    +0.000 C 
BRANCH   6   9
ATOM      9  C   UNL     1       7.050   5.396  16.587  0.00  0.00    +0.000 C 
ATOM     10  N   UNL     1       7.231   4.640  15.723  0.00  0.00    +0.000 NA
ENDBRANCH   6   9
ENDBRANCH   4   6
ENDBRANCH   1   2
BRANCH   1  11
ATOM     11  N   UNL     1       3.207   7.015  19.632  0.00  0.00    +0.000 NA
ATOM     12  H   UNL     1       3.378   7.263  20.614  0.00  0.00    +0.000 HD
BRANCH  11  13
ATOM     13  C   UNL     1       1.980   7.693  19.142  0.00  0.00    +0.000 C 
BRANCH  13  14
ATOM     14  C   UNL     1       1.252   8.503  20.215  0.00  0.00    +0.000 A 
ATOM     15  C   UNL     1       1.561   8.350  21.579  0.00  0.00    +0.000 A 
ATOM     16  C   UNL     1       0.980   9.186  22.538  0.00  0.00    +0.000 A 
ATOM     17  C   UNL     1       0.074  10.162  22.145  0.00  0.00    +0.000 A 
ATOM     18  F   UNL     1      -0.466  10.973  23.064  0.00  0.00    +0.000 F 
ATOM     19  C   UNL     1      -0.273  10.313  20.810  0.00  0.00    +0.000 A 
ATOM     20  C   UNL     1       0.316   9.489  19.845  0.00  0.00    +0.000 A 
ENDBRANCH  13  14
BRANCH  13  21
ATOM     21  C   UNL     1       2.238   8.552  17.838  0.00  0.00    +0.000 C 
ATOM     22  F   UNL     1       3.108   7.929  17.003  0.00  0.00    +0.000 F 
ATOM     23  F   UNL     1       1.085   8.734  17.150  0.00  0.00    +0.000 F 
ATOM     24  F   UNL     1       2.753   9.776  18.088  0.00  0.00    +0.000 F 
ENDBRANCH  13  21
ENDBRANCH  11  13
ENDBRANCH   1  11
BRANCH   1  25
ATOM     25  C   UNL     1       2.322   4.952  18.569  0.00  0.00    +0.000 C 
BRANCH  25  27
ATOM     26  C   UNL     1       2.698   2.437  19.852  0.00  0.00    +0.000 C 
ATOM     27  S   UNL     1       1.454   3.563  19.258  0.00  0.00    +0.000 S 
ATOM     28  O   UNL     1       0.732   2.931  18.172  0.00  0.00    +0.000 OA
ATOM     29  O   UNL     1       0.734   4.061  20.414  0.00  0.00    +0.000 OA
ENDBRANCH  25  27
ENDBRANCH   1  25
TORSDOF 9
ENDMDL
MODEL 7
REMARK VINA RESULT:      -7.3      3.121      6.715
REMARK  Name = 
REMARK  10 active torsions:
REMARK  status: ('A' for Active; 'I' for Inactive)
REMARK    1  A    between atoms: C_1  and  S_2
REMARK    2  A    between atoms: S_2  and  C_5
REMARK    3  A    between atoms: C_5  and  C_6
REMARK    4  A    between atoms: C_6  and  N_7
REMARK    5  A    between atoms: C_6  and  C_20
REMARK    6  A    between atoms: N_7  and  C_8
REMARK    7  A    between atoms: C_8  and  C_9
REMARK    8  A    between atoms: C_8  and  C_16
REMARK    9  A    between atoms: N_22  and  C_23
REMARK   10  A    between atoms: C_23  and  C_24
REMARK                            x       y       z     vdW  Elec       q    Type
REMARK                         _______ _______ _______ _____ _____    ______ ____
ROOT
ATOM      1  C   UNL     1       5.064   4.329  18.385  0.00  0.00    +0.000 C 
ENDROOT
BRANCH   1   2
ATOM      2  C   UNL     1       3.580   4.058  18.831  0.00  0.00    +0.000 C 
ATOM      3  O   UNL     1       2.684   4.766  18.356  0.00  0.00    +0.000 OA
ATOM      4  N   UNL     1       3.327   3.151  19.834  0.00  0.00    +0.000 N 
ATOM      5  H   UNL     1       3.927   2.326  19.873  0.00  0.00    +0.000 HD
BRANCH   4   6
ATOM      6  C   UNL     1       1.965   2.885  20.282  0.00  0.00    +0.000 C 
ATOM      7  C   UNL     1       1.355   3.704  21.403  0.00  0.00    +0.000 C 
ATOM      8  C   UNL     1       1.796   2.302  21.678  0.00  0.00    +0.000 C 
BRANCH   6   9
ATOM      9  C   UNL     1       1.064   2.388  19.255  0.00  0.00    +0.000 C 
ATOM     10  N   UNL     1       0.334   1.979  18.448  0.00  0.00    +0.000 NA
ENDBRANCH   6   9
ENDBRANCH   4   6
ENDBRANCH   1   2
BRANCH   1  11
ATOM     11  N   UNL     1       4.982   4.396  16.905  0.00  0.00    +0.000 NA
ATOM     12  H   UNL     1       5.132   3.460  16.512  0.00  0.00    +0.000 HD
BRANCH  11  13
ATOM     13  C   UNL     1       5.757   5.403  16.136  0.00  0.00    +0.000 C 
BRANCH  13  14
ATOM     14  C   UNL     1       6.158   4.934  14.737  0.00  0.00    +0.000 A 
ATOM     15  C   UNL     1       7.348   5.378  14.132  0.00  0.00    +0.000 A 
ATOM     16  C   UNL     1       7.766   4.844  12.909  0.00  0.00    +0.000 A 
ATOM     17  C   UNL     1       6.990   3.884  12.273  0.00  0.00    +0.000 A 
ATOM     18  F   UNL     1       7.403   3.361  11.111  0.00  0.00    +0.000 F 
ATOM     19  C   UNL     1       5.795   3.452  12.833  0.00  0.00    +0.000 A 
ATOM     20  C   UNL     1       5.380   3.972  14.063  0.00  0.00    +0.000 A 
ENDBRANCH  13  14
BRANCH  13  21
ATOM     21  C   UNL     1       5.048   6.817  16.097  0.00  0.00    +0.000 C 
ATOM     22  F   UNL     1       4.763   7.190  14.824  0.00  0.00    +0.000 F 
ATOM     23  F   UNL     1       3.875   6.781  16.775  0.00  0.00    +0.000 F 
ATOM     24  F   UNL     1       5.789   7.811  16.634  0.00  0.00    +0.000 F 
ENDBRANCH  13  21
ENDBRANCH  11  13
ENDBRANCH   1  11
BRANCH   1  25
ATOM     25  C   UNL     1       5.772   5.546  18.961  0.00  0.00    +0.000 C 
BRANCH  25  27
ATOM     26  C   UNL     1       8.197   6.982  18.557  0.00  0.00    +0.000 C 
ATOM     27  S   UNL     1       7.539   5.419  19.094  0.00  0.00    +0.000 S 
ATOM     28  O   UNL     1       7.963   4.389  18.166  0.00  0.00    +0.000 OA
ATOM     29  O   UNL     1       7.836   5.287  20.508  0.00  0.00    +0.000 OA
ENDBRANCH  25  27
ENDBRANCH   1  25
TORSDOF 9
ENDMDL
MODEL 8
REMARK VINA RESULT:      -7.2      3.119      4.836
REMARK  Name = 
REMARK  10 active torsions:
REMARK  status: ('A' for Active; 'I' for Inactive)
REMARK    1  A    between atoms: C_1  and  S_2
REMARK    2  A    between atoms: S_2  and  C_5
REMARK    3  A    between atoms: C_5  and  C_6
REMARK    4  A    between atoms: C_6  and  N_7
REMARK    5  A    between atoms: C_6  and  C_20
REMARK    6  A    between atoms: N_7  and  C_8
REMARK    7  A    between atoms: C_8  and  C_9
REMARK    8  A    between atoms: C_8  and  C_16
REMARK    9  A    between atoms: N_22  and  C_23
REMARK   10  A    between atoms: C_23  and  C_24
REMARK                            x       y       z     vdW  Elec       q    Type
REMARK                         _______ _______ _______ _____ _____    ______ ____
ROOT
ATOM      1  C   UNL     1       3.396   5.166  19.639  0.00  0.00    +0.000 C 
ENDROOT
BRANCH   1   2
ATOM      2  C   UNL     1       4.884   4.982  19.162  0.00  0.00    +0.000 C 
ATOM      3  O   UNL     1       5.483   3.951  19.487  0.00  0.00    +0.000 OA
ATOM      4  N   UNL     1       5.526   6.020  18.526  0.00  0.00    +0.000 N 
ATOM      5  H   UNL     1       4.962   6.602  17.905  0.00  0.00    +0.000 HD
BRANCH   4   6
ATOM      6  C   UNL     1       6.908   5.889  18.082  0.00  0.00    +0.000 C 
ATOM      7  C   UNL     1       8.038   5.867  19.094  0.00  0.00    +0.000 C 
ATOM      8  C   UNL     1       7.815   7.097  18.273  0.00  0.00    +0.000 C 
BRANCH   6   9
ATOM      9  C   UNL     1       7.095   5.121  16.861  0.00  0.00    +0.000 C 
ATOM     10  N   UNL     1       7.227   4.497  15.889  0.00  0.00    +0.000 NA
ENDBRANCH   6   9
ENDBRANCH   4   6
ENDBRANCH   1   2
BRANCH   1  11
ATOM     11  N   UNL     1       3.257   6.634  19.805  0.00  0.00    +0.000 NA
ATOM     12  H   UNL     1       3.360   6.877  20.797  0.00  0.00    +0.000 HD
BRANCH  11  13
ATOM     13  C   UNL     1       2.108   7.369  19.217  0.00  0.00    +0.000 C 
BRANCH  13  14
ATOM     14  C   UNL     1       1.389   8.284  20.209  0.00  0.00    +0.000 A 
ATOM     15  C   UNL     1       1.632   8.196  21.591  0.00  0.00    +0.000 A 
ATOM     16  C   UNL     1       1.067   9.121  22.474  0.00  0.00    +0.000 A 
ATOM     17  C   UNL     1       0.239  10.123  21.986  0.00  0.00    +0.000 A 
ATOM     18  F   UNL     1      -0.286  11.020  22.832  0.00  0.00    +0.000 F 
ATOM     19  C   UNL     1      -0.043  10.214  20.630  0.00  0.00    +0.000 A 
ATOM     20  C   UNL     1       0.532   9.300  19.742  0.00  0.00    +0.000 A 
ENDBRANCH  13  14
BRANCH  13  21
ATOM     21  C   UNL     1       2.493   8.138  17.888  0.00  0.00    +0.000 C 
ATOM     22  F   UNL     1       1.392   8.427  17.150  0.00  0.00    +0.000 F 
ATOM     23  F   UNL     1       3.101   9.314  18.177  0.00  0.00    +0.000 F 
ATOM     24  F   UNL     1       3.328   7.444  17.082  0.00  0.00    +0.000 F 
ENDBRANCH  13  21
ENDBRANCH  11  13
ENDBRANCH   1  11
BRANCH   1  25
ATOM     25  C   UNL     1       2.289   4.596  18.765  0.00  0.00    +0.000 C 
BRANCH  25  27
ATOM     26  C   UNL     1       1.264   2.989  20.881  0.00  0.00    +0.000 C 
ATOM     27  S   UNL     1       1.756   2.950  19.172  0.00  0.00    +0.000 S 
ATOM     28  O   UNL     1       2.911   2.084  19.038  0.00  0.00    +0.000 OA
ATOM     29  O   UNL     1       0.565   2.697  18.384  0.00  0.00    +0.000 OA
ENDBRANCH  25  27
ENDBRANCH   1  25
TORSDOF 9
ENDMDL
MODEL 9
REMARK VINA RESULT:      -7.2      3.094      4.760
REMARK  Name = 
REMARK  10 active torsions:
REMARK  status: ('A' for Active; 'I' for Inactive)
REMARK    1  A    between atoms: C_1  and  S_2
REMARK    2  A    between atoms: S_2  and  C_5
REMARK    3  A    between atoms: C_5  and  C_6
REMARK    4  A    between atoms: C_6  and  N_7
REMARK    5  A    between atoms: C_6  and  C_20
REMARK    6  A    between atoms: N_7  and  C_8
REMARK    7  A    between atoms: C_8  and  C_9
REMARK    8  A    between atoms: C_8  and  C_16
REMARK    9  A    between atoms: N_22  and  C_23
REMARK   10  A    between atoms: C_23  and  C_24
REMARK                            x       y       z     vdW  Elec       q    Type
REMARK                         _______ _______ _______ _____ _____    ______ ____
ROOT
ATOM      1  C   UNL     1       3.169   5.319  19.768  0.00  0.00    +0.000 C 
ENDROOT
BRANCH   1   2
ATOM      2  C   UNL     1       4.608   5.050  19.190  0.00  0.00    +0.000 C 
ATOM      3  O   UNL     1       5.205   4.029  19.550  0.00  0.00    +0.000 OA
ATOM      4  N   UNL     1       5.221   6.012  18.422  0.00  0.00    +0.000 N 
ATOM      5  H   UNL     1       4.624   6.560  17.801  0.00  0.00    +0.000 HD
BRANCH   4   6
ATOM      6  C   UNL     1       6.559   5.802  17.881  0.00  0.00    +0.000 C 
ATOM      7  C   UNL     1       7.774   5.901  18.785  0.00  0.00    +0.000 C 
ATOM      8  C   UNL     1       7.482   7.011  17.826  0.00  0.00    +0.000 C 
BRANCH   6   9
ATOM      9  C   UNL     1       6.636   4.873  16.765  0.00  0.00    +0.000 C 
ATOM     10  N   UNL     1       6.702   4.117  15.885  0.00  0.00    +0.000 NA
ENDBRANCH   6   9
ENDBRANCH   4   6
ENDBRANCH   1   2
BRANCH   1  11
ATOM     11  N   UNL     1       3.098   6.797  19.865  0.00  0.00    +0.000 NA
ATOM     12  H   UNL     1       3.277   7.085  20.835  0.00  0.00    +0.000 HD
BRANCH  11  13
ATOM     13  C   UNL     1       1.942   7.551  19.316  0.00  0.00    +0.000 C 
BRANCH  13  14
ATOM     14  C   UNL     1       1.304   8.516  20.316  0.00  0.00    +0.000 A 
ATOM     15  C   UNL     1       0.380   9.492  19.900  0.00  0.00    +0.000 A 
ATOM     16  C   UNL     1      -0.291  10.282  20.838  0.00  0.00    +0.000 A 
ATOM     17  C   UNL     1      -0.028  10.119  22.192  0.00  0.00    +0.000 A 
ATOM     18  F   UNL     1      -0.687  10.865  23.089  0.00  0.00    +0.000 F 
ATOM     19  C   UNL     1       0.902   9.185  22.627  0.00  0.00    +0.000 A 
ATOM     20  C   UNL     1       1.565   8.383  21.694  0.00  0.00    +0.000 A 
ENDBRANCH  13  14
BRANCH  13  21
ATOM     21  C   UNL     1       2.279   8.267  17.946  0.00  0.00    +0.000 C 
ATOM     22  F   UNL     1       1.157   8.474  17.210  0.00  0.00    +0.000 F 
ATOM     23  F   UNL     1       2.840   9.481  18.168  0.00  0.00    +0.000 F 
ATOM     24  F   UNL     1       3.131   7.569  17.163  0.00  0.00    +0.000 F 
ENDBRANCH  13  21
ENDBRANCH  11  13
ENDBRANCH   1  11
BRANCH   1  25
ATOM     25  C   UNL     1       1.978   4.752  19.011  0.00  0.00    +0.000 C 
BRANCH  25  27
ATOM     26  C   UNL     1       2.602   2.214  17.879  0.00  0.00    +0.000 C 
ATOM     27  S   UNL     1       1.706   3.005  19.197  0.00  0.00    +0.000 S 
ATOM     28  O   UNL     1       0.288   2.773  19.004  0.00  0.00    +0.000 OA
ATOM     29  O   UNL     1       2.341   2.621  20.443  0.00  0.00    +0.000 OA
ENDBRANCH  25  27
ENDBRANCH   1  25
TORSDOF 9
ENDMDL
