MODEL 1
REMARK VINA RESULT:      -8.6      0.000      0.000
REMARK  Name = 
REMARK  8 active torsions:
REMARK  status: ('A' for Active; 'I' for Inactive)
REMARK    1  A    between atoms: C_2  and  C_4
REMARK    2  A    between atoms: C_4  and  O_5
REMARK    3  A    between atoms: C_4  and  C_6
REMARK    4  A    between atoms: C_6  and  O_7
REMARK    5  A    between atoms: C_6  and  C_8
REMARK    6  A    between atoms: C_12  and  C_13
REMARK    7  A    between atoms: C_16  and  O_17
REMARK    8  A    between atoms: O_17  and  C_18
REMARK                            x       y       z     vdW  Elec       q    Type
REMARK                         _______ _______ _______ _____ _____    ______ ____
ROOT
ATOM      1  C   UNL     1       4.537   4.787  18.252  0.00  0.00    +0.000 A 
ATOM      2  C   UNL     1       4.246   3.787  19.175  0.00  0.00    +0.000 A 
ATOM      3  C   UNL     1       3.237   4.009  20.106  0.00  0.00    +0.000 A 
ATOM      4  C   UNL     1       2.561   5.225  20.107  0.00  0.00    +0.000 A 
ATOM      5  C   UNL     1       2.919   6.207  19.189  0.00  0.00    +0.000 A 
ATOM      6  N   UNL     1       3.909   5.988  18.284  0.00  0.00    +0.000 NA
ENDROOT
BRANCH   5   7
ATOM      7  C   UNL     1       2.262   7.522  19.116  0.00  0.00    +0.000 A 
ATOM      8  C   UNL     1       1.539   8.059  20.197  0.00  0.00    +0.000 A 
ATOM      9  C   UNL     1       0.914   9.309  20.108  0.00  0.00    +0.000 A 
ATOM     10  C   UNL     1       1.008  10.058  18.936  0.00  0.00    +0.000 A 
ATOM     11  C   UNL     1       1.701   9.539  17.844  0.00  0.00    +0.000 A 
ATOM     12  C   UNL     1       2.336   8.295  17.943  0.00  0.00    +0.000 A 
BRANCH  10  13
ATOM     13  O   UNL     1       0.318  11.248  18.916  0.00  0.00    +0.000 OA
BRANCH  13  14
ATOM     14  C   UNL     1      -1.048  11.217  18.668  0.00  0.00    +0.000 A 
ATOM     15  C   UNL     1      -1.481  10.297  17.722  0.00  0.00    +0.000 A 
ATOM     16  C   UNL     1      -2.845  10.233  17.436  0.00  0.00    +0.000 A 
ATOM     17  C   UNL     1      -3.719  11.076  18.114  0.00  0.00    +0.000 A 
ATOM     18 CL   UNL     1      -5.399  11.050  17.774  0.00  0.00    +0.000 Cl
ATOM     19  C   UNL     1      -3.199  11.939  19.066  0.00  0.00    +0.000 A 
ATOM     20  N   UNL     1      -1.882  12.020  19.368  0.00  0.00    +0.000 NA
ENDBRANCH  13  14
ENDBRANCH  10  13
ENDBRANCH   5   7
BRANCH   1  21
ATOM     21  C   UNL     1       5.694   4.616  17.272  0.00  0.00    +0.000 C 
BRANCH  21  22
ATOM     22  O   UNL     1       5.627   3.286  16.723  0.00  0.00    +0.000 OA
ATOM     23  H   UNL     1       5.295   3.390  15.811  0.00  0.00    +0.000 HD
ENDBRANCH  21  22
BRANCH  21  24
ATOM     24  C   UNL     1       7.088   4.814  17.912  0.00  0.00    +0.000 C 
BRANCH  24  26
ATOM     25  N   UNL     1       6.902   7.028  16.908  0.00  0.00    +0.000 N 
ATOM     26  C   UNL     1       7.449   6.307  17.938  0.00  0.00    +0.000 C 
ATOM     27  O   UNL     1       8.196   6.838  18.751  0.00  0.00    +0.000 OA
ATOM     28  H   UNL     1       7.067   8.022  16.847  0.00  0.00    +0.000 HD
ATOM     29  H   UNL     1       6.337   6.557  16.208  0.00  0.00    +0.000 HD
ENDBRANCH  24  26
BRANCH  24  30
ATOM     30  O   UNL     1       8.138   4.127  17.201  0.00  0.00    +0.000 OA
ATOM     31  H   UNL     1       8.969   4.524  17.521  0.00  0.00    +0.000 HD
ENDBRANCH  24  30
ENDBRANCH  21  24
ENDBRANCH   1  21
TORSDOF 8
ENDMDL
MODEL 2
REMARK VINA RESULT:      -8.6      1.046      1.429
REMARK  Name = 
REMARK  8 active torsions:
REMARK  status: ('A' for Active; 'I' for Inactive)
REMARK    1  A    between atoms: C_2  and  C_4
REMARK    2  A    between atoms: C_4  and  O_5
REMARK    3  A    between atoms: C_4  and  C_6
REMARK    4  A    between atoms: C_6  and  O_7
REMARK    5  A    between atoms: C_6  and  C_8
REMARK    6  A    between atoms: C_12  and  C_13
REMARK    7  A    between atoms: C_16  and  O_17
REMARK    8  A    between atoms: O_17  and  C_18
REMARK                            x       y       z     vdW  Elec       q    Type
REMARK                         _______ _______ _______ _____ _____    ______ ____
ROOT
ATOM      1  C   UNL     1       4.545   4.606  18.968  0.00  0.00    +0.000 A 
ATOM      2  C   UNL     1       4.039   3.599  19.785  0.00  0.00    +0.000 A 
ATOM      3  C   UNL     1       2.850   3.826  20.469  0.00  0.00    +0.000 A 
ATOM      4  C   UNL     1       2.209   5.053  20.340  0.00  0.00    +0.000 A 
ATOM      5  C   UNL     1       2.778   6.041  19.543  0.00  0.00    +0.000 A 
ATOM      6  N   UNL     1       3.942   5.817  18.880  0.00  0.00    +0.000 NA
ENDROOT
BRANCH   5   7
ATOM      7  C   UNL     1       2.173   7.369  19.347  0.00  0.00    +0.000 A 
ATOM      8  C   UNL     1       1.500   8.045  20.382  0.00  0.00    +0.000 A 
ATOM      9  C   UNL     1       0.924   9.304  20.176  0.00  0.00    +0.000 A 
ATOM     10  C   UNL     1       1.018   9.925  18.931  0.00  0.00    +0.000 A 
ATOM     11  C   UNL     1       1.661   9.266  17.884  0.00  0.00    +0.000 A 
ATOM     12  C   UNL     1       2.248   8.013  18.099  0.00  0.00    +0.000 A 
BRANCH  10  13
ATOM     13  O   UNL     1       0.376  11.134  18.801  0.00  0.00    +0.000 OA
BRANCH  13  14
ATOM     14  C   UNL     1      -0.993  11.136  18.577  0.00  0.00    +0.000 A 
ATOM     15  C   UNL     1      -1.470  10.200  17.669  0.00  0.00    +0.000 A 
ATOM     16  C   UNL     1      -2.841  10.168  17.407  0.00  0.00    +0.000 A 
ATOM     17  C   UNL     1      -3.677  11.058  18.072  0.00  0.00    +0.000 A 
ATOM     18 CL   UNL     1      -5.363  11.071  17.760  0.00  0.00    +0.000 Cl
ATOM     19  C   UNL     1      -3.115  11.935  18.986  0.00  0.00    +0.000 A 
ATOM     20  N   UNL     1      -1.792  11.986  19.265  0.00  0.00    +0.000 NA
ENDBRANCH  13  14
ENDBRANCH  10  13
ENDBRANCH   5   7
BRANCH   1  21
ATOM     21  C   UNL     1       5.889   4.428  18.270  0.00  0.00    +0.000 C 
BRANCH  21  22
ATOM     22  O   UNL     1       6.712   5.570  18.579  0.00  0.00    +0.000 OA
ATOM     23  H   UNL     1       6.114   6.231  18.975  0.00  0.00    +0.000 HD
ENDBRANCH  21  22
BRANCH  21  24
ATOM     24  C   UNL     1       5.782   4.302  16.732  0.00  0.00    +0.000 C 
BRANCH  24  26
ATOM     25  N   UNL     1       7.561   5.451  15.523  0.00  0.00    +0.000 N 
ATOM     26  C   UNL     1       6.306   5.581  16.061  0.00  0.00    +0.000 C 
ATOM     27  O   UNL     1       5.716   6.654  16.032  0.00  0.00    +0.000 OA
ATOM     28  H   UNL     1       7.985   6.232  15.045  0.00  0.00    +0.000 HD
ATOM     29  H   UNL     1       8.059   4.572  15.613  0.00  0.00    +0.000 HD
ENDBRANCH  24  26
BRANCH  24  30
ATOM     30  O   UNL     1       4.430   4.096  16.276  0.00  0.00    +0.000 OA
ATOM     31  H   UNL     1       4.128   3.283  16.722  0.00  0.00    +0.000 HD
ENDBRANCH  24  30
ENDBRANCH  21  24
ENDBRANCH   1  21
TORSDOF 8
ENDMDL
MODEL 3
REMARK VINA RESULT:      -8.4      1.419      2.065
REMARK  Name = 
REMARK  8 active torsions:
REMARK  status: ('A' for Active; 'I' for Inactive)
REMARK    1  A    between atoms: C_2  and  C_4
REMARK    2  A    between atoms: C_4  and  O_5
REMARK    3  A    between atoms: C_4  and  C_6
REMARK    4  A    between atoms: C_6  and  O_7
REMARK    5  A    between atoms: C_6  and  C_8
REMARK    6  A    between atoms: C_12  and  C_13
REMARK    7  A    between atoms: C_16  and  O_17
REMARK    8  A    between atoms: O_17  and  C_18
REMARK                            x       y       z     vdW  Elec       q    Type
REMARK                         _______ _______ _______ _____ _____    ______ ____
ROOT
ATOM      1  C   UNL     1       4.355   4.464  17.374  0.00  0.00    +0.000 A 
ATOM      2  C   UNL     1       4.628   3.638  18.460  0.00  0.00    +0.000 A 
ATOM      3  C   UNL     1       4.160   4.007  19.717  0.00  0.00    +0.000 A 
ATOM      4  C   UNL     1       3.455   5.197  19.862  0.00  0.00    +0.000 A 
ATOM      5  C   UNL     1       3.245   6.008  18.752  0.00  0.00    +0.000 A 
ATOM      6  N   UNL     1       3.706   5.645  17.527  0.00  0.00    +0.000 NA
ENDROOT
BRANCH   5   7
ATOM      7  C   UNL     1       2.511   7.283  18.810  0.00  0.00    +0.000 A 
ATOM      8  C   UNL     1       2.428   8.149  17.703  0.00  0.00    +0.000 A 
ATOM      9  C   UNL     1       1.732   9.361  17.778  0.00  0.00    +0.000 A 
ATOM     10  C   UNL     1       1.090   9.731  18.958  0.00  0.00    +0.000 A 
ATOM     11  C   UNL     1       1.175   8.900  20.074  0.00  0.00    +0.000 A 
ATOM     12  C   UNL     1       1.861   7.682  19.991  0.00  0.00    +0.000 A 
BRANCH  10  13
ATOM     13  O   UNL     1       0.477  10.963  18.960  0.00  0.00    +0.000 OA
BRANCH  13  14
ATOM     14  C   UNL     1      -0.879  11.028  18.672  0.00  0.00    +0.000 A 
ATOM     15  C   UNL     1      -1.362  10.092  17.767  0.00  0.00    +0.000 A 
ATOM     16  C   UNL     1      -2.720  10.122  17.444  0.00  0.00    +0.000 A 
ATOM     17  C   UNL     1      -3.538  11.072  18.046  0.00  0.00    +0.000 A 
ATOM     18 CL   UNL     1      -5.205  11.161  17.657  0.00  0.00    +0.000 Cl
ATOM     19  C   UNL     1      -2.973  11.944  18.963  0.00  0.00    +0.000 A 
ATOM     20  N   UNL     1      -1.662  11.936  19.301  0.00  0.00    +0.000 NA
ENDBRANCH  13  14
ENDBRANCH  10  13
ENDBRANCH   5   7
BRANCH   1  21
ATOM     21  C   UNL     1       4.923   4.138  15.997  0.00  0.00    +0.000 C 
BRANCH  21  22
ATOM     22  O   UNL     1       5.952   3.142  16.158  0.00  0.00    +0.000 OA
ATOM     23  H   UNL     1       6.062   2.727  15.283  0.00  0.00    +0.000 HD
ENDBRANCH  21  22
BRANCH  21  24
ATOM     24  C   UNL     1       5.531   5.359  15.268  0.00  0.00    +0.000 C 
BRANCH  24  26
ATOM     25  N   UNL     1       7.845   5.530  14.517  0.00  0.00    +0.000 N 
ATOM     26  C   UNL     1       6.643   4.901  14.311  0.00  0.00    +0.000 C 
ATOM     27  O   UNL     1       6.503   4.094  13.401  0.00  0.00    +0.000 OA
ATOM     28  H   UNL     1       8.643   5.286  13.950  0.00  0.00    +0.000 HD
ATOM     29  H   UNL     1       7.924   6.242  15.235  0.00  0.00    +0.000 HD
ENDBRANCH  24  26
BRANCH  24  30
ATOM     30  O   UNL     1       6.106   6.325  16.169  0.00  0.00    +0.000 OA
ATOM     31  H   UNL     1       5.637   6.201  17.015  0.00  0.00    +0.000 HD
ENDBRANCH  24  30
ENDBRANCH  21  24
ENDBRANCH   1  21
TORSDOF 8
ENDMDL
MODEL 4
REMARK VINA RESULT:      -8.4      1.248      1.737
REMARK  Name = 
REMARK  8 active torsions:
REMARK  status: ('A' for Active; 'I' for Inactive)
REMARK    1  A    between atoms: C_2  and  C_4
REMARK    2  A    between atoms: C_4  and  O_5
REMARK    3  A    between atoms: C_4  and  C_6
REMARK    4  A    between atoms: C_6  and  O_7
REMARK    5  A    between atoms: C_6  and  C_8
REMARK    6  A    between atoms: C_12  and  C_13
REMARK    7  A    between atoms: C_16  and  O_17
REMARK    8  A    between atoms: O_17  and  C_18
REMARK                            x       y       z     vdW  Elec       q    Type
REMARK                         _______ _______ _______ _____ _____    ______ ____
ROOT
ATOM      1  C   UNL     1       4.259   4.640  19.222  0.00  0.00    +0.000 A 
ATOM      2  C   UNL     1       3.617   3.631  19.934  0.00  0.00    +0.000 A 
ATOM      3  C   UNL     1       2.382   3.903  20.513  0.00  0.00    +0.000 A 
ATOM      4  C   UNL     1       1.831   5.173  20.386  0.00  0.00    +0.000 A 
ATOM      5  C   UNL     1       2.533   6.158  19.699  0.00  0.00    +0.000 A 
ATOM      6  N   UNL     1       3.741   5.890  19.139  0.00  0.00    +0.000 NA
ENDROOT
BRANCH   5   7
ATOM      7  C   UNL     1       2.030   7.529  19.514  0.00  0.00    +0.000 A 
ATOM      8  C   UNL     1       1.385   8.235  20.547  0.00  0.00    +0.000 A 
ATOM      9  C   UNL     1       0.906   9.536  20.352  0.00  0.00    +0.000 A 
ATOM     10  C   UNL     1       1.072  10.168  19.121  0.00  0.00    +0.000 A 
ATOM     11  C   UNL     1       1.689   9.482  18.076  0.00  0.00    +0.000 A 
ATOM     12  C   UNL     1       2.179   8.186  18.280  0.00  0.00    +0.000 A 
BRANCH  10  13
ATOM     13  O   UNL     1       0.523  11.424  19.000  0.00  0.00    +0.000 OA
BRANCH  13  14
ATOM     14  C   UNL     1      -0.858  11.535  18.908  0.00  0.00    +0.000 A 
ATOM     15  C   UNL     1      -1.480  12.304  19.883  0.00  0.00    +0.000 A 
ATOM     16  C   UNL     1      -2.868  12.441  19.834  0.00  0.00    +0.000 A 
ATOM     17  C   UNL     1      -3.573  11.818  18.810  0.00  0.00    +0.000 A 
ATOM     18 CL   UNL     1      -5.281  11.937  18.728  0.00  0.00    +0.000 Cl
ATOM     19  C   UNL     1      -2.863  11.098  17.862  0.00  0.00    +0.000 A 
ATOM     20  N   UNL     1      -1.518  10.952  17.880  0.00  0.00    +0.000 NA
ENDBRANCH  13  14
ENDBRANCH  10  13
ENDBRANCH   5   7
BRANCH   1  21
ATOM     21  C   UNL     1       5.653   4.408  18.647  0.00  0.00    +0.000 C 
BRANCH  21  22
ATOM     22  O   UNL     1       6.611   5.040  19.518  0.00  0.00    +0.000 OA
ATOM     23  H   UNL     1       6.297   5.956  19.641  0.00  0.00    +0.000 HD
ENDBRANCH  21  22
BRANCH  21  24
ATOM     24  C   UNL     1       5.841   4.972  17.219  0.00  0.00    +0.000 C 
BRANCH  24  26
ATOM     25  N   UNL     1       7.408   4.847  15.355  0.00  0.00    +0.000 N 
ATOM     26  C   UNL     1       7.248   4.637  16.701  0.00  0.00    +0.000 C 
ATOM     27  O   UNL     1       8.157   4.172  17.378  0.00  0.00    +0.000 OA
ATOM     28  H   UNL     1       8.303   4.672  14.922  0.00  0.00    +0.000 HD
ATOM     29  H   UNL     1       6.624   5.172  14.800  0.00  0.00    +0.000 HD
ENDBRANCH  24  26
BRANCH  24  30
ATOM     30  O   UNL     1       5.685   6.404  17.154  0.00  0.00    +0.000 OA
ATOM     31  H   UNL     1       6.303   6.762  17.817  0.00  0.00    +0.000 HD
ENDBRANCH  24  30
ENDBRANCH  21  24
ENDBRANCH   1  21
TORSDOF 8
ENDMDL
MODEL 5
REMARK VINA RESULT:      -8.3      2.973      3.680
REMARK  Name = 
REMARK  8 active torsions:
REMARK  status: ('A' for Active; 'I' for Inactive)
REMARK    1  A    between atoms: C_2  and  C_4
REMARK    2  A    between atoms: C_4  and  O_5
REMARK    3  A    between atoms: C_4  and  C_6
REMARK    4  A    between atoms: C_6  and  O_7
REMARK    5  A    between atoms: C_6  and  C_8
REMARK    6  A    between atoms: C_12  and  C_13
REMARK    7  A    between atoms: C_16  and  O_17
REMARK    8  A    between atoms: O_17  and  C_18
REMARK                            x       y       z     vdW  Elec       q    Type
REMARK                         _______ _______ _______ _____ _____    ______ ____
ROOT
ATOM      1  C   UNL     1       4.163   4.550  19.351  0.00  0.00    +0.000 A 
ATOM      2  C   UNL     1       3.451   3.578  20.048  0.00  0.00    +0.000 A 
ATOM      3  C   UNL     1       2.197   3.903  20.556  0.00  0.00    +0.000 A 
ATOM      4  C   UNL     1       1.697   5.188  20.376  0.00  0.00    +0.000 A 
ATOM      5  C   UNL     1       2.467   6.134  19.707  0.00  0.00    +0.000 A 
ATOM      6  N   UNL     1       3.693   5.815  19.216  0.00  0.00    +0.000 NA
ENDROOT
BRANCH   5   7
ATOM      7  C   UNL     1       2.022   7.517  19.469  0.00  0.00    +0.000 A 
ATOM      8  C   UNL     1       1.427   8.295  20.480  0.00  0.00    +0.000 A 
ATOM      9  C   UNL     1       1.002   9.607  20.234  0.00  0.00    +0.000 A 
ATOM     10  C   UNL     1       1.174  10.177  18.974  0.00  0.00    +0.000 A 
ATOM     11  C   UNL     1       1.742   9.418  17.951  0.00  0.00    +0.000 A 
ATOM     12  C   UNL     1       2.178   8.112  18.205  0.00  0.00    +0.000 A 
BRANCH  10  13
ATOM     13  O   UNL     1       0.678  11.449  18.806  0.00  0.00    +0.000 OA
BRANCH  13  14
ATOM     14  C   UNL     1       1.494  12.525  19.127  0.00  0.00    +0.000 A 
ATOM     15  C   UNL     1       2.417  12.908  18.163  0.00  0.00    +0.000 A 
ATOM     16  C   UNL     1       3.262  13.983  18.444  0.00  0.00    +0.000 A 
ATOM     17  C   UNL     1       3.142  14.636  19.666  0.00  0.00    +0.000 A 
ATOM     18 CL   UNL     1       4.178  15.942  20.063  0.00  0.00    +0.000 Cl
ATOM     19  C   UNL     1       2.169  14.203  20.554  0.00  0.00    +0.000 A 
ATOM     20  N   UNL     1       1.332  13.169  20.307  0.00  0.00    +0.000 NA
ENDBRANCH  13  14
ENDBRANCH  10  13
ENDBRANCH   5   7
BRANCH   1  21
ATOM     21  C   UNL     1       5.576   4.260  18.854  0.00  0.00    +0.000 C 
BRANCH  21  22
ATOM     22  O   UNL     1       6.473   5.201  19.474  0.00  0.00    +0.000 OA
ATOM     23  H   UNL     1       6.718   5.837  18.775  0.00  0.00    +0.000 HD
ENDBRANCH  21  22
BRANCH  21  24
ATOM     24  C   UNL     1       5.733   4.368  17.320  0.00  0.00    +0.000 C 
BRANCH  24  26
ATOM     25  N   UNL     1       7.202   6.050  16.341  0.00  0.00    +0.000 N 
ATOM     26  C   UNL     1       7.155   4.831  16.967  0.00  0.00    +0.000 C 
ATOM     27  O   UNL     1       8.176   4.182  17.158  0.00  0.00    +0.000 OA
ATOM     28  H   UNL     1       8.092   6.449  16.084  0.00  0.00    +0.000 HD
ATOM     29  H   UNL     1       6.340   6.544  16.135  0.00  0.00    +0.000 HD
ENDBRANCH  24  26
BRANCH  24  30
ATOM     30  O   UNL     1       4.812   5.305  16.724  0.00  0.00    +0.000 OA
ATOM     31  H   UNL     1       5.365   5.910  16.197  0.00  0.00    +0.000 HD
ENDBRANCH  24  30
ENDBRANCH  21  24
ENDBRANCH   1  21
TORSDOF 8
ENDMDL
MODEL 6
REMARK VINA RESULT:      -8.3      3.150      3.950
REMARK  Name = 
REMARK  8 active torsions:
REMARK  status: ('A' for Active; 'I' for Inactive)
REMARK    1  A    between atoms: C_2  and  C_4
REMARK    2  A    between atoms: C_4  and  O_5
REMARK    3  A    between atoms: C_4  and  C_6
REMARK    4  A    between atoms: C_6  and  O_7
REMARK    5  A    between atoms: C_6  and  C_8
REMARK    6  A    between atoms: C_12  and  C_13
REMARK    7  A    between atoms: C_16  and  O_17
REMARK    8  A    between atoms: O_17  and  C_18
REMARK                            x       y       z     vdW  Elec       q    Type
REMARK                         _______ _______ _______ _____ _____    ______ ____
ROOT
ATOM      1  C   UNL     1       4.117   4.598  19.425  0.00  0.00    +0.000 A 
ATOM      2  C   UNL     1       3.421   3.560  20.036  0.00  0.00    +0.000 A 
ATOM      3  C   UNL     1       2.157   3.818  20.558  0.00  0.00    +0.000 A 
ATOM      4  C   UNL     1       1.632   5.103  20.477  0.00  0.00    +0.000 A 
ATOM      5  C   UNL     1       2.386   6.114  19.892  0.00  0.00    +0.000 A 
ATOM      6  N   UNL     1       3.621   5.860  19.387  0.00  0.00    +0.000 NA
ENDROOT
BRANCH   5   7
ATOM      7  C   UNL     1       1.913   7.503  19.761  0.00  0.00    +0.000 A 
ATOM      8  C   UNL     1       2.042   8.227  18.562  0.00  0.00    +0.000 A 
ATOM      9  C   UNL     1       1.593   9.549  18.457  0.00  0.00    +0.000 A 
ATOM     10  C   UNL     1       0.992  10.176  19.548  0.00  0.00    +0.000 A 
ATOM     11  C   UNL     1       0.872   9.485  20.753  0.00  0.00    +0.000 A 
ATOM     12  C   UNL     1       1.309   8.159  20.849  0.00  0.00    +0.000 A 
BRANCH  10  13
ATOM     13  O   UNL     1       0.632  11.492  19.374  0.00  0.00    +0.000 OA
BRANCH  13  14
ATOM     14  C   UNL     1       1.600  12.471  19.547  0.00  0.00    +0.000 A 
ATOM     15  C   UNL     1       2.126  13.029  18.389  0.00  0.00    +0.000 A 
ATOM     16  C   UNL     1       3.107  14.014  18.514  0.00  0.00    +0.000 A 
ATOM     17  C   UNL     1       3.510  14.410  19.785  0.00  0.00    +0.000 A 
ATOM     18 CL   UNL     1       4.731  15.597  19.983  0.00  0.00    +0.000 Cl
ATOM     19  C   UNL     1       2.905  13.820  20.883  0.00  0.00    +0.000 A 
ATOM     20  N   UNL     1       1.948  12.867  20.794  0.00  0.00    +0.000 NA
ENDBRANCH  13  14
ENDBRANCH  10  13
ENDBRANCH   5   7
BRANCH   1  21
ATOM     21  C   UNL     1       5.539   4.378  18.918  0.00  0.00    +0.000 C 
BRANCH  21  22
ATOM     22  O   UNL     1       6.408   5.303  19.599  0.00  0.00    +0.000 OA
ATOM     23  H   UNL     1       7.057   5.600  18.934  0.00  0.00    +0.000 HD
ENDBRANCH  21  22
BRANCH  21  24
ATOM     24  C   UNL     1       5.697   4.586  17.394  0.00  0.00    +0.000 C 
BRANCH  24  26
ATOM     25  N   UNL     1       8.095   4.217  17.641  0.00  0.00    +0.000 N 
ATOM     26  C   UNL     1       7.137   5.012  17.067  0.00  0.00    +0.000 C 
ATOM     27  O   UNL     1       7.448   5.996  16.406  0.00  0.00    +0.000 OA
ATOM     28  H   UNL     1       9.072   4.405  17.472  0.00  0.00    +0.000 HD
ATOM     29  H   UNL     1       7.817   3.444  18.237  0.00  0.00    +0.000 HD
ENDBRANCH  24  26
BRANCH  24  30
ATOM     30  O   UNL     1       4.816   5.598  16.868  0.00  0.00    +0.000 OA
ATOM     31  H   UNL     1       4.079   5.111  16.457  0.00  0.00    +0.000 HD
ENDBRANCH  24  30
ENDBRANCH  21  24
ENDBRANCH   1  21
TORSDOF 8
ENDMDL
MODEL 7
REMARK VINA RESULT:      -8.3      1.218      1.804
REMARK  Name = 
REMARK  8 active torsions:
REMARK  status: ('A' for Active; 'I' for Inactive)
REMARK    1  A    between atoms: C_2  and  C_4
REMARK    2  A    between atoms: C_4  and  O_5
REMARK    3  A    between atoms: C_4  and  C_6
REMARK    4  A    between atoms: C_6  and  O_7
REMARK    5  A    between atoms: C_6  and  C_8
REMARK    6  A    between atoms: C_12  and  C_13
REMARK    7  A    between atoms: C_16  and  O_17
REMARK    8  A    between atoms: O_17  and  C_18
REMARK                            x       y       z     vdW  Elec       q    Type
REMARK                         _______ _______ _______ _____ _____    ______ ____
ROOT
ATOM      1  C   UNL     1       4.536   4.741  17.135  0.00  0.00    +0.000 A 
ATOM      2  C   UNL     1       3.813   3.554  17.217  0.00  0.00    +0.000 A 
ATOM      3  C   UNL     1       2.516   3.594  17.716  0.00  0.00    +0.000 A 
ATOM      4  C   UNL     1       1.982   4.806  18.139  0.00  0.00    +0.000 A 
ATOM      5  C   UNL     1       2.761   5.957  18.074  0.00  0.00    +0.000 A 
ATOM      6  N   UNL     1       4.029   5.913  17.590  0.00  0.00    +0.000 NA
ENDROOT
BRANCH   5   7
ATOM      7  C   UNL     1       2.281   7.283  18.499  0.00  0.00    +0.000 A 
ATOM      8  C   UNL     1       2.243   8.381  17.620  0.00  0.00    +0.000 A 
ATOM      9  C   UNL     1       1.790   9.637  18.043  0.00  0.00    +0.000 A 
ATOM     10  C   UNL     1       1.354   9.821  19.353  0.00  0.00    +0.000 A 
ATOM     11  C   UNL     1       1.402   8.754  20.248  0.00  0.00    +0.000 A 
ATOM     12  C   UNL     1       1.842   7.496  19.818  0.00  0.00    +0.000 A 
BRANCH  10  13
ATOM     13  O   UNL     1       0.979  11.099  19.698  0.00  0.00    +0.000 OA
BRANCH  13  14
ATOM     14  C   UNL     1      -0.365  11.436  19.628  0.00  0.00    +0.000 A 
ATOM     15  C   UNL     1      -0.877  12.154  20.700  0.00  0.00    +0.000 A 
ATOM     16  C   UNL     1      -2.226  12.511  20.676  0.00  0.00    +0.000 A 
ATOM     17  C   UNL     1      -3.002  12.150  19.579  0.00  0.00    +0.000 A 
ATOM     18 CL   UNL     1      -4.669  12.545  19.521  0.00  0.00    +0.000 Cl
ATOM     19  C   UNL     1      -2.396  11.463  18.540  0.00  0.00    +0.000 A 
ATOM     20  N   UNL     1      -1.090  11.108  18.532  0.00  0.00    +0.000 NA
ENDBRANCH  13  14
ENDBRANCH  10  13
ENDBRANCH   5   7
BRANCH   1  21
ATOM     21  C   UNL     1       5.990   4.726  16.675  0.00  0.00    +0.000 C 
BRANCH  21  22
ATOM     22  O   UNL     1       6.236   3.478  15.998  0.00  0.00    +0.000 OA
ATOM     23  H   UNL     1       6.769   3.700  15.212  0.00  0.00    +0.000 HD
ENDBRANCH  21  22
BRANCH  21  24
ATOM     24  C   UNL     1       7.011   4.869  17.828  0.00  0.00    +0.000 C 
BRANCH  24  26
ATOM     25  N   UNL     1       7.060   7.127  16.908  0.00  0.00    +0.000 N 
ATOM     26  C   UNL     1       7.469   6.331  17.947  0.00  0.00    +0.000 C 
ATOM     27  O   UNL     1       8.181   6.776  18.839  0.00  0.00    +0.000 OA
ATOM     28  H   UNL     1       7.296   8.108  16.903  0.00  0.00    +0.000 HD
ATOM     29  H   UNL     1       6.524   6.724  16.146  0.00  0.00    +0.000 HD
ENDBRANCH  24  26
BRANCH  24  30
ATOM     30  O   UNL     1       8.189   4.060  17.642  0.00  0.00    +0.000 OA
ATOM     31  H   UNL     1       8.305   3.990  16.676  0.00  0.00    +0.000 HD
ENDBRANCH  24  30
ENDBRANCH  21  24
ENDBRANCH   1  21
TORSDOF 8
ENDMDL
MODEL 8
REMARK VINA RESULT:      -8.3      2.281      3.515
REMARK  Name = 
REMARK  8 active torsions:
REMARK  status: ('A' for Active; 'I' for Inactive)
REMARK    1  A    between atoms: C_2  and  C_4
REMARK    2  A    between atoms: C_4  and  O_5
REMARK    3  A    between atoms: C_4  and  C_6
REMARK    4  A    between atoms: C_6  and  O_7
REMARK    5  A    between atoms: C_6  and  C_8
REMARK    6  A    between atoms: C_12  and  C_13
REMARK    7  A    between atoms: C_16  and  O_17
REMARK    8  A    between atoms: O_17  and  C_18
REMARK                            x       y       z     vdW  Elec       q    Type
REMARK                         _______ _______ _______ _____ _____    ______ ____
ROOT
ATOM      1  C   UNL     1       3.739   4.202  17.829  0.00  0.00    +0.000 A 
ATOM      2  C   UNL     1       4.940   4.367  17.145  0.00  0.00    +0.000 A 
ATOM      3  C   UNL     1       5.410   5.656  16.919  0.00  0.00    +0.000 A 
ATOM      4  C   UNL     1       4.663   6.744  17.359  0.00  0.00    +0.000 A 
ATOM      5  C   UNL     1       3.449   6.526  18.001  0.00  0.00    +0.000 A 
ATOM      6  N   UNL     1       2.992   5.265  18.217  0.00  0.00    +0.000 NA
ENDROOT
BRANCH   5   7
ATOM      7  C   UNL     1       2.592   7.614  18.501  0.00  0.00    +0.000 A 
ATOM      8  C   UNL     1       2.026   7.588  19.789  0.00  0.00    +0.000 A 
ATOM      9  C   UNL     1       1.207   8.628  20.246  0.00  0.00    +0.000 A 
ATOM     10  C   UNL     1       0.944   9.726  19.428  0.00  0.00    +0.000 A 
ATOM     11  C   UNL     1       1.477   9.764  18.140  0.00  0.00    +0.000 A 
ATOM     12  C   UNL     1       2.307   8.729  17.693  0.00  0.00    +0.000 A 
BRANCH  10  13
ATOM     13  O   UNL     1       0.086  10.674  19.935  0.00  0.00    +0.000 OA
BRANCH  13  14
ATOM     14  C   UNL     1      -1.128  10.877  19.294  0.00  0.00    +0.000 A 
ATOM     15  C   UNL     1      -1.445   9.986  18.277  0.00  0.00    +0.000 A 
ATOM     16  C   UNL     1      -2.654  10.155  17.601  0.00  0.00    +0.000 A 
ATOM     17  C   UNL     1      -3.499  11.193  17.975  0.00  0.00    +0.000 A 
ATOM     18 CL   UNL     1      -4.981  11.453  17.152  0.00  0.00    +0.000 Cl
ATOM     19  C   UNL     1      -3.114  12.013  19.024  0.00  0.00    +0.000 A 
ATOM     20  N   UNL     1      -1.952  11.871  19.702  0.00  0.00    +0.000 NA
ENDBRANCH  13  14
ENDBRANCH  10  13
ENDBRANCH   5   7
BRANCH   1  21
ATOM     21  C   UNL     1       3.148   2.809  18.021  0.00  0.00    +0.000 C 
BRANCH  21  22
ATOM     22  O   UNL     1       2.079   2.639  17.071  0.00  0.00    +0.000 OA
ATOM     23  H   UNL     1       2.495   2.293  16.259  0.00  0.00    +0.000 HD
ENDBRANCH  21  22
BRANCH  21  24
ATOM     24  C   UNL     1       2.587   2.559  19.441  0.00  0.00    +0.000 C 
BRANCH  24  26
ATOM     25  N   UNL     1       0.706   3.922  20.181  0.00  0.00    +0.000 N 
ATOM     26  C   UNL     1       1.072   2.814  19.462  0.00  0.00    +0.000 C 
ATOM     27  O   UNL     1       0.228   2.092  18.945  0.00  0.00    +0.000 OA
ATOM     28  H   UNL     1      -0.267   4.184  20.240  0.00  0.00    +0.000 HD
ATOM     29  H   UNL     1       1.415   4.473  20.654  0.00  0.00    +0.000 HD
ENDBRANCH  24  26
BRANCH  24  30
ATOM     30  O   UNL     1       3.183   3.411  20.440  0.00  0.00    +0.000 OA
ATOM     31  H   UNL     1       4.070   3.627  20.099  0.00  0.00    +0.000 HD
ENDBRANCH  24  30
ENDBRANCH  21  24
ENDBRANCH   1  21
TORSDOF 8
ENDMDL
MODEL 9
REMARK VINA RESULT:      -8.3      3.129      3.677
REMARK  Name = 
REMARK  8 active torsions:
REMARK  status: ('A' for Active; 'I' for Inactive)
REMARK    1  A    between atoms: C_2  and  C_4
REMARK    2  A    between atoms: C_4  and  O_5
REMARK    3  A    between atoms: C_4  and  C_6
REMARK    4  A    between atoms: C_6  and  O_7
REMARK    5  A    between atoms: C_6  and  C_8
REMARK    6  A    between atoms: C_12  and  C_13
REMARK    7  A    between atoms: C_16  and  O_17
REMARK    8  A    between atoms: O_17  and  C_18
REMARK                            x       y       z     vdW  Elec       q    Type
REMARK                         _______ _______ _______ _____ _____    ______ ____
ROOT
ATOM      1  C   UNL     1       3.876   4.920  19.255  0.00  0.00    +0.000 A 
ATOM      2  C   UNL     1       3.331   4.064  20.207  0.00  0.00    +0.000 A 
ATOM      3  C   UNL     1       2.220   4.488  20.930  0.00  0.00    +0.000 A 
ATOM      4  C   UNL     1       1.698   5.757  20.702  0.00  0.00    +0.000 A 
ATOM      5  C   UNL     1       2.307   6.589  19.768  0.00  0.00    +0.000 A 
ATOM      6  N   UNL     1       3.393   6.173  19.067  0.00  0.00    +0.000 NA
ENDROOT
BRANCH   5   7
ATOM      7  C   UNL     1       1.825   7.946  19.460  0.00  0.00    +0.000 A 
ATOM      8  C   UNL     1       1.194   8.753  20.425  0.00  0.00    +0.000 A 
ATOM      9  C   UNL     1       0.737  10.039  20.114  0.00  0.00    +0.000 A 
ATOM     10  C   UNL     1       0.910  10.554  18.830  0.00  0.00    +0.000 A 
ATOM     11  C   UNL     1       1.513   9.766  17.851  0.00  0.00    +0.000 A 
ATOM     12  C   UNL     1       1.983   8.486  18.171  0.00  0.00    +0.000 A 
BRANCH  10  13
ATOM     13  O   UNL     1       0.381  11.802  18.596  0.00  0.00    +0.000 OA
BRANCH  13  14
ATOM     14  C   UNL     1       1.238  12.894  18.590  0.00  0.00    +0.000 A 
ATOM     15  C   UNL     1       0.667  14.128  18.870  0.00  0.00    +0.000 A 
ATOM     16  C   UNL     1       1.489  15.255  18.870  0.00  0.00    +0.000 A 
ATOM     17  C   UNL     1       2.846  15.102  18.605  0.00  0.00    +0.000 A 
ATOM     18 CL   UNL     1       3.887  16.463  18.568  0.00  0.00    +0.000 Cl
ATOM     19  C   UNL     1       3.333  13.826  18.369  0.00  0.00    +0.000 A 
ATOM     20  N   UNL     1       2.561  12.714  18.368  0.00  0.00    +0.000 NA
ENDBRANCH  13  14
ENDBRANCH  10  13
ENDBRANCH   5   7
BRANCH   1  21
ATOM     21  C   UNL     1       5.144   4.527  18.503  0.00  0.00    +0.000 C 
BRANCH  21  22
ATOM     22  O   UNL     1       5.586   3.250  19.003  0.00  0.00    +0.000 OA
ATOM     23  H   UNL     1       6.303   2.963  18.407  0.00  0.00    +0.000 HD
ENDBRANCH  21  22
BRANCH  21  24
ATOM     24  C   UNL     1       6.301   5.542  18.658  0.00  0.00    +0.000 C 
BRANCH  24  26
ATOM     25  N   UNL     1       8.102   4.236  17.659  0.00  0.00    +0.000 N 
ATOM     26  C   UNL     1       7.321   5.355  17.523  0.00  0.00    +0.000 C 
ATOM     27  O   UNL     1       7.493   6.134  16.594  0.00  0.00    +0.000 OA
ATOM     28  H   UNL     1       8.791   4.016  16.955  0.00  0.00    +0.000 HD
ATOM     29  H   UNL     1       7.986   3.636  18.469  0.00  0.00    +0.000 HD
ENDBRANCH  24  26
BRANCH  24  30
ATOM     30  O   UNL     1       7.011   5.402  19.905  0.00  0.00    +0.000 OA
ATOM     31  H   UNL     1       6.421   4.882  20.481  0.00  0.00    +0.000 HD
ENDBRANCH  24  30
ENDBRANCH  21  24
ENDBRANCH   1  21
TORSDOF 8
ENDMDL
