MODEL 1
REMARK VINA RESULT:      -7.9      0.000      0.000
REMARK  Name = 
REMARK  10 active torsions:
REMARK  status: ('A' for Active; 'I' for Inactive)
REMARK    1  A    between atoms: C_1  and  C_2
REMARK    2  A    between atoms: C_4  and  O_5
REMARK    3  A    between atoms: O_5  and  C_6
REMARK    4  A    between atoms: C_6  and  C_7
REMARK    5  A    between atoms: C_7  and  C_8
REMARK    6  A    between atoms: C_8  and  N_9
REMARK    7  A    between atoms: C_16  and  C_17
REMARK    8  A    between atoms: C_20  and  N_21
REMARK    9  A    between atoms: N_24  and  C_25
REMARK   10  A    between atoms: C_25  and  C_26
REMARK                            x       y       z     vdW  Elec       q    Type
REMARK                         _______ _______ _______ _____ _____    ______ ____
ROOT
ATOM      1  C   UNL     1      -0.096  10.769  19.339  0.00  0.00    +0.000 A 
ATOM      2  C   UNL     1       0.337  12.041  19.658  0.00  0.00    +0.000 A 
ATOM      3  S   UNL     1      -0.992  13.119  19.721  0.00  0.00    +0.000 S 
ATOM      4  C   UNL     1      -2.063  11.822  19.337  0.00  0.00    +0.000 A 
ATOM      5  N   UNL     1      -1.468  10.650  19.209  0.00  0.00    +0.000 NA
ENDROOT
BRANCH   1  12
ATOM      6  C   UNL     1       0.506   8.875  21.602  0.00  0.00    +0.000 C 
ATOM      7  C   UNL     1       1.093   8.732  20.222  0.00  0.00    +0.000 A 
ATOM      8  C   UNL     1       1.973   7.655  19.987  0.00  0.00    +0.000 A 
ATOM      9  C   UNL     1       2.559   7.451  18.737  0.00  0.00    +0.000 A 
ATOM     10  C   UNL     1       2.244   8.307  17.689  0.00  0.00    +0.000 A 
ATOM     11  C   UNL     1       1.375   9.381  17.905  0.00  0.00    +0.000 A 
ATOM     12  C   UNL     1       0.792   9.616  19.164  0.00  0.00    +0.000 A 
BRANCH   9  13
ATOM     13  O   UNL     1       3.375   6.359  18.645  0.00  0.00    +0.000 OA
BRANCH  13  14
ATOM     14  C   UNL     1       2.753   5.136  18.248  0.00  0.00    +0.000 C 
BRANCH  14  15
ATOM     15  C   UNL     1       3.851   4.115  17.962  0.00  0.00    +0.000 C 
BRANCH  15  16
ATOM     16  C   UNL     1       5.235   4.741  18.131  0.00  0.00    +0.000 C 
BRANCH  16  17
ATOM     17  N   UNL     1       5.964   4.824  16.882  0.00  0.00    +0.000 N 
ATOM     18  C   UNL     1       5.848   3.980  15.815  0.00  0.00    +0.000 A 
ATOM     19  C   UNL     1       6.772   4.437  14.904  0.00  0.00    +0.000 A 
ATOM     20  N   UNL     1       7.441   5.528  15.393  0.00  0.00    +0.000 NA
ATOM     21  C   UNL     1       6.939   5.734  16.591  0.00  0.00    +0.000 A 
ENDBRANCH  16  17
ENDBRANCH  15  16
ENDBRANCH  14  15
ENDBRANCH  13  14
ENDBRANCH   9  13
ENDBRANCH   1  12
BRANCH   4  22
ATOM     22  N   UNL     1      -3.394  12.092  19.225  0.00  0.00    +0.000 NA
ATOM     23  C   UNL     1      -4.021  11.998  18.090  0.00  0.00    +0.000 C 
ATOM     24  N   UNL     1      -3.544  11.665  16.851  0.00  0.00    +0.000 N 
ATOM     25  N   UNL     1      -5.365  12.256  17.971  0.00  0.00    +0.000 N 
ATOM     26  H   UNL     1      -2.560  11.394  16.899  0.00  0.00    +0.000 HD
ATOM     27  H   UNL     1      -4.088  10.957  16.375  0.00  0.00    +0.000 HD
ATOM     28  H   UNL     1      -5.729  12.239  17.031  0.00  0.00    +0.000 HD
BRANCH  25  29
ATOM     29  C   UNL     1      -6.031  13.231  18.822  0.00  0.00    +0.000 C 
BRANCH  29  30
ATOM     30  C   UNL     1      -6.616  14.344  17.995  0.00  0.00    +0.000 A 
ATOM     31  C   UNL     1      -6.641  15.650  18.500  0.00  0.00    +0.000 A 
ATOM     32  C   UNL     1      -7.155  16.696  17.735  0.00  0.00    +0.000 A 
ATOM     33  C   UNL     1      -7.647  16.447  16.456  0.00  0.00    +0.000 A 
ATOM     34  C   UNL     1      -7.626  15.150  15.938  0.00  0.00    +0.000 A 
ATOM     35  C   UNL     1      -7.115  14.106  16.703  0.00  0.00    +0.000 A 
ENDBRANCH  29  30
ENDBRANCH  25  29
ENDBRANCH   4  22
TORSDOF 9
ENDMDL
MODEL 2
REMARK VINA RESULT:      -7.9      3.791      5.081
REMARK  Name = 
REMARK  10 active torsions:
REMARK  status: ('A' for Active; 'I' for Inactive)
REMARK    1  A    between atoms: C_1  and  C_2
REMARK    2  A    between atoms: C_4  and  O_5
REMARK    3  A    between atoms: O_5  and  C_6
REMARK    4  A    between atoms: C_6  and  C_7
REMARK    5  A    between atoms: C_7  and  C_8
REMARK    6  A    between atoms: C_8  and  N_9
REMARK    7  A    between atoms: C_16  and  C_17
REMARK    8  A    between atoms: C_20  and  N_21
REMARK    9  A    between atoms: N_24  and  C_25
REMARK   10  A    between atoms: C_25  and  C_26
REMARK                            x       y       z     vdW  Elec       q    Type
REMARK                         _______ _______ _______ _____ _____    ______ ____
ROOT
ATOM      1  C   UNL     1       1.248   9.135  18.972  0.00  0.00    +0.000 A 
ATOM      2  C   UNL     1       0.482   9.659  17.949  0.00  0.00    +0.000 A 
ATOM      3  S   UNL     1      -0.517  10.917  18.545  0.00  0.00    +0.000 S 
ATOM      4  C   UNL     1       0.147  10.697  20.122  0.00  0.00    +0.000 A 
ATOM      5  N   UNL     1       1.083   9.769  20.190  0.00  0.00    +0.000 NA
ENDROOT
BRANCH   1  12
ATOM      6  C   UNL     1       1.330   6.848  20.930  0.00  0.00    +0.000 C 
ATOM      7  C   UNL     1       2.238   6.947  19.732  0.00  0.00    +0.000 A 
ATOM      8  C   UNL     1       3.174   5.913  19.526  0.00  0.00    +0.000 A 
ATOM      9  C   UNL     1       4.051   5.928  18.440  0.00  0.00    +0.000 A 
ATOM     10  C   UNL     1       3.978   6.968  17.521  0.00  0.00    +0.000 A 
ATOM     11  C   UNL     1       3.056   8.002  17.711  0.00  0.00    +0.000 A 
ATOM     12  C   UNL     1       2.180   8.016  18.811  0.00  0.00    +0.000 A 
BRANCH   9  13
ATOM     13  O   UNL     1       4.892   4.855  18.353  0.00  0.00    +0.000 OA
BRANCH  13  14
ATOM     14  C   UNL     1       4.689   3.982  17.241  0.00  0.00    +0.000 C 
BRANCH  14  15
ATOM     15  C   UNL     1       3.409   3.188  17.488  0.00  0.00    +0.000 C 
BRANCH  15  16
ATOM     16  C   UNL     1       3.619   2.142  18.583  0.00  0.00    +0.000 C 
BRANCH  16  17
ATOM     17  N   UNL     1       2.824   2.407  19.764  0.00  0.00    +0.000 N 
ATOM     18  C   UNL     1       1.479   2.640  19.803  0.00  0.00    +0.000 A 
ATOM     19  C   UNL     1       1.203   2.885  21.128  0.00  0.00    +0.000 A 
ATOM     20  N   UNL     1       2.343   2.810  21.886  0.00  0.00    +0.000 NA
ATOM     21  C   UNL     1       3.305   2.529  21.036  0.00  0.00    +0.000 A 
ENDBRANCH  16  17
ENDBRANCH  15  16
ENDBRANCH  14  15
ENDBRANCH  13  14
ENDBRANCH   9  13
ENDBRANCH   1  12
BRANCH   4  22
ATOM     22  N   UNL     1      -0.313  11.487  21.134  0.00  0.00    +0.000 NA
ATOM     23  C   UNL     1      -0.724  10.989  22.262  0.00  0.00    +0.000 C 
ATOM     24  N   UNL     1      -0.814   9.683  22.662  0.00  0.00    +0.000 N 
ATOM     25  N   UNL     1      -1.175  11.779  23.291  0.00  0.00    +0.000 N 
ATOM     26  H   UNL     1      -0.421   9.057  21.955  0.00  0.00    +0.000 HD
ATOM     27  H   UNL     1      -0.406   9.499  23.569  0.00  0.00    +0.000 HD
ATOM     28  H   UNL     1      -1.553  11.284  24.085  0.00  0.00    +0.000 HD
BRANCH  25  29
ATOM     29  C   UNL     1      -1.843  13.047  23.040  0.00  0.00    +0.000 C 
BRANCH  29  30
ATOM     30  C   UNL     1      -3.334  12.900  23.195  0.00  0.00    +0.000 A 
ATOM     31  C   UNL     1      -3.878  12.588  24.447  0.00  0.00    +0.000 A 
ATOM     32  C   UNL     1      -5.259  12.476  24.612  0.00  0.00    +0.000 A 
ATOM     33  C   UNL     1      -6.108  12.679  23.527  0.00  0.00    +0.000 A 
ATOM     34  C   UNL     1      -5.579  12.994  22.273  0.00  0.00    +0.000 A 
ATOM     35  C   UNL     1      -4.201  13.103  22.109  0.00  0.00    +0.000 A 
ENDBRANCH  29  30
ENDBRANCH  25  29
ENDBRANCH   4  22
TORSDOF 9
ENDMDL
MODEL 3
REMARK VINA RESULT:      -7.7      1.864      2.793
REMARK  Name = 
REMARK  10 active torsions:
REMARK  status: ('A' for Active; 'I' for Inactive)
REMARK    1  A    between atoms: C_1  and  C_2
REMARK    2  A    between atoms: C_4  and  O_5
REMARK    3  A    between atoms: O_5  and  C_6
REMARK    4  A    between atoms: C_6  and  C_7
REMARK    5  A    between atoms: C_7  and  C_8
REMARK    6  A    between atoms: C_8  and  N_9
REMARK    7  A    between atoms: C_16  and  C_17
REMARK    8  A    between atoms: C_20  and  N_21
REMARK    9  A    between atoms: N_24  and  C_25
REMARK   10  A    between atoms: C_25  and  C_26
REMARK                            x       y       z     vdW  Elec       q    Type
REMARK                         _______ _______ _______ _____ _____    ______ ____
ROOT
ATOM      1  C   UNL     1       0.230  10.790  19.331  0.00  0.00    +0.000 A 
ATOM      2  C   UNL     1       0.739  12.067  19.203  0.00  0.00    +0.000 A 
ATOM      3  S   UNL     1      -0.516  13.222  19.366  0.00  0.00    +0.000 S 
ATOM      4  C   UNL     1      -1.655  11.950  19.615  0.00  0.00    +0.000 A 
ATOM      5  N   UNL     1      -1.123  10.741  19.615  0.00  0.00    +0.000 NA
ENDROOT
BRANCH   1  12
ATOM      6  C   UNL     1       0.673   8.933  21.660  0.00  0.00    +0.000 C 
ATOM      7  C   UNL     1       1.256   8.700  20.291  0.00  0.00    +0.000 A 
ATOM      8  C   UNL     1       2.053   7.552  20.099  0.00  0.00    +0.000 A 
ATOM      9  C   UNL     1       2.630   7.263  18.862  0.00  0.00    +0.000 A 
ATOM     10  C   UNL     1       2.387   8.104  17.784  0.00  0.00    +0.000 A 
ATOM     11  C   UNL     1       1.600   9.248  17.957  0.00  0.00    +0.000 A 
ATOM     12  C   UNL     1       1.030   9.568  19.201  0.00  0.00    +0.000 A 
BRANCH   9  13
ATOM     13  O   UNL     1       3.362   6.110  18.814  0.00  0.00    +0.000 OA
BRANCH  13  14
ATOM     14  C   UNL     1       2.623   4.897  18.658  0.00  0.00    +0.000 C 
BRANCH  14  15
ATOM     15  C   UNL     1       3.019   4.266  17.327  0.00  0.00    +0.000 C 
BRANCH  15  16
ATOM     16  C   UNL     1       4.277   3.412  17.481  0.00  0.00    +0.000 C 
BRANCH  16  17
ATOM     17  N   UNL     1       5.438   4.014  16.857  0.00  0.00    +0.000 N 
ATOM     18  C   UNL     1       5.721   4.040  15.521  0.00  0.00    +0.000 A 
ATOM     19  C   UNL     1       6.940   4.670  15.432  0.00  0.00    +0.000 A 
ATOM     20  N   UNL     1       7.399   5.021  16.675  0.00  0.00    +0.000 NA
ATOM     21  C   UNL     1       6.477   4.606  17.515  0.00  0.00    +0.000 A 
ENDBRANCH  16  17
ENDBRANCH  15  16
ENDBRANCH  14  15
ENDBRANCH  13  14
ENDBRANCH   9  13
ENDBRANCH   1  12
BRANCH   4  22
ATOM     22  N   UNL     1      -2.963  12.280  19.810  0.00  0.00    +0.000 NA
ATOM     23  C   UNL     1      -3.881  11.996  18.936  0.00  0.00    +0.000 C 
ATOM     24  N   UNL     1      -3.770  11.383  17.717  0.00  0.00    +0.000 N 
ATOM     25  N   UNL     1      -5.203  12.313  19.131  0.00  0.00    +0.000 N 
ATOM     26  H   UNL     1      -2.813  11.062  17.555  0.00  0.00    +0.000 HD
ATOM     27  H   UNL     1      -4.430  10.629  17.571  0.00  0.00    +0.000 HD
ATOM     28  H   UNL     1      -5.814  12.127  18.351  0.00  0.00    +0.000 HD
BRANCH  25  29
ATOM     29  C   UNL     1      -5.599  13.485  19.897  0.00  0.00    +0.000 C 
BRANCH  29  30
ATOM     30  C   UNL     1      -6.146  13.080  21.240  0.00  0.00    +0.000 A 
ATOM     31  C   UNL     1      -5.419  13.361  22.404  0.00  0.00    +0.000 A 
ATOM     32  C   UNL     1      -5.925  13.017  23.657  0.00  0.00    +0.000 A 
ATOM     33  C   UNL     1      -7.165  12.392  23.758  0.00  0.00    +0.000 A 
ATOM     34  C   UNL     1      -7.903  12.108  22.607  0.00  0.00    +0.000 A 
ATOM     35  C   UNL     1      -7.396  12.450  21.356  0.00  0.00    +0.000 A 
ENDBRANCH  29  30
ENDBRANCH  25  29
ENDBRANCH   4  22
TORSDOF 9
ENDMDL
MODEL 4
REMARK VINA RESULT:      -7.6      1.672      2.383
REMARK  Name = 
REMARK  10 active torsions:
REMARK  status: ('A' for Active; 'I' for Inactive)
REMARK    1  A    between atoms: C_1  and  C_2
REMARK    2  A    between atoms: C_4  and  O_5
REMARK    3  A    between atoms: O_5  and  C_6
REMARK    4  A    between atoms: C_6  and  C_7
REMARK    5  A    between atoms: C_7  and  C_8
REMARK    6  A    between atoms: C_8  and  N_9
REMARK    7  A    between atoms: C_16  and  C_17
REMARK    8  A    between atoms: C_20  and  N_21
REMARK    9  A    between atoms: N_24  and  C_25
REMARK   10  A    between atoms: C_25  and  C_26
REMARK                            x       y       z     vdW  Elec       q    Type
REMARK                         _______ _______ _______ _____ _____    ______ ____
ROOT
ATOM      1  C   UNL     1       0.210  10.299  18.608  0.00  0.00    +0.000 A 
ATOM      2  C   UNL     1       0.638  11.612  18.623  0.00  0.00    +0.000 A 
ATOM      3  S   UNL     1      -0.683  12.666  18.345  0.00  0.00    +0.000 S 
ATOM      4  C   UNL     1      -1.744  11.310  18.242  0.00  0.00    +0.000 A 
ATOM      5  N   UNL     1      -1.154  10.146  18.441  0.00  0.00    +0.000 NA
ENDROOT
BRANCH   1  12
ATOM      6  C   UNL     1       0.657   9.015  21.296  0.00  0.00    +0.000 C 
ATOM      7  C   UNL     1       1.325   8.544  20.030  0.00  0.00    +0.000 A 
ATOM      8  C   UNL     1       2.206   7.446  20.117  0.00  0.00    +0.000 A 
ATOM      9  C   UNL     1       2.864   6.948  18.992  0.00  0.00    +0.000 A 
ATOM     10  C   UNL     1       2.621   7.522  17.750  0.00  0.00    +0.000 A 
ATOM     11  C   UNL     1       1.751   8.613  17.647  0.00  0.00    +0.000 A 
ATOM     12  C   UNL     1       1.097   9.143  18.772  0.00  0.00    +0.000 A 
BRANCH   9  13
ATOM     13  O   UNL     1       3.675   5.871  19.218  0.00  0.00    +0.000 OA
BRANCH  13  14
ATOM     14  C   UNL     1       3.123   4.590  18.910  0.00  0.00    +0.000 C 
BRANCH  14  15
ATOM     15  C   UNL     1       3.904   4.005  17.737  0.00  0.00    +0.000 C 
BRANCH  15  16
ATOM     16  C   UNL     1       5.328   4.559  17.699  0.00  0.00    +0.000 C 
BRANCH  16  17
ATOM     17  N   UNL     1       5.916   4.491  16.377  0.00  0.00    +0.000 N 
ATOM     18  C   UNL     1       7.044   5.134  15.955  0.00  0.00    +0.000 A 
ATOM     19  C   UNL     1       7.165   4.798  14.627  0.00  0.00    +0.000 A 
ATOM     20  N   UNL     1       6.141   3.973  14.238  0.00  0.00    +0.000 NA
ATOM     21  C   UNL     1       5.399   3.812  15.312  0.00  0.00    +0.000 A 
ENDBRANCH  16  17
ENDBRANCH  15  16
ENDBRANCH  14  15
ENDBRANCH  13  14
ENDBRANCH   9  13
ENDBRANCH   1  12
BRANCH   4  22
ATOM     22  N   UNL     1      -3.066  11.538  17.997  0.00  0.00    +0.000 NA
ATOM     23  C   UNL     1      -3.672  11.026  16.968  0.00  0.00    +0.000 C 
ATOM     24  N   UNL     1      -3.179  10.235  15.965  0.00  0.00    +0.000 N 
ATOM     25  N   UNL     1      -5.006  11.240  16.721  0.00  0.00    +0.000 N 
ATOM     26  H   UNL     1      -2.203   9.988  16.141  0.00  0.00    +0.000 HD
ATOM     27  H   UNL     1      -3.731   9.407  15.781  0.00  0.00    +0.000 HD
ATOM     28  H   UNL     1      -5.351  10.870  15.849  0.00  0.00    +0.000 HD
BRANCH  25  29
ATOM     29  C   UNL     1      -5.663  12.477  17.114  0.00  0.00    +0.000 C 
BRANCH  29  30
ATOM     30  C   UNL     1      -6.246  12.351  18.496  0.00  0.00    +0.000 A 
ATOM     31  C   UNL     1      -6.983  11.212  18.842  0.00  0.00    +0.000 A 
ATOM     32  C   UNL     1      -7.506  11.069  20.127  0.00  0.00    +0.000 A 
ATOM     33  C   UNL     1      -7.293  12.062  21.080  0.00  0.00    +0.000 A 
ATOM     34  C   UNL     1      -6.557  13.203  20.750  0.00  0.00    +0.000 A 
ATOM     35  C   UNL     1      -6.038  13.346  19.466  0.00  0.00    +0.000 A 
ENDBRANCH  29  30
ENDBRANCH  25  29
ENDBRANCH   4  22
TORSDOF 9
ENDMDL
MODEL 5
REMARK VINA RESULT:      -7.5      3.581      4.361
REMARK  Name = 
REMARK  10 active torsions:
REMARK  status: ('A' for Active; 'I' for Inactive)
REMARK    1  A    between atoms: C_1  and  C_2
REMARK    2  A    between atoms: C_4  and  O_5
REMARK    3  A    between atoms: O_5  and  C_6
REMARK    4  A    between atoms: C_6  and  C_7
REMARK    5  A    between atoms: C_7  and  C_8
REMARK    6  A    between atoms: C_8  and  N_9
REMARK    7  A    between atoms: C_16  and  C_17
REMARK    8  A    between atoms: C_20  and  N_21
REMARK    9  A    between atoms: N_24  and  C_25
REMARK   10  A    between atoms: C_25  and  C_26
REMARK                            x       y       z     vdW  Elec       q    Type
REMARK                         _______ _______ _______ _____ _____    ______ ____
ROOT
ATOM      1  C   UNL     1       0.065  10.413  19.059  0.00  0.00    +0.000 A 
ATOM      2  C   UNL     1      -1.273  10.346  18.723  0.00  0.00    +0.000 A 
ATOM      3  S   UNL     1      -1.965  11.913  18.742  0.00  0.00    +0.000 S 
ATOM      4  C   UNL     1      -0.436  12.583  19.177  0.00  0.00    +0.000 A 
ATOM      5  N   UNL     1       0.538  11.696  19.265  0.00  0.00    +0.000 NA
ENDROOT
BRANCH   1  12
ATOM      6  C   UNL     1       0.378   8.922  21.657  0.00  0.00    +0.000 C 
ATOM      7  C   UNL     1       1.109   8.549  20.394  0.00  0.00    +0.000 A 
ATOM      8  C   UNL     1       1.987   7.446  20.440  0.00  0.00    +0.000 A 
ATOM      9  C   UNL     1       2.701   7.035  19.314  0.00  0.00    +0.000 A 
ATOM     10  C   UNL     1       2.520   7.705  18.110  0.00  0.00    +0.000 A 
ATOM     11  C   UNL     1       1.655   8.802  18.048  0.00  0.00    +0.000 A 
ATOM     12  C   UNL     1       0.944   9.245  19.177  0.00  0.00    +0.000 A 
BRANCH   9  13
ATOM     13  O   UNL     1       3.501   5.941  19.496  0.00  0.00    +0.000 OA
BRANCH  13  14
ATOM     14  C   UNL     1       2.888   4.669  19.283  0.00  0.00    +0.000 C 
BRANCH  14  15
ATOM     15  C   UNL     1       3.981   3.672  18.907  0.00  0.00    +0.000 C 
BRANCH  15  16
ATOM     16  C   UNL     1       5.330   4.375  18.751  0.00  0.00    +0.000 C 
BRANCH  16  17
ATOM     17  N   UNL     1       5.821   4.338  17.389  0.00  0.00    +0.000 N 
ATOM     18  C   UNL     1       7.079   4.664  16.969  0.00  0.00    +0.000 A 
ATOM     19  C   UNL     1       7.042   4.520  15.601  0.00  0.00    +0.000 A 
ATOM     20  N   UNL     1       5.798   4.120  15.187  0.00  0.00    +0.000 NA
ATOM     21  C   UNL     1       5.080   4.026  16.285  0.00  0.00    +0.000 A 
ENDBRANCH  16  17
ENDBRANCH  15  16
ENDBRANCH  14  15
ENDBRANCH  13  14
ENDBRANCH   9  13
ENDBRANCH   1  12
BRANCH   4  22
ATOM     22  N   UNL     1      -0.349  13.931  19.366  0.00  0.00    +0.000 NA
ATOM     23  C   UNL     1       0.177  14.442  20.438  0.00  0.00    +0.000 C 
ATOM     24  N   UNL     1       0.695  13.819  21.542  0.00  0.00    +0.000 N 
ATOM     25  N   UNL     1       0.280  15.798  20.630  0.00  0.00    +0.000 N 
ATOM     26  H   UNL     1       0.707  12.805  21.417  0.00  0.00    +0.000 HD
ATOM     27  H   UNL     1       1.609  14.157  21.816  0.00  0.00    +0.000 HD
ATOM     28  H   UNL     1       0.622  16.084  21.534  0.00  0.00    +0.000 HD
BRANCH  25  29
ATOM     29  C   UNL     1      -0.697  16.721  20.073  0.00  0.00    +0.000 C 
BRANCH  29  30
ATOM     30  C   UNL     1      -0.166  17.360  18.817  0.00  0.00    +0.000 A 
ATOM     31  C   UNL     1       1.188  17.227  18.485  0.00  0.00    +0.000 A 
ATOM     32  C   UNL     1       1.688  17.789  17.311  0.00  0.00    +0.000 A 
ATOM     33  C   UNL     1       0.839  18.488  16.457  0.00  0.00    +0.000 A 
ATOM     34  C   UNL     1      -0.515  18.626  16.774  0.00  0.00    +0.000 A 
ATOM     35  C   UNL     1      -1.013  18.066  17.947  0.00  0.00    +0.000 A 
ENDBRANCH  29  30
ENDBRANCH  25  29
ENDBRANCH   4  22
TORSDOF 9
ENDMDL
MODEL 6
REMARK VINA RESULT:      -7.5      4.037      5.395
REMARK  Name = 
REMARK  10 active torsions:
REMARK  status: ('A' for Active; 'I' for Inactive)
REMARK    1  A    between atoms: C_1  and  C_2
REMARK    2  A    between atoms: C_4  and  O_5
REMARK    3  A    between atoms: O_5  and  C_6
REMARK    4  A    between atoms: C_6  and  C_7
REMARK    5  A    between atoms: C_7  and  C_8
REMARK    6  A    between atoms: C_8  and  N_9
REMARK    7  A    between atoms: C_16  and  C_17
REMARK    8  A    between atoms: C_20  and  N_21
REMARK    9  A    between atoms: N_24  and  C_25
REMARK   10  A    between atoms: C_25  and  C_26
REMARK                            x       y       z     vdW  Elec       q    Type
REMARK                         _______ _______ _______ _____ _____    ______ ____
ROOT
ATOM      1  C   UNL     1       0.677   9.662  20.590  0.00  0.00    +0.000 A 
ATOM      2  C   UNL     1      -0.008   9.506  21.780  0.00  0.00    +0.000 A 
ATOM      3  S   UNL     1      -0.707  10.995  22.257  0.00  0.00    +0.000 S 
ATOM      4  C   UNL     1      -0.070  11.749  20.842  0.00  0.00    +0.000 A 
ATOM      5  N   UNL     1       0.590  10.930  20.044  0.00  0.00    +0.000 NA
ENDROOT
BRANCH   1  12
ATOM      6  C   UNL     1       1.758   9.983  17.797  0.00  0.00    +0.000 C 
ATOM      7  C   UNL     1       1.923   8.726  18.611  0.00  0.00    +0.000 A 
ATOM      8  C   UNL     1       2.617   7.647  18.026  0.00  0.00    +0.000 A 
ATOM      9  C   UNL     1       2.814   6.448  18.712  0.00  0.00    +0.000 A 
ATOM     10  C   UNL     1       2.346   6.324  20.015  0.00  0.00    +0.000 A 
ATOM     11  C   UNL     1       1.653   7.384  20.609  0.00  0.00    +0.000 A 
ATOM     12  C   UNL     1       1.426   8.591  19.925  0.00  0.00    +0.000 A 
BRANCH   9  13
ATOM     13  O   UNL     1       3.519   5.495  18.033  0.00  0.00    +0.000 OA
BRANCH  13  14
ATOM     14  C   UNL     1       4.644   4.935  18.714  0.00  0.00    +0.000 C 
BRANCH  14  15
ATOM     15  C   UNL     1       4.656   3.432  18.455  0.00  0.00    +0.000 C 
BRANCH  15  16
ATOM     16  C   UNL     1       4.389   2.654  19.743  0.00  0.00    +0.000 C 
BRANCH  16  17
ATOM     17  N   UNL     1       2.998   2.702  20.144  0.00  0.00    +0.000 N 
ATOM     18  C   UNL     1       1.912   2.640  19.319  0.00  0.00    +0.000 A 
ATOM     19  C   UNL     1       0.827   2.776  20.154  0.00  0.00    +0.000 A 
ATOM     20  N   UNL     1       1.231   2.919  21.457  0.00  0.00    +0.000 NA
ATOM     21  C   UNL     1       2.544   2.879  21.419  0.00  0.00    +0.000 A 
ENDBRANCH  16  17
ENDBRANCH  15  16
ENDBRANCH  14  15
ENDBRANCH  13  14
ENDBRANCH   9  13
ENDBRANCH   1  12
BRANCH   4  22
ATOM     22  N   UNL     1      -0.309  13.077  20.652  0.00  0.00    +0.000 NA
ATOM     23  C   UNL     1      -0.872  13.525  19.569  0.00  0.00    +0.000 C 
ATOM     24  N   UNL     1      -1.293  12.849  18.456  0.00  0.00    +0.000 N 
ATOM     25  N   UNL     1      -1.129  14.861  19.375  0.00  0.00    +0.000 N 
ATOM     26  H   UNL     1      -1.189  11.840  18.581  0.00  0.00    +0.000 HD
ATOM     27  H   UNL     1      -2.235  13.078  18.165  0.00  0.00    +0.000 HD
ATOM     28  H   UNL     1      -1.485  15.107  18.464  0.00  0.00    +0.000 HD
BRANCH  25  29
ATOM     29  C   UNL     1      -0.277  15.891  19.950  0.00  0.00    +0.000 C 
BRANCH  29  30
ATOM     30  C   UNL     1       0.595  16.510  18.890  0.00  0.00    +0.000 A 
ATOM     31  C   UNL     1       1.902  16.044  18.702  0.00  0.00    +0.000 A 
ATOM     32  C   UNL     1       2.712  16.589  17.706  0.00  0.00    +0.000 A 
ATOM     33  C   UNL     1       2.222  17.603  16.887  0.00  0.00    +0.000 A 
ATOM     34  C   UNL     1       0.919  18.076  17.062  0.00  0.00    +0.000 A 
ATOM     35  C   UNL     1       0.112  17.533  18.058  0.00  0.00    +0.000 A 
ENDBRANCH  29  30
ENDBRANCH  25  29
ENDBRANCH   4  22
TORSDOF 9
ENDMDL
MODEL 7
REMARK VINA RESULT:      -7.5      2.599      3.006
REMARK  Name = 
REMARK  10 active torsions:
REMARK  status: ('A' for Active; 'I' for Inactive)
REMARK    1  A    between atoms: C_1  and  C_2
REMARK    2  A    between atoms: C_4  and  O_5
REMARK    3  A    between atoms: O_5  and  C_6
REMARK    4  A    between atoms: C_6  and  C_7
REMARK    5  A    between atoms: C_7  and  C_8
REMARK    6  A    between atoms: C_8  and  N_9
REMARK    7  A    between atoms: C_16  and  C_17
REMARK    8  A    between atoms: C_20  and  N_21
REMARK    9  A    between atoms: N_24  and  C_25
REMARK   10  A    between atoms: C_25  and  C_26
REMARK                            x       y       z     vdW  Elec       q    Type
REMARK                         _______ _______ _______ _____ _____    ______ ____
ROOT
ATOM      1  C   UNL     1       1.097  10.319  19.151  0.00  0.00    +0.000 A 
ATOM      2  C   UNL     1       1.752  11.403  18.599  0.00  0.00    +0.000 A 
ATOM      3  S   UNL     1       0.807  12.820  18.782  0.00  0.00    +0.000 S 
ATOM      4  C   UNL     1      -0.406  11.905  19.600  0.00  0.00    +0.000 A 
ATOM      5  N   UNL     1      -0.105  10.630  19.761  0.00  0.00    +0.000 NA
ENDROOT
BRANCH   1  12
ATOM      6  C   UNL     1       1.044   8.566  21.599  0.00  0.00    +0.000 C 
ATOM      7  C   UNL     1       1.607   8.123  20.273  0.00  0.00    +0.000 A 
ATOM      8  C   UNL     1       2.137   6.819  20.183  0.00  0.00    +0.000 A 
ATOM      9  C   UNL     1       2.676   6.331  18.992  0.00  0.00    +0.000 A 
ATOM     10  C   UNL     1       2.660   7.134  17.858  0.00  0.00    +0.000 A 
ATOM     11  C   UNL     1       2.139   8.430  17.930  0.00  0.00    +0.000 A 
ATOM     12  C   UNL     1       1.612   8.947  19.127  0.00  0.00    +0.000 A 
BRANCH   9  13
ATOM     13  O   UNL     1       3.138   5.046  19.042  0.00  0.00    +0.000 OA
BRANCH  13  14
ATOM     14  C   UNL     1       2.768   4.199  17.953  0.00  0.00    +0.000 C 
BRANCH  14  15
ATOM     15  C   UNL     1       3.982   3.356  17.573  0.00  0.00    +0.000 C 
BRANCH  15  16
ATOM     16  C   UNL     1       5.281   4.095  17.894  0.00  0.00    +0.000 C 
BRANCH  16  17
ATOM     17  N   UNL     1       6.015   4.473  16.704  0.00  0.00    +0.000 N 
ATOM     18  C   UNL     1       5.868   3.941  15.455  0.00  0.00    +0.000 A 
ATOM     19  C   UNL     1       6.810   4.584  14.686  0.00  0.00    +0.000 A 
ATOM     20  N   UNL     1       7.520   5.485  15.437  0.00  0.00    +0.000 NA
ATOM     21  C   UNL     1       7.025   5.390  16.651  0.00  0.00    +0.000 A 
ENDBRANCH  16  17
ENDBRANCH  15  16
ENDBRANCH  14  15
ENDBRANCH  13  14
ENDBRANCH   9  13
ENDBRANCH   1  12
BRANCH   4  22
ATOM     22  N   UNL     1      -1.529  12.551  20.025  0.00  0.00    +0.000 NA
ATOM     23  C   UNL     1      -2.021  12.364  21.213  0.00  0.00    +0.000 C 
ATOM     24  N   UNL     1      -1.595  11.537  22.218  0.00  0.00    +0.000 N 
ATOM     25  N   UNL     1      -3.144  13.021  21.654  0.00  0.00    +0.000 N 
ATOM     26  H   UNL     1      -0.718  11.078  21.965  0.00  0.00    +0.000 HD
ATOM     27  H   UNL     1      -1.516  11.989  23.120  0.00  0.00    +0.000 HD
ATOM     28  H   UNL     1      -3.489  12.734  22.556  0.00  0.00    +0.000 HD
BRANCH  25  29
ATOM     29  C   UNL     1      -4.204  13.413  20.737  0.00  0.00    +0.000 C 
BRANCH  29  30
ATOM     30  C   UNL     1      -5.491  12.711  21.083  0.00  0.00    +0.000 A 
ATOM     31  C   UNL     1      -6.140  12.999  22.291  0.00  0.00    +0.000 A 
ATOM     32  C   UNL     1      -7.346  12.378  22.612  0.00  0.00    +0.000 A 
ATOM     33  C   UNL     1      -7.916  11.465  21.729  0.00  0.00    +0.000 A 
ATOM     34  C   UNL     1      -7.282  11.170  20.520  0.00  0.00    +0.000 A 
ATOM     35  C   UNL     1      -6.076  11.789  20.200  0.00  0.00    +0.000 A 
ENDBRANCH  29  30
ENDBRANCH  25  29
ENDBRANCH   4  22
TORSDOF 9
ENDMDL
MODEL 8
REMARK VINA RESULT:      -7.4      2.913      4.188
REMARK  Name = 
REMARK  10 active torsions:
REMARK  status: ('A' for Active; 'I' for Inactive)
REMARK    1  A    between atoms: C_1  and  C_2
REMARK    2  A    between atoms: C_4  and  O_5
REMARK    3  A    between atoms: O_5  and  C_6
REMARK    4  A    between atoms: C_6  and  C_7
REMARK    5  A    between atoms: C_7  and  C_8
REMARK    6  A    between atoms: C_8  and  N_9
REMARK    7  A    between atoms: C_16  and  C_17
REMARK    8  A    between atoms: C_20  and  N_21
REMARK    9  A    between atoms: N_24  and  C_25
REMARK   10  A    between atoms: C_25  and  C_26
REMARK                            x       y       z     vdW  Elec       q    Type
REMARK                         _______ _______ _______ _____ _____    ______ ____
ROOT
ATOM      1  C   UNL     1       0.874   9.144  20.546  0.00  0.00    +0.000 A 
ATOM      2  C   UNL     1       1.054   9.355  21.899  0.00  0.00    +0.000 A 
ATOM      3  S   UNL     1      -0.093  10.489  22.477  0.00  0.00    +0.000 S 
ATOM      4  C   UNL     1      -0.767  10.614  20.894  0.00  0.00    +0.000 A 
ATOM      5  N   UNL     1      -0.196   9.829  20.000  0.00  0.00    +0.000 NA
ENDROOT
BRANCH   1  12
ATOM      6  C   UNL     1       1.927  10.000  17.857  0.00  0.00    +0.000 C 
ATOM      7  C   UNL     1       2.201   8.648  18.463  0.00  0.00    +0.000 A 
ATOM      8  C   UNL     1       2.989   7.741  17.725  0.00  0.00    +0.000 A 
ATOM      9  C   UNL     1       3.290   6.469  18.215  0.00  0.00    +0.000 A 
ATOM     10  C   UNL     1       2.832   6.099  19.474  0.00  0.00    +0.000 A 
ATOM     11  C   UNL     1       2.048   6.986  20.218  0.00  0.00    +0.000 A 
ATOM     12  C   UNL     1       1.716   8.262  19.731  0.00  0.00    +0.000 A 
BRANCH   9  13
ATOM     13  O   UNL     1       4.077   5.701  17.404  0.00  0.00    +0.000 OA
BRANCH  13  14
ATOM     14  C   UNL     1       4.787   4.636  18.038  0.00  0.00    +0.000 C 
BRANCH  14  15
ATOM     15  C   UNL     1       4.121   3.321  17.645  0.00  0.00    +0.000 C 
BRANCH  15  16
ATOM     16  C   UNL     1       3.991   2.393  18.853  0.00  0.00    +0.000 C 
BRANCH  16  17
ATOM     17  N   UNL     1       2.789   2.644  19.621  0.00  0.00    +0.000 N 
ATOM     18  C   UNL     1       2.694   2.717  20.982  0.00  0.00    +0.000 A 
ATOM     19  C   UNL     1       1.356   2.919  21.230  0.00  0.00    +0.000 A 
ATOM     20  N   UNL     1       0.645   2.967  20.059  0.00  0.00    +0.000 NA
ATOM     21  C   UNL     1       1.533   2.790  19.106  0.00  0.00    +0.000 A 
ENDBRANCH  16  17
ENDBRANCH  15  16
ENDBRANCH  14  15
ENDBRANCH  13  14
ENDBRANCH   9  13
ENDBRANCH   1  12
BRANCH   4  22
ATOM     22  N   UNL     1      -1.815  11.465  20.701  0.00  0.00    +0.000 NA
ATOM     23  C   UNL     1      -1.745  12.466  19.876  0.00  0.00    +0.000 C 
ATOM     24  N   UNL     1      -0.701  12.887  19.097  0.00  0.00    +0.000 N 
ATOM     25  N   UNL     1      -2.800  13.320  19.667  0.00  0.00    +0.000 N 
ATOM     26  H   UNL     1       0.088  12.241  19.163  0.00  0.00    +0.000 HD
ATOM     27  H   UNL     1      -0.947  13.054  18.130  0.00  0.00    +0.000 HD
ATOM     28  H   UNL     1      -2.607  14.112  19.075  0.00  0.00    +0.000 HD
BRANCH  25  29
ATOM     29  C   UNL     1      -3.759  13.617  20.720  0.00  0.00    +0.000 C 
BRANCH  29  30
ATOM     30  C   UNL     1      -5.055  12.891  20.477  0.00  0.00    +0.000 A 
ATOM     31  C   UNL     1      -5.347  12.391  19.202  0.00  0.00    +0.000 A 
ATOM     32  C   UNL     1      -6.531  11.693  18.968  0.00  0.00    +0.000 A 
ATOM     33  C   UNL     1      -7.434  11.485  20.008  0.00  0.00    +0.000 A 
ATOM     34  C   UNL     1      -7.154  11.975  21.286  0.00  0.00    +0.000 A 
ATOM     35  C   UNL     1      -5.973  12.674  21.518  0.00  0.00    +0.000 A 
ENDBRANCH  29  30
ENDBRANCH  25  29
ENDBRANCH   4  22
TORSDOF 9
ENDMDL
MODEL 9
REMARK VINA RESULT:      -7.4      3.583      4.573
REMARK  Name = 
REMARK  10 active torsions:
REMARK  status: ('A' for Active; 'I' for Inactive)
REMARK    1  A    between atoms: C_1  and  C_2
REMARK    2  A    between atoms: C_4  and  O_5
REMARK    3  A    between atoms: O_5  and  C_6
REMARK    4  A    between atoms: C_6  and  C_7
REMARK    5  A    between atoms: C_7  and  C_8
REMARK    6  A    between atoms: C_8  and  N_9
REMARK    7  A    between atoms: C_16  and  C_17
REMARK    8  A    between atoms: C_20  and  N_21
REMARK    9  A    between atoms: N_24  and  C_25
REMARK   10  A    between atoms: C_25  and  C_26
REMARK                            x       y       z     vdW  Elec       q    Type
REMARK                         _______ _______ _______ _____ _____    ______ ____
ROOT
ATOM      1  C   UNL     1       0.971   8.979  20.579  0.00  0.00    +0.000 A 
ATOM      2  C   UNL     1       0.486   8.942  21.872  0.00  0.00    +0.000 A 
ATOM      3  S   UNL     1      -0.274  10.428  22.260  0.00  0.00    +0.000 S 
ATOM      4  C   UNL     1       0.075  11.019  20.677  0.00  0.00    +0.000 A 
ATOM      5  N   UNL     1       0.685  10.147  19.896  0.00  0.00    +0.000 NA
ENDROOT
BRANCH   1  12
ATOM      6  C   UNL     1       2.146   9.248  17.819  0.00  0.00    +0.000 C 
ATOM      7  C   UNL     1       2.253   7.994  18.648  0.00  0.00    +0.000 A 
ATOM      8  C   UNL     1       2.938   6.893  18.093  0.00  0.00    +0.000 A 
ATOM      9  C   UNL     1       3.082   5.696  18.795  0.00  0.00    +0.000 A 
ATOM     10  C   UNL     1       2.571   5.595  20.083  0.00  0.00    +0.000 A 
ATOM     11  C   UNL     1       1.887   6.677  20.647  0.00  0.00    +0.000 A 
ATOM     12  C   UNL     1       1.712   7.884  19.947  0.00  0.00    +0.000 A 
BRANCH   9  13
ATOM     13  O   UNL     1       3.783   4.718  18.146  0.00  0.00    +0.000 OA
BRANCH  13  14
ATOM     14  C   UNL     1       4.268   5.048  16.844  0.00  0.00    +0.000 C 
BRANCH  14  15
ATOM     15  C   UNL     1       5.205   3.932  16.389  0.00  0.00    +0.000 C 
BRANCH  15  16
ATOM     16  C   UNL     1       6.597   4.481  16.077  0.00  0.00    +0.000 C 
BRANCH  16  17
ATOM     17  N   UNL     1       7.116   5.316  17.140  0.00  0.00    +0.000 N 
ATOM     18  C   UNL     1       7.296   6.669  17.096  0.00  0.00    +0.000 A 
ATOM     19  C   UNL     1       7.855   6.989  18.312  0.00  0.00    +0.000 A 
ATOM     20  N   UNL     1       8.018   5.867  19.084  0.00  0.00    +0.000 NA
ATOM     21  C   UNL     1       7.572   4.873  18.348  0.00  0.00    +0.000 A 
ENDBRANCH  16  17
ENDBRANCH  15  16
ENDBRANCH  14  15
ENDBRANCH  13  14
ENDBRANCH   9  13
ENDBRANCH   1  12
BRANCH   4  22
ATOM     22  N   UNL     1      -0.315  12.286  20.358  0.00  0.00    +0.000 NA
ATOM     23  C   UNL     1      -0.532  12.650  19.130  0.00  0.00    +0.000 C 
ATOM     24  N   UNL     1      -0.409  11.933  17.970  0.00  0.00    +0.000 N 
ATOM     25  N   UNL     1      -0.938  13.920  18.801  0.00  0.00    +0.000 N 
ATOM     26  H   UNL     1      -0.178  10.958  18.166  0.00  0.00    +0.000 HD
ATOM     27  H   UNL     1      -1.214  11.994  17.358  0.00  0.00    +0.000 HD
ATOM     28  H   UNL     1      -0.990  14.118  17.814  0.00  0.00    +0.000 HD
BRANCH  25  29
ATOM     29  C   UNL     1      -0.540  15.074  19.593  0.00  0.00    +0.000 C 
BRANCH  29  30
ATOM     30  C   UNL     1       0.070  16.135  18.715  0.00  0.00    +0.000 A 
ATOM     31  C   UNL     1      -0.751  17.092  18.104  0.00  0.00    +0.000 A 
ATOM     32  C   UNL     1      -0.198  18.096  17.310  0.00  0.00    +0.000 A 
ATOM     33  C   UNL     1       1.181  18.156  17.123  0.00  0.00    +0.000 A 
ATOM     34  C   UNL     1       2.011  17.210  17.729  0.00  0.00    +0.000 A 
ATOM     35  C   UNL     1       1.459  16.206  18.518  0.00  0.00    +0.000 A 
ENDBRANCH  29  30
ENDBRANCH  25  29
ENDBRANCH   4  22
TORSDOF 9
ENDMDL
