MODEL 1
REMARK VINA RESULT:      -7.1      0.000      0.000
REMARK  Name = 
REMARK  5 active torsions:
REMARK  status: ('A' for Active; 'I' for Inactive)
REMARK    1  A    between atoms: C_1  and  C_2
REMARK    2  A    between atoms: C_6  and  C_7
REMARK    3  A    between atoms: C_7  and  O_9
REMARK    4  A    between atoms: N_13  and  C_14
REMARK    5  A    between atoms: C_14  and  C_15
REMARK                            x       y       z     vdW  Elec       q    Type
REMARK                         _______ _______ _______ _____ _____    ______ ____
ROOT
ATOM      1  C   UNL     1       1.206   3.701  19.362  0.00  0.00    +0.000 C 
ATOM      2  C   UNL     1       2.399   4.112  18.578  0.00  0.00    +0.000 A 
ATOM      3  N   UNL     1       2.838   3.510  17.493  0.00  0.00    +0.000 NA
ATOM      4  C   UNL     1       3.963   4.192  17.112  0.00  0.00    +0.000 A 
ATOM      5  C   UNL     1       4.792   3.967  16.005  0.00  0.00    +0.000 A 
ATOM      6  C   UNL     1       5.917   4.788  15.835  0.00  0.00    +0.000 A 
ATOM      7  C   UNL     1       6.187   5.821  16.746  0.00  0.00    +0.000 A 
ATOM      8  C   UNL     1       5.355   6.066  17.845  0.00  0.00    +0.000 A 
ATOM      9  C   UNL     1       4.240   5.232  17.992  0.00  0.00    +0.000 A 
ATOM     10  N   UNL     1       3.199   5.192  18.896  0.00  0.00    +0.000 N 
ENDROOT
BRANCH   6  11
ATOM     11  C   UNL     1       6.823   4.631  14.670  0.00  0.00    +0.000 C 
ATOM     12  O   UNL     1       7.765   5.379  14.465  0.00  0.00    +0.000 OA
BRANCH  11  13
ATOM     13  O   UNL     1       6.543   3.572  13.885  0.00  0.00    +0.000 OA
ATOM     14  H   UNL     1       5.595   3.384  13.754  0.00  0.00    +0.000 HD
ENDBRANCH  11  13
ENDBRANCH   6  11
BRANCH  10  15
ATOM     15  C   UNL     1       2.928   6.183  19.929  0.00  0.00    +0.000 C 
BRANCH  15  16
ATOM     16  C   UNL     1       2.259   7.426  19.419  0.00  0.00    +0.000 A 
ATOM     17  C   UNL     1       2.233   7.908  18.064  0.00  0.00    +0.000 A 
ATOM     18  C   UNL     1       1.558   9.101  17.932  0.00  0.00    +0.000 A 
ATOM     19  S   UNL     1       0.918   9.644  19.417  0.00  0.00    +0.000 S 
ATOM     20  C   UNL     1       1.554   8.289  20.243  0.00  0.00    +0.000 A 
ENDBRANCH  15  16
ENDBRANCH  10  15
TORSDOF 4
ENDMDL
MODEL 2
REMARK VINA RESULT:      -6.9      2.324      3.632
REMARK  Name = 
REMARK  5 active torsions:
REMARK  status: ('A' for Active; 'I' for Inactive)
REMARK    1  A    between atoms: C_1  and  C_2
REMARK    2  A    between atoms: C_6  and  C_7
REMARK    3  A    between atoms: C_7  and  O_9
REMARK    4  A    between atoms: N_13  and  C_14
REMARK    5  A    between atoms: C_14  and  C_15
REMARK                            x       y       z     vdW  Elec       q    Type
REMARK                         _______ _______ _______ _____ _____    ______ ____
ROOT
ATOM      1  C   UNL     1       1.457   8.742  18.374  0.00  0.00    +0.000 C 
ATOM      2  C   UNL     1       2.573   7.775  18.212  0.00  0.00    +0.000 A 
ATOM      3  N   UNL     1       3.497   7.832  17.275  0.00  0.00    +0.000 NA
ATOM      4  C   UNL     1       4.305   6.744  17.475  0.00  0.00    +0.000 A 
ATOM      5  C   UNL     1       5.449   6.358  16.764  0.00  0.00    +0.000 A 
ATOM      6  C   UNL     1       6.102   5.176  17.141  0.00  0.00    +0.000 A 
ATOM      7  C   UNL     1       5.626   4.412  18.218  0.00  0.00    +0.000 A 
ATOM      8  C   UNL     1       4.494   4.799  18.947  0.00  0.00    +0.000 A 
ATOM      9  C   UNL     1       3.861   5.982  18.551  0.00  0.00    +0.000 A 
ATOM     10  N   UNL     1       2.779   6.687  19.036  0.00  0.00    +0.000 N 
ENDROOT
BRANCH   6  11
ATOM     11  C   UNL     1       7.337   4.720  16.456  0.00  0.00    +0.000 C 
ATOM     12  O   UNL     1       7.554   4.942  15.276  0.00  0.00    +0.000 OA
BRANCH  11  13
ATOM     13  O   UNL     1       8.214   4.079  17.254  0.00  0.00    +0.000 OA
ATOM     14  H   UNL     1       7.836   3.377  17.816  0.00  0.00    +0.000 HD
ENDBRANCH  11  13
ENDBRANCH   6  11
BRANCH  10  15
ATOM     15  C   UNL     1       2.057   6.398  20.268  0.00  0.00    +0.000 C 
BRANCH  15  16
ATOM     16  C   UNL     1       1.764   4.940  20.475  0.00  0.00    +0.000 A 
ATOM     17  C   UNL     1       0.975   4.083  19.633  0.00  0.00    +0.000 A 
ATOM     18  C   UNL     1       0.872   2.799  20.119  0.00  0.00    +0.000 A 
ATOM     19  S   UNL     1       1.745   2.592  21.571  0.00  0.00    +0.000 S 
ATOM     20  C   UNL     1       2.251   4.224  21.557  0.00  0.00    +0.000 A 
ENDBRANCH  15  16
ENDBRANCH  10  15
TORSDOF 4
ENDMDL
MODEL 3
REMARK VINA RESULT:      -6.8      2.090      3.337
REMARK  Name = 
REMARK  5 active torsions:
REMARK  status: ('A' for Active; 'I' for Inactive)
REMARK    1  A    between atoms: C_1  and  C_2
REMARK    2  A    between atoms: C_6  and  C_7
REMARK    3  A    between atoms: C_7  and  O_9
REMARK    4  A    between atoms: N_13  and  C_14
REMARK    5  A    between atoms: C_14  and  C_15
REMARK                            x       y       z     vdW  Elec       q    Type
REMARK                         _______ _______ _______ _____ _____    ______ ____
ROOT
ATOM      1  C   UNL     1       1.905   8.531  18.641  0.00  0.00    +0.000 C 
ATOM      2  C   UNL     1       2.903   7.598  18.059  0.00  0.00    +0.000 A 
ATOM      3  N   UNL     1       3.477   7.738  16.882  0.00  0.00    +0.000 NA
ATOM      4  C   UNL     1       4.300   6.654  16.731  0.00  0.00    +0.000 A 
ATOM      5  C   UNL     1       5.151   6.340  15.664  0.00  0.00    +0.000 A 
ATOM      6  C   UNL     1       5.884   5.146  15.723  0.00  0.00    +0.000 A 
ATOM      7  C   UNL     1       5.777   4.300  16.837  0.00  0.00    +0.000 A 
ATOM      8  C   UNL     1       4.943   4.613  17.918  0.00  0.00    +0.000 A 
ATOM      9  C   UNL     1       4.222   5.810  17.833  0.00  0.00    +0.000 A 
ATOM     10  N   UNL     1       3.358   6.458  18.692  0.00  0.00    +0.000 N 
ENDROOT
BRANCH   6  11
ATOM     11  C   UNL     1       6.830   4.763  14.645  0.00  0.00    +0.000 C 
ATOM     12  O   UNL     1       7.823   5.419  14.378  0.00  0.00    +0.000 OA
BRANCH  11  13
ATOM     13  O   UNL     1       6.523   3.610  14.018  0.00  0.00    +0.000 OA
ATOM     14  H   UNL     1       7.276   3.131  13.625  0.00  0.00    +0.000 HD
ENDBRANCH  11  13
ENDBRANCH   6  11
BRANCH  10  15
ATOM     15  C   UNL     1       3.070   6.070  20.065  0.00  0.00    +0.000 C 
BRANCH  15  16
ATOM     16  C   UNL     1       2.302   4.785  20.187  0.00  0.00    +0.000 A 
ATOM     17  C   UNL     1       1.475   4.168  19.186  0.00  0.00    +0.000 A 
ATOM     18  C   UNL     1       0.879   3.006  19.623  0.00  0.00    +0.000 A 
ATOM     19  S   UNL     1       1.326   2.620  21.224  0.00  0.00    +0.000 S 
ATOM     20  C   UNL     1       2.308   4.015  21.339  0.00  0.00    +0.000 A 
ENDBRANCH  15  16
ENDBRANCH  10  15
TORSDOF 4
ENDMDL
MODEL 4
REMARK VINA RESULT:      -6.6      4.425      6.265
REMARK  Name = 
REMARK  5 active torsions:
REMARK  status: ('A' for Active; 'I' for Inactive)
REMARK    1  A    between atoms: C_1  and  C_2
REMARK    2  A    between atoms: C_6  and  C_7
REMARK    3  A    between atoms: C_7  and  O_9
REMARK    4  A    between atoms: N_13  and  C_14
REMARK    5  A    between atoms: C_14  and  C_15
REMARK                            x       y       z     vdW  Elec       q    Type
REMARK                         _______ _______ _______ _____ _____    ______ ____
ROOT
ATOM      1  C   UNL     1       7.566   5.964  18.445  0.00  0.00    +0.000 C 
ATOM      2  C   UNL     1       6.185   5.439  18.598  0.00  0.00    +0.000 A 
ATOM      3  N   UNL     1       5.713   4.847  19.676  0.00  0.00    +0.000 NA
ATOM      4  C   UNL     1       4.421   4.502  19.382  0.00  0.00    +0.000 A 
ATOM      5  C   UNL     1       3.474   3.870  20.199  0.00  0.00    +0.000 A 
ATOM      6  C   UNL     1       2.209   3.591  19.662  0.00  0.00    +0.000 A 
ATOM      7  C   UNL     1       1.899   3.958  18.343  0.00  0.00    +0.000 A 
ATOM      8  C   UNL     1       2.832   4.606  17.524  0.00  0.00    +0.000 A 
ATOM      9  C   UNL     1       4.087   4.872  18.084  0.00  0.00    +0.000 A 
ATOM     10  N   UNL     1       5.216   5.513  17.617  0.00  0.00    +0.000 N 
ENDROOT
BRANCH   6  11
ATOM     11  C   UNL     1       1.144   2.953  20.476  0.00  0.00    +0.000 C 
ATOM     12  O   UNL     1       1.299   2.667  21.652  0.00  0.00    +0.000 OA
BRANCH  11  13
ATOM     13  O   UNL     1      -0.016   2.755  19.820  0.00  0.00    +0.000 OA
ATOM     14  H   UNL     1      -0.334   3.510  19.291  0.00  0.00    +0.000 HD
ENDBRANCH  11  13
ENDBRANCH   6  11
BRANCH  10  15
ATOM     15  C   UNL     1       5.325   6.240  16.360  0.00  0.00    +0.000 C 
BRANCH  15  16
ATOM     16  C   UNL     1       5.883   5.424  15.230  0.00  0.00    +0.000 A 
ATOM     17  C   UNL     1       7.203   5.509  14.665  0.00  0.00    +0.000 A 
ATOM     18  C   UNL     1       7.393   4.641  13.613  0.00  0.00    +0.000 A 
ATOM     19  S   UNL     1       6.009   3.690  13.309  0.00  0.00    +0.000 S 
ATOM     20  C   UNL     1       5.148   4.448  14.576  0.00  0.00    +0.000 A 
ENDBRANCH  15  16
ENDBRANCH  10  15
TORSDOF 4
ENDMDL
MODEL 5
REMARK VINA RESULT:      -6.6      2.906      4.163
REMARK  Name = 
REMARK  5 active torsions:
REMARK  status: ('A' for Active; 'I' for Inactive)
REMARK    1  A    between atoms: C_1  and  C_2
REMARK    2  A    between atoms: C_6  and  C_7
REMARK    3  A    between atoms: C_7  and  O_9
REMARK    4  A    between atoms: N_13  and  C_14
REMARK    5  A    between atoms: C_14  and  C_15
REMARK                            x       y       z     vdW  Elec       q    Type
REMARK                         _______ _______ _______ _____ _____    ______ ____
ROOT
ATOM      1  C   UNL     1       7.480   5.538  19.710  0.00  0.00    +0.000 C 
ATOM      2  C   UNL     1       7.020   5.198  18.340  0.00  0.00    +0.000 A 
ATOM      3  N   UNL     1       7.806   4.880  17.332  0.00  0.00    +0.000 NA
ATOM      4  C   UNL     1       6.979   4.669  16.261  0.00  0.00    +0.000 A 
ATOM      5  C   UNL     1       7.316   4.285  14.956  0.00  0.00    +0.000 A 
ATOM      6  C   UNL     1       6.287   4.158  14.011  0.00  0.00    +0.000 A 
ATOM      7  C   UNL     1       4.952   4.392  14.377  0.00  0.00    +0.000 A 
ATOM      8  C   UNL     1       4.604   4.758  15.683  0.00  0.00    +0.000 A 
ATOM      9  C   UNL     1       5.649   4.879  16.606  0.00  0.00    +0.000 A 
ATOM     10  N   UNL     1       5.694   5.170  17.954  0.00  0.00    +0.000 N 
ENDROOT
BRANCH   6  11
ATOM     11  C   UNL     1       6.562   3.724  12.618  0.00  0.00    +0.000 C 
ATOM     12  O   UNL     1       7.295   4.348  11.869  0.00  0.00    +0.000 OA
BRANCH  11  13
ATOM     13  O   UNL     1       5.969   2.566  12.268  0.00  0.00    +0.000 OA
ATOM     14  H   UNL     1       6.024   2.335  11.322  0.00  0.00    +0.000 HD
ENDBRANCH  11  13
ENDBRANCH   6  11
BRANCH  10  15
ATOM     15  C   UNL     1       4.543   5.306  18.835  0.00  0.00    +0.000 C 
BRANCH  15  16
ATOM     16  C   UNL     1       3.630   4.114  18.834  0.00  0.00    +0.000 A 
ATOM     17  C   UNL     1       4.006   2.730  18.935  0.00  0.00    +0.000 A 
ATOM     18  C   UNL     1       2.929   1.875  18.871  0.00  0.00    +0.000 A 
ATOM     19  S   UNL     1       1.451   2.716  18.724  0.00  0.00    +0.000 S 
ATOM     20  C   UNL     1       2.253   4.226  18.731  0.00  0.00    +0.000 A 
ENDBRANCH  15  16
ENDBRANCH  10  15
TORSDOF 4
ENDMDL
MODEL 6
REMARK VINA RESULT:      -6.5      2.489      4.033
REMARK  Name = 
REMARK  5 active torsions:
REMARK  status: ('A' for Active; 'I' for Inactive)
REMARK    1  A    between atoms: C_1  and  C_2
REMARK    2  A    between atoms: C_6  and  C_7
REMARK    3  A    between atoms: C_7  and  O_9
REMARK    4  A    between atoms: N_13  and  C_14
REMARK    5  A    between atoms: C_14  and  C_15
REMARK                            x       y       z     vdW  Elec       q    Type
REMARK                         _______ _______ _______ _____ _____    ______ ____
ROOT
ATOM      1  C   UNL     1       7.954   7.318  18.513  0.00  0.00    +0.000 C 
ATOM      2  C   UNL     1       7.409   6.406  17.475  0.00  0.00    +0.000 A 
ATOM      3  N   UNL     1       7.756   6.408  16.204  0.00  0.00    +0.000 NA
ATOM      4  C   UNL     1       7.001   5.436  15.605  0.00  0.00    +0.000 A 
ATOM      5  C   UNL     1       7.005   5.022  14.266  0.00  0.00    +0.000 A 
ATOM      6  C   UNL     1       6.112   4.014  13.876  0.00  0.00    +0.000 A 
ATOM      7  C   UNL     1       5.249   3.425  14.813  0.00  0.00    +0.000 A 
ATOM      8  C   UNL     1       5.249   3.820  16.158  0.00  0.00    +0.000 A 
ATOM      9  C   UNL     1       6.150   4.828  16.521  0.00  0.00    +0.000 A 
ATOM     10  N   UNL     1       6.463   5.432  17.721  0.00  0.00    +0.000 N 
ENDROOT
BRANCH   6  11
ATOM     11  C   UNL     1       6.081   3.501  12.483  0.00  0.00    +0.000 C 
ATOM     12  O   UNL     1       5.143   2.861  12.040  0.00  0.00    +0.000 OA
BRANCH  11  13
ATOM     13  O   UNL     1       7.155   3.838  11.742  0.00  0.00    +0.000 OA
ATOM     14  H   UNL     1       7.208   4.776  11.479  0.00  0.00    +0.000 HD
ENDBRANCH  11  13
ENDBRANCH   6  11
BRANCH  10  15
ATOM     15  C   UNL     1       5.969   5.031  19.031  0.00  0.00    +0.000 C 
BRANCH  15  16
ATOM     16  C   UNL     1       4.476   5.113  19.171  0.00  0.00    +0.000 A 
ATOM     17  C   UNL     1       3.636   6.244  18.878  0.00  0.00    +0.000 A 
ATOM     18  C   UNL     1       2.306   6.007  19.144  0.00  0.00    +0.000 A 
ATOM     19  S   UNL     1       2.039   4.421  19.715  0.00  0.00    +0.000 S 
ATOM     20  C   UNL     1       3.705   4.053  19.620  0.00  0.00    +0.000 A 
ENDBRANCH  15  16
ENDBRANCH  10  15
TORSDOF 4
ENDMDL
MODEL 7
REMARK VINA RESULT:      -6.5      4.216      6.240
REMARK  Name = 
REMARK  5 active torsions:
REMARK  status: ('A' for Active; 'I' for Inactive)
REMARK    1  A    between atoms: C_1  and  C_2
REMARK    2  A    between atoms: C_6  and  C_7
REMARK    3  A    between atoms: C_7  and  O_9
REMARK    4  A    between atoms: N_13  and  C_14
REMARK    5  A    between atoms: C_14  and  C_15
REMARK                            x       y       z     vdW  Elec       q    Type
REMARK                         _______ _______ _______ _____ _____    ______ ____
ROOT
ATOM      1  C   UNL     1       2.467   4.304  20.674  0.00  0.00    +0.000 C 
ATOM      2  C   UNL     1       2.275   5.682  20.152  0.00  0.00    +0.000 A 
ATOM      3  N   UNL     1       1.657   6.655  20.789  0.00  0.00    +0.000 NA
ATOM      4  C   UNL     1       1.684   7.734  19.946  0.00  0.00    +0.000 A 
ATOM      5  C   UNL     1       1.182   9.025  20.158  0.00  0.00    +0.000 A 
ATOM      6  C   UNL     1       1.303   9.966  19.125  0.00  0.00    +0.000 A 
ATOM      7  C   UNL     1       1.931   9.621  17.918  0.00  0.00    +0.000 A 
ATOM      8  C   UNL     1       2.452   8.339  17.703  0.00  0.00    +0.000 A 
ATOM      9  C   UNL     1       2.318   7.418  18.749  0.00  0.00    +0.000 A 
ATOM     10  N   UNL     1       2.730   6.113  18.923  0.00  0.00    +0.000 N 
ENDROOT
BRANCH   6  11
ATOM     11  C   UNL     1       0.825  11.362  19.287  0.00  0.00    +0.000 C 
ATOM     12  O   UNL     1       0.555  11.841  20.376  0.00  0.00    +0.000 OA
BRANCH  11  13
ATOM     13  O   UNL     1       0.754  12.063  18.139  0.00  0.00    +0.000 OA
ATOM     14  H   UNL     1       1.387  11.800  17.445  0.00  0.00    +0.000 HD
ENDBRANCH  11  13
ENDBRANCH   6  11
BRANCH  10  15
ATOM     15  C   UNL     1       3.593   5.365  18.019  0.00  0.00    +0.000 C 
BRANCH  15  16
ATOM     16  C   UNL     1       5.043   5.744  18.108  0.00  0.00    +0.000 A 
ATOM     17  C   UNL     1       5.758   6.658  17.258  0.00  0.00    +0.000 A 
ATOM     18  C   UNL     1       7.092   6.763  17.586  0.00  0.00    +0.000 A 
ATOM     19  S   UNL     1       7.500   5.798  18.932  0.00  0.00    +0.000 S 
ATOM     20  C   UNL     1       5.894   5.227  19.072  0.00  0.00    +0.000 A 
ENDBRANCH  15  16
ENDBRANCH  10  15
TORSDOF 4
ENDMDL
MODEL 8
REMARK VINA RESULT:      -6.4      3.733      5.664
REMARK  Name = 
REMARK  5 active torsions:
REMARK  status: ('A' for Active; 'I' for Inactive)
REMARK    1  A    between atoms: C_1  and  C_2
REMARK    2  A    between atoms: C_6  and  C_7
REMARK    3  A    between atoms: C_7  and  O_9
REMARK    4  A    between atoms: N_13  and  C_14
REMARK    5  A    between atoms: C_14  and  C_15
REMARK                            x       y       z     vdW  Elec       q    Type
REMARK                         _______ _______ _______ _____ _____    ______ ____
ROOT
ATOM      1  C   UNL     1       2.376   3.488  21.336  0.00  0.00    +0.000 C 
ATOM      2  C   UNL     1       2.373   4.748  20.549  0.00  0.00    +0.000 A 
ATOM      3  N   UNL     1       1.763   5.861  20.901  0.00  0.00    +0.000 NA
ATOM      4  C   UNL     1       1.993   6.753  19.888  0.00  0.00    +0.000 A 
ATOM      5  C   UNL     1       1.581   8.088  19.784  0.00  0.00    +0.000 A 
ATOM      6  C   UNL     1       1.918   8.803  18.626  0.00  0.00    +0.000 A 
ATOM      7  C   UNL     1       2.666   8.195  17.606  0.00  0.00    +0.000 A 
ATOM      8  C   UNL     1       3.099   6.867  17.708  0.00  0.00    +0.000 A 
ATOM      9  C   UNL     1       2.749   6.175  18.874  0.00  0.00    +0.000 A 
ATOM     10  N   UNL     1       3.022   4.906  19.341  0.00  0.00    +0.000 N 
ENDROOT
BRANCH   6  11
ATOM     11  C   UNL     1       1.544  10.230  18.459  0.00  0.00    +0.000 C 
ATOM     12  O   UNL     1       0.730  10.784  19.179  0.00  0.00    +0.000 OA
BRANCH  11  13
ATOM     13  O   UNL     1       2.208  10.869  17.475  0.00  0.00    +0.000 OA
ATOM     14  H   UNL     1       2.763  11.618  17.761  0.00  0.00    +0.000 HD
ENDBRANCH  11  13
ENDBRANCH   6  11
BRANCH  10  15
ATOM     15  C   UNL     1       3.928   3.947  18.724  0.00  0.00    +0.000 C 
BRANCH  15  16
ATOM     16  C   UNL     1       5.290   4.504  18.422  0.00  0.00    +0.000 A 
ATOM     17  C   UNL     1       5.999   4.436  17.173  0.00  0.00    +0.000 A 
ATOM     18  C   UNL     1       7.246   5.018  17.232  0.00  0.00    +0.000 A 
ATOM     19  S   UNL     1       7.572   5.681  18.770  0.00  0.00    +0.000 S 
ATOM     20  C   UNL     1       6.049   5.179  19.364  0.00  0.00    +0.000 A 
ENDBRANCH  15  16
ENDBRANCH  10  15
TORSDOF 4
ENDMDL
MODEL 9
REMARK VINA RESULT:      -6.4      4.104      6.073
REMARK  Name = 
REMARK  5 active torsions:
REMARK  status: ('A' for Active; 'I' for Inactive)
REMARK    1  A    between atoms: C_1  and  C_2
REMARK    2  A    between atoms: C_6  and  C_7
REMARK    3  A    between atoms: C_7  and  O_9
REMARK    4  A    between atoms: N_13  and  C_14
REMARK    5  A    between atoms: C_14  and  C_15
REMARK                            x       y       z     vdW  Elec       q    Type
REMARK                         _______ _______ _______ _____ _____    ______ ____
ROOT
ATOM      1  C   UNL     1       2.466   1.779  19.247  0.00  0.00    +0.000 C 
ATOM      2  C   UNL     1       2.356   3.257  19.347  0.00  0.00    +0.000 A 
ATOM      3  N   UNL     1       1.916   3.917  20.398  0.00  0.00    +0.000 NA
ATOM      4  C   UNL     1       1.957   5.242  20.057  0.00  0.00    +0.000 A 
ATOM      5  C   UNL     1       1.616   6.358  20.832  0.00  0.00    +0.000 A 
ATOM      6  C   UNL     1       1.715   7.631  20.250  0.00  0.00    +0.000 A 
ATOM      7  C   UNL     1       2.164   7.776  18.928  0.00  0.00    +0.000 A 
ATOM      8  C   UNL     1       2.525   6.668  18.151  0.00  0.00    +0.000 A 
ATOM      9  C   UNL     1       2.417   5.410  18.755  0.00  0.00    +0.000 A 
ATOM     10  N   UNL     1       2.712   4.129  18.336  0.00  0.00    +0.000 N 
ENDROOT
BRANCH   6  11
ATOM     11  C   UNL     1       1.402   8.862  21.018  0.00  0.00    +0.000 C 
ATOM     12  O   UNL     1       0.787   9.798  20.536  0.00  0.00    +0.000 OA
BRANCH  11  13
ATOM     13  O   UNL     1       1.816   8.838  22.300  0.00  0.00    +0.000 OA
ATOM     14  H   UNL     1       1.128   9.016  22.968  0.00  0.00    +0.000 HD
ENDBRANCH  11  13
ENDBRANCH   6  11
BRANCH  10  15
ATOM     15  C   UNL     1       3.387   3.772  17.096  0.00  0.00    +0.000 C 
BRANCH  15  16
ATOM     16  C   UNL     1       4.840   4.149  17.063  0.00  0.00    +0.000 A 
ATOM     17  C   UNL     1       5.712   4.350  18.188  0.00  0.00    +0.000 A 
ATOM     18  C   UNL     1       6.986   4.723  17.820  0.00  0.00    +0.000 A 
ATOM     19  S   UNL     1       7.165   4.804  16.125  0.00  0.00    +0.000 S 
ATOM     20  C   UNL     1       5.534   4.354  15.881  0.00  0.00    +0.000 A 
ENDBRANCH  15  16
ENDBRANCH  10  15
TORSDOF 4
ENDMDL
