MODEL 1
REMARK VINA RESULT:      -8.1      0.000      0.000
REMARK  Name = 
REMARK  12 active torsions:
REMARK  status: ('A' for Active; 'I' for Inactive)
REMARK    1  A    between atoms: C_1  and  O_2
REMARK    2  A    between atoms: O_2  and  C_3
REMARK    3  A    between atoms: C_6  and  C_7
REMARK    4  A    between atoms: C_9  and  S_10
REMARK    5  A    between atoms: S_10  and  N_13
REMARK    6  A    between atoms: N_13  and  C_14
REMARK    7  A    between atoms: C_14  and  C_15
REMARK    8  A    between atoms: C_15  and  C_16
REMARK    9  A    between atoms: C_16  and  C_17
REMARK   10  A    between atoms: C_17  and  C_18
REMARK   11  A    between atoms: C_18  and  N_19
REMARK   12  A    between atoms: C_22  and  C_23
REMARK                            x       y       z     vdW  Elec       q    Type
REMARK                         _______ _______ _______ _____ _____    ______ ____
ROOT
ATOM      1  C   UNL     1       1.927   2.377  18.501  0.00  0.00    +0.000 C 
ENDROOT
BRANCH   1   2
ATOM      2  C   UNL     1       3.352   1.836  18.463  0.00  0.00    +0.000 C 
BRANCH   2   3
ATOM      3  N   UNL     1       4.101   2.464  17.375  0.00  0.00    +0.000 NA
ATOM      4  H   UNL     1       4.742   1.890  16.828  0.00  0.00    +0.000 HD
BRANCH   3   5
ATOM      5  S   UNL     1       4.772   3.982  17.684  0.00  0.00    +0.000 S 
ATOM      6  O   UNL     1       5.676   3.817  18.805  0.00  0.00    +0.000 OA
ATOM      7  O   UNL     1       3.687   4.938  17.730  0.00  0.00    +0.000 OA
BRANCH   5  14
ATOM      8  C   UNL     1       6.861   5.170  16.298  0.00  0.00    +0.000 A 
ATOM      9  C   UNL     1       7.617   5.360  15.136  0.00  0.00    +0.000 A 
ATOM     10  C   UNL     1       7.242   4.759  13.929  0.00  0.00    +0.000 A 
ATOM     11  C   UNL     1       6.105   3.953  13.857  0.00  0.00    +0.000 A 
ATOM     12  C   UNL     1       5.672   3.340  12.559  0.00  0.00    +0.000 C 
ATOM     13  C   UNL     1       5.369   3.722  15.023  0.00  0.00    +0.000 A 
ATOM     14  C   UNL     1       5.754   4.314  16.238  0.00  0.00    +0.000 A 
BRANCH   8  16
ATOM     15  C   UNL     1       7.216   7.198  17.483  0.00  0.00    +0.000 C 
ATOM     16  O   UNL     1       7.154   5.774  17.490  0.00  0.00    +0.000 OA
ENDBRANCH   8  16
ENDBRANCH   5  14
ENDBRANCH   3   5
ENDBRANCH   2   3
ENDBRANCH   1   2
BRANCH   1  17
ATOM     17  C   UNL     1       1.465   2.674  19.934  0.00  0.00    +0.000 C 
BRANCH  17  18
ATOM     18  C   UNL     1       0.968   4.104  20.174  0.00  0.00    +0.000 C 
BRANCH  18  19
ATOM     19  C   UNL     1       1.957   4.944  20.981  0.00  0.00    +0.000 C 
BRANCH  19  20
ATOM     20  N   UNL     1       2.652   5.876  20.108  0.00  0.00    +0.000 N 
ATOM     21  C   UNL     1       2.091   7.104  19.974  0.00  0.00    +0.000 A 
ATOM     22  N   UNL     1       1.357   7.691  20.889  0.00  0.00    +0.000 NA
ATOM     23  C   UNL     1       0.926   8.935  20.443  0.00  0.00    +0.000 A 
ATOM     24  C   UNL     1       1.320   9.253  19.158  0.00  0.00    +0.000 A 
ATOM     25  S   UNL     1       2.291   7.996  18.516  0.00  0.00    +0.000 S 
ATOM     26  H   UNL     1       2.987   5.472  19.240  0.00  0.00    +0.000 HD
BRANCH  23  27
ATOM     27  C   UNL     1       0.137   9.825  21.291  0.00  0.00    +0.000 A 
ATOM     28  C   UNL     1      -0.235   9.423  22.572  0.00  0.00    +0.000 A 
ATOM     29  C   UNL     1      -0.954  10.306  23.373  0.00  0.00    +0.000 A 
ATOM     30  C   UNL     1      -1.284  11.560  22.874  0.00  0.00    +0.000 A 
ATOM     31  C   UNL     1      -0.882  11.879  21.587  0.00  0.00    +0.000 A 
ATOM     32  N   UNL     1      -0.181  11.045  20.786  0.00  0.00    +0.000 NA
ENDBRANCH  23  27
ENDBRANCH  19  20
ENDBRANCH  18  19
ENDBRANCH  17  18
ENDBRANCH   1  17
TORSDOF 10
ENDMDL
MODEL 2
REMARK VINA RESULT:      -7.6      1.354      2.631
REMARK  Name = 
REMARK  12 active torsions:
REMARK  status: ('A' for Active; 'I' for Inactive)
REMARK    1  A    between atoms: C_1  and  O_2
REMARK    2  A    between atoms: O_2  and  C_3
REMARK    3  A    between atoms: C_6  and  C_7
REMARK    4  A    between atoms: C_9  and  S_10
REMARK    5  A    between atoms: S_10  and  N_13
REMARK    6  A    between atoms: N_13  and  C_14
REMARK    7  A    between atoms: C_14  and  C_15
REMARK    8  A    between atoms: C_15  and  C_16
REMARK    9  A    between atoms: C_16  and  C_17
REMARK   10  A    between atoms: C_17  and  C_18
REMARK   11  A    between atoms: C_18  and  N_19
REMARK   12  A    between atoms: C_22  and  C_23
REMARK                            x       y       z     vdW  Elec       q    Type
REMARK                         _______ _______ _______ _____ _____    ______ ____
ROOT
ATOM      1  C   UNL     1       2.049   2.330  19.837  0.00  0.00    +0.000 C 
ENDROOT
BRANCH   1   2
ATOM      2  C   UNL     1       3.272   2.106  18.954  0.00  0.00    +0.000 C 
BRANCH   2   3
ATOM      3  N   UNL     1       4.124   3.294  18.960  0.00  0.00    +0.000 NA
ATOM      4  H   UNL     1       4.018   3.968  19.718  0.00  0.00    +0.000 HD
BRANCH   3   5
ATOM      5  S   UNL     1       4.346   4.084  17.484  0.00  0.00    +0.000 S 
ATOM      6  O   UNL     1       3.185   4.929  17.286  0.00  0.00    +0.000 OA
ATOM      7  O   UNL     1       4.723   3.087  16.507  0.00  0.00    +0.000 OA
BRANCH   5  14
ATOM      8  C   UNL     1       6.133   6.104  16.834  0.00  0.00    +0.000 A 
ATOM      9  C   UNL     1       7.218   6.933  17.139  0.00  0.00    +0.000 A 
ATOM     10  C   UNL     1       7.936   6.769  18.329  0.00  0.00    +0.000 A 
ATOM     11  C   UNL     1       7.584   5.773  19.241  0.00  0.00    +0.000 A 
ATOM     12  C   UNL     1       8.373   5.561  20.498  0.00  0.00    +0.000 C 
ATOM     13  C   UNL     1       6.474   4.968  18.965  0.00  0.00    +0.000 A 
ATOM     14  C   UNL     1       5.745   5.144  17.777  0.00  0.00    +0.000 A 
BRANCH   8  16
ATOM     15  C   UNL     1       5.955   5.465  14.552  0.00  0.00    +0.000 C 
ATOM     16  O   UNL     1       5.430   6.189  15.663  0.00  0.00    +0.000 OA
ENDBRANCH   8  16
ENDBRANCH   5  14
ENDBRANCH   3   5
ENDBRANCH   2   3
ENDBRANCH   1   2
BRANCH   1  17
ATOM     17  C   UNL     1       1.215   3.529  19.366  0.00  0.00    +0.000 C 
BRANCH  17  18
ATOM     18  C   UNL     1       0.928   4.584  20.441  0.00  0.00    +0.000 C 
BRANCH  18  19
ATOM     19  C   UNL     1       2.202   5.211  21.005  0.00  0.00    +0.000 C 
BRANCH  19  20
ATOM     20  N   UNL     1       2.798   6.104  20.023  0.00  0.00    +0.000 N 
ATOM     21  C   UNL     1       2.199   7.310  19.868  0.00  0.00    +0.000 A 
ATOM     22  N   UNL     1       1.532   7.937  20.808  0.00  0.00    +0.000 NA
ATOM     23  C   UNL     1       1.035   9.144  20.331  0.00  0.00    +0.000 A 
ATOM     24  C   UNL     1       1.310   9.392  19.001  0.00  0.00    +0.000 A 
ATOM     25  S   UNL     1       2.252   8.118  18.350  0.00  0.00    +0.000 S 
ATOM     26  H   UNL     1       3.067   5.655  19.153  0.00  0.00    +0.000 HD
BRANCH  23  27
ATOM     27  C   UNL     1       0.300  10.067  21.192  0.00  0.00    +0.000 A 
ATOM     28  C   UNL     1      -0.405   9.587  22.293  0.00  0.00    +0.000 A 
ATOM     29  C   UNL     1      -1.065  10.493  23.118  0.00  0.00    +0.000 A 
ATOM     30  C   UNL     1      -1.005  11.849  22.822  0.00  0.00    +0.000 A 
ATOM     31  C   UNL     1      -0.287  12.243  21.704  0.00  0.00    +0.000 A 
ATOM     32  N   UNL     1       0.366  11.389  20.885  0.00  0.00    +0.000 NA
ENDBRANCH  23  27
ENDBRANCH  19  20
ENDBRANCH  18  19
ENDBRANCH  17  18
ENDBRANCH   1  17
TORSDOF 10
ENDMDL
MODEL 3
REMARK VINA RESULT:      -7.5      2.242      3.543
REMARK  Name = 
REMARK  12 active torsions:
REMARK  status: ('A' for Active; 'I' for Inactive)
REMARK    1  A    between atoms: C_1  and  O_2
REMARK    2  A    between atoms: O_2  and  C_3
REMARK    3  A    between atoms: C_6  and  C_7
REMARK    4  A    between atoms: C_9  and  S_10
REMARK    5  A    between atoms: S_10  and  N_13
REMARK    6  A    between atoms: N_13  and  C_14
REMARK    7  A    between atoms: C_14  and  C_15
REMARK    8  A    between atoms: C_15  and  C_16
REMARK    9  A    between atoms: C_16  and  C_17
REMARK   10  A    between atoms: C_17  and  C_18
REMARK   11  A    between atoms: C_18  and  N_19
REMARK   12  A    between atoms: C_22  and  C_23
REMARK                            x       y       z     vdW  Elec       q    Type
REMARK                         _______ _______ _______ _____ _____    ______ ____
ROOT
ATOM      1  C   UNL     1       2.232   6.853  19.556  0.00  0.00    +0.000 C 
ENDROOT
BRANCH   1   2
ATOM      2  C   UNL     1       2.380   5.345  19.731  0.00  0.00    +0.000 C 
BRANCH   2   3
ATOM      3  N   UNL     1       3.795   4.983  19.807  0.00  0.00    +0.000 NA
ATOM      4  H   UNL     1       4.493   5.723  19.746  0.00  0.00    +0.000 HD
BRANCH   3   5
ATOM      5  S   UNL     1       4.285   3.624  18.933  0.00  0.00    +0.000 S 
ATOM      6  O   UNL     1       3.092   3.066  18.328  0.00  0.00    +0.000 OA
ATOM      7  O   UNL     1       5.130   2.829  19.798  0.00  0.00    +0.000 OA
BRANCH   5  14
ATOM      8  C   UNL     1       6.288   5.243  17.902  0.00  0.00    +0.000 A 
ATOM      9  C   UNL     1       7.071   5.708  16.839  0.00  0.00    +0.000 A 
ATOM     10  C   UNL     1       6.825   5.286  15.527  0.00  0.00    +0.000 A 
ATOM     11  C   UNL     1       5.792   4.389  15.250  0.00  0.00    +0.000 A 
ATOM     12  C   UNL     1       5.494   3.965  13.843  0.00  0.00    +0.000 C 
ATOM     13  C   UNL     1       5.033   3.886  16.311  0.00  0.00    +0.000 A 
ATOM     14  C   UNL     1       5.290   4.299  17.629  0.00  0.00    +0.000 A 
BRANCH   8  16
ATOM     15  C   UNL     1       7.784   5.646  19.703  0.00  0.00    +0.000 C 
ATOM     16  O   UNL     1       6.453   5.663  19.194  0.00  0.00    +0.000 OA
ENDBRANCH   8  16
ENDBRANCH   5  14
ENDBRANCH   3   5
ENDBRANCH   2   3
ENDBRANCH   1   2
BRANCH   1  17
ATOM     17  C   UNL     1       2.713   7.319  18.175  0.00  0.00    +0.000 C 
BRANCH  17  18
ATOM     18  C   UNL     1       2.356   8.766  17.817  0.00  0.00    +0.000 C 
BRANCH  18  19
ATOM     19  C   UNL     1       1.205   9.315  18.660  0.00  0.00    +0.000 C 
BRANCH  19  20
ATOM     20  N   UNL     1       0.305  10.100  17.829  0.00  0.00    +0.000 N 
ATOM     21  C   UNL     1      -0.627  10.835  18.484  0.00  0.00    +0.000 A 
ATOM     22  N   UNL     1      -0.481  11.316  19.696  0.00  0.00    +0.000 NA
ATOM     23  C   UNL     1      -1.618  12.015  20.083  0.00  0.00    +0.000 A 
ATOM     24  C   UNL     1      -2.637  12.016  19.151  0.00  0.00    +0.000 A 
ATOM     25  S   UNL     1      -2.144  11.172  17.744  0.00  0.00    +0.000 S 
ATOM     26  H   UNL     1      -0.044   9.614  17.010  0.00  0.00    +0.000 HD
BRANCH  23  27
ATOM     27  C   UNL     1      -1.696  12.702  21.370  0.00  0.00    +0.000 A 
ATOM     28  C   UNL     1      -2.721  12.402  22.263  0.00  0.00    +0.000 A 
ATOM     29  C   UNL     1      -2.750  13.044  23.498  0.00  0.00    +0.000 A 
ATOM     30  C   UNL     1      -1.758  13.968  23.804  0.00  0.00    +0.000 A 
ATOM     31  C   UNL     1      -0.778  14.214  22.858  0.00  0.00    +0.000 A 
ATOM     32  N   UNL     1      -0.721  13.606  21.652  0.00  0.00    +0.000 NA
ENDBRANCH  23  27
ENDBRANCH  19  20
ENDBRANCH  18  19
ENDBRANCH  17  18
ENDBRANCH   1  17
TORSDOF 10
ENDMDL
MODEL 4
REMARK VINA RESULT:      -7.5      5.669      7.703
REMARK  Name = 
REMARK  12 active torsions:
REMARK  status: ('A' for Active; 'I' for Inactive)
REMARK    1  A    between atoms: C_1  and  O_2
REMARK    2  A    between atoms: O_2  and  C_3
REMARK    3  A    between atoms: C_6  and  C_7
REMARK    4  A    between atoms: C_9  and  S_10
REMARK    5  A    between atoms: S_10  and  N_13
REMARK    6  A    between atoms: N_13  and  C_14
REMARK    7  A    between atoms: C_14  and  C_15
REMARK    8  A    between atoms: C_15  and  C_16
REMARK    9  A    between atoms: C_16  and  C_17
REMARK   10  A    between atoms: C_17  and  C_18
REMARK   11  A    between atoms: C_18  and  N_19
REMARK   12  A    between atoms: C_22  and  C_23
REMARK                            x       y       z     vdW  Elec       q    Type
REMARK                         _______ _______ _______ _____ _____    ______ ____
ROOT
ATOM      1  C   UNL     1       8.025   8.761  17.836  0.00  0.00    +0.000 C 
ENDROOT
BRANCH   1   2
ATOM      2  C   UNL     1       7.879   7.256  18.039  0.00  0.00    +0.000 C 
BRANCH   2   3
ATOM      3  N   UNL     1       7.226   6.652  16.879  0.00  0.00    +0.000 NA
ATOM      4  H   UNL     1       6.619   7.233  16.301  0.00  0.00    +0.000 HD
BRANCH   3   5
ATOM      5  S   UNL     1       6.558   5.116  17.089  0.00  0.00    +0.000 S 
ATOM      6  O   UNL     1       7.223   4.527  18.235  0.00  0.00    +0.000 OA
ATOM      7  O   UNL     1       6.561   4.458  15.801  0.00  0.00    +0.000 OA
BRANCH   5  14
ATOM      8  C   UNL     1       4.006   4.406  17.912  0.00  0.00    +0.000 A 
ATOM      9  C   UNL     1       2.702   4.733  18.301  0.00  0.00    +0.000 A 
ATOM     10  C   UNL     1       2.254   6.058  18.271  0.00  0.00    +0.000 A 
ATOM     11  C   UNL     1       3.101   7.087  17.854  0.00  0.00    +0.000 A 
ATOM     12  C   UNL     1       2.618   8.504  17.779  0.00  0.00    +0.000 C 
ATOM     13  C   UNL     1       4.419   6.775  17.505  0.00  0.00    +0.000 A 
ATOM     14  C   UNL     1       4.872   5.445  17.550  0.00  0.00    +0.000 A 
BRANCH   8  16
ATOM     15  C   UNL     1       3.508   2.084  18.000  0.00  0.00    +0.000 C 
ATOM     16  O   UNL     1       4.477   3.121  17.873  0.00  0.00    +0.000 OA
ENDBRANCH   8  16
ENDBRANCH   5  14
ENDBRANCH   3   5
ENDBRANCH   2   3
ENDBRANCH   1   2
BRANCH   1  17
ATOM     17  C   UNL     1       8.912   9.400  18.913  0.00  0.00    +0.000 C 
BRANCH  17  18
ATOM     18  C   UNL     1       9.342  10.844  18.628  0.00  0.00    +0.000 C 
BRANCH  18  19
ATOM     19  C   UNL     1       9.471  11.682  19.899  0.00  0.00    +0.000 C 
BRANCH  19  20
ATOM     20  N   UNL     1      10.144  12.937  19.606  0.00  0.00    +0.000 N 
ATOM     21  C   UNL     1       9.381  13.910  19.049  0.00  0.00    +0.000 A 
ATOM     22  N   UNL     1       8.088  14.040  19.231  0.00  0.00    +0.000 NA
ATOM     23  C   UNL     1       7.602  15.128  18.517  0.00  0.00    +0.000 A 
ATOM     24  C   UNL     1       8.551  15.792  17.764  0.00  0.00    +0.000 A 
ATOM     25  S   UNL     1      10.088  15.072  17.994  0.00  0.00    +0.000 S 
ATOM     26  H   UNL     1      11.063  12.836  19.189  0.00  0.00    +0.000 HD
BRANCH  23  27
ATOM     27  C   UNL     1       6.200  15.531  18.591  0.00  0.00    +0.000 A 
ATOM     28  C   UNL     1       5.257  14.943  17.751  0.00  0.00    +0.000 A 
ATOM     29  C   UNL     1       3.922  15.318  17.868  0.00  0.00    +0.000 A 
ATOM     30  C   UNL     1       3.566  16.270  18.816  0.00  0.00    +0.000 A 
ATOM     31  C   UNL     1       4.565  16.811  19.608  0.00  0.00    +0.000 A 
ATOM     32  N   UNL     1       5.869  16.466  19.520  0.00  0.00    +0.000 NA
ENDBRANCH  23  27
ENDBRANCH  19  20
ENDBRANCH  18  19
ENDBRANCH  17  18
ENDBRANCH   1  17
TORSDOF 10
ENDMDL
MODEL 5
REMARK VINA RESULT:      -7.3      4.476     10.403
REMARK  Name = 
REMARK  12 active torsions:
REMARK  status: ('A' for Active; 'I' for Inactive)
REMARK    1  A    between atoms: C_1  and  O_2
REMARK    2  A    between atoms: O_2  and  C_3
REMARK    3  A    between atoms: C_6  and  C_7
REMARK    4  A    between atoms: C_9  and  S_10
REMARK    5  A    between atoms: S_10  and  N_13
REMARK    6  A    between atoms: N_13  and  C_14
REMARK    7  A    between atoms: C_14  and  C_15
REMARK    8  A    between atoms: C_15  and  C_16
REMARK    9  A    between atoms: C_16  and  C_17
REMARK   10  A    between atoms: C_17  and  C_18
REMARK   11  A    between atoms: C_18  and  N_19
REMARK   12  A    between atoms: C_22  and  C_23
REMARK                            x       y       z     vdW  Elec       q    Type
REMARK                         _______ _______ _______ _____ _____    ______ ____
ROOT
ATOM      1  C   UNL     1       0.929  10.145  19.680  0.00  0.00    +0.000 C 
ENDROOT
BRANCH   1   2
ATOM      2  C   UNL     1       0.017  10.190  18.459  0.00  0.00    +0.000 C 
BRANCH   2   3
ATOM      3  N   UNL     1      -1.378  10.325  18.876  0.00  0.00    +0.000 NA
ATOM      4  H   UNL     1      -2.092   9.797  18.374  0.00  0.00    +0.000 HD
BRANCH   3   5
ATOM      5  S   UNL     1      -1.924  11.884  19.228  0.00  0.00    +0.000 S 
ATOM      6  O   UNL     1      -1.209  12.785  18.346  0.00  0.00    +0.000 OA
ATOM      7  O   UNL     1      -1.878  12.048  20.665  0.00  0.00    +0.000 OA
BRANCH   5  14
ATOM      8  C   UNL     1      -4.005  11.312  17.486  0.00  0.00    +0.000 A 
ATOM      9  C   UNL     1      -5.366  11.289  17.158  0.00  0.00    +0.000 A 
ATOM     10  C   UNL     1      -6.320  11.856  18.010  0.00  0.00    +0.000 A 
ATOM     11  C   UNL     1      -5.935  12.456  19.211  0.00  0.00    +0.000 A 
ATOM     12  C   UNL     1      -6.946  13.103  20.110  0.00  0.00    +0.000 C 
ATOM     13  C   UNL     1      -4.583  12.444  19.567  0.00  0.00    +0.000 A 
ATOM     14  C   UNL     1      -3.628  11.862  18.717  0.00  0.00    +0.000 A 
BRANCH   8  16
ATOM     15  C   UNL     1      -3.277  10.892  15.263  0.00  0.00    +0.000 C 
ATOM     16  O   UNL     1      -3.028  10.819  16.665  0.00  0.00    +0.000 OA
ENDBRANCH   8  16
ENDBRANCH   5  14
ENDBRANCH   3   5
ENDBRANCH   2   3
ENDBRANCH   1   2
BRANCH   1  17
ATOM     17  C   UNL     1       0.316   9.326  20.824  0.00  0.00    +0.000 C 
BRANCH  17  18
ATOM     18  C   UNL     1       1.255   8.295  21.461  0.00  0.00    +0.000 C 
BRANCH  18  19
ATOM     19  C   UNL     1       1.834   7.315  20.442  0.00  0.00    +0.000 C 
BRANCH  19  20
ATOM     20  N   UNL     1       2.009   6.005  21.049  0.00  0.00    +0.000 N 
ATOM     21  C   UNL     1       2.692   5.091  20.317  0.00  0.00    +0.000 A 
ATOM     22  N   UNL     1       3.615   5.385  19.432  0.00  0.00    +0.000 NA
ATOM     23  C   UNL     1       4.117   4.228  18.849  0.00  0.00    +0.000 A 
ATOM     24  C   UNL     1       3.524   3.060  19.287  0.00  0.00    +0.000 A 
ATOM     25  S   UNL     1       2.354   3.412  20.487  0.00  0.00    +0.000 S 
ATOM     26  H   UNL     1       1.181   5.639  21.508  0.00  0.00    +0.000 HD
BRANCH  23  27
ATOM     27  C   UNL     1       5.199   4.269  17.868  0.00  0.00    +0.000 A 
ATOM     28  C   UNL     1       4.923   4.111  16.513  0.00  0.00    +0.000 A 
ATOM     29  C   UNL     1       5.968   4.191  15.597  0.00  0.00    +0.000 A 
ATOM     30  C   UNL     1       7.258   4.424  16.060  0.00  0.00    +0.000 A 
ATOM     31  C   UNL     1       7.449   4.563  17.424  0.00  0.00    +0.000 A 
ATOM     32  N   UNL     1       6.455   4.492  18.338  0.00  0.00    +0.000 NA
ENDBRANCH  23  27
ENDBRANCH  19  20
ENDBRANCH  18  19
ENDBRANCH  17  18
ENDBRANCH   1  17
TORSDOF 10
ENDMDL
MODEL 6
REMARK VINA RESULT:      -7.3      2.158      3.439
REMARK  Name = 
REMARK  12 active torsions:
REMARK  status: ('A' for Active; 'I' for Inactive)
REMARK    1  A    between atoms: C_1  and  O_2
REMARK    2  A    between atoms: O_2  and  C_3
REMARK    3  A    between atoms: C_6  and  C_7
REMARK    4  A    between atoms: C_9  and  S_10
REMARK    5  A    between atoms: S_10  and  N_13
REMARK    6  A    between atoms: N_13  and  C_14
REMARK    7  A    between atoms: C_14  and  C_15
REMARK    8  A    between atoms: C_15  and  C_16
REMARK    9  A    between atoms: C_16  and  C_17
REMARK   10  A    between atoms: C_17  and  C_18
REMARK   11  A    between atoms: C_18  and  N_19
REMARK   12  A    between atoms: C_22  and  C_23
REMARK                            x       y       z     vdW  Elec       q    Type
REMARK                         _______ _______ _______ _____ _____    ______ ____
ROOT
ATOM      1  C   UNL     1       2.023   6.853  19.644  0.00  0.00    +0.000 C 
ENDROOT
BRANCH   1   2
ATOM      2  C   UNL     1       2.442   5.548  20.313  0.00  0.00    +0.000 C 
BRANCH   2   3
ATOM      3  N   UNL     1       3.789   5.172  19.887  0.00  0.00    +0.000 NA
ATOM      4  H   UNL     1       4.412   5.899  19.535  0.00  0.00    +0.000 HD
BRANCH   3   5
ATOM      5  S   UNL     1       3.937   3.763  18.970  0.00  0.00    +0.000 S 
ATOM      6  O   UNL     1       2.674   3.579  18.282  0.00  0.00    +0.000 OA
ATOM      7  O   UNL     1       4.477   2.735  19.833  0.00  0.00    +0.000 OA
BRANCH   5  14
ATOM      8  C   UNL     1       6.380   4.766  18.121  0.00  0.00    +0.000 A 
ATOM      9  C   UNL     1       7.321   5.032  17.120  0.00  0.00    +0.000 A 
ATOM     10  C   UNL     1       7.032   4.774  15.775  0.00  0.00    +0.000 A 
ATOM     11  C   UNL     1       5.797   4.241  15.402  0.00  0.00    +0.000 A 
ATOM     12  C   UNL     1       5.463   4.001  13.960  0.00  0.00    +0.000 C 
ATOM     13  C   UNL     1       4.868   3.931  16.399  0.00  0.00    +0.000 A 
ATOM     14  C   UNL     1       5.165   4.177  17.750  0.00  0.00    +0.000 A 
BRANCH   8  16
ATOM     15  C   UNL     1       7.848   5.634  19.775  0.00  0.00    +0.000 C 
ATOM     16  O   UNL     1       6.592   5.047  19.443  0.00  0.00    +0.000 OA
ENDBRANCH   8  16
ENDBRANCH   5  14
ENDBRANCH   3   5
ENDBRANCH   2   3
ENDBRANCH   1   2
BRANCH   1  17
ATOM     17  C   UNL     1       3.078   7.350  18.648  0.00  0.00    +0.000 C 
BRANCH  17  18
ATOM     18  C   UNL     1       2.526   8.144  17.458  0.00  0.00    +0.000 C 
BRANCH  18  19
ATOM     19  C   UNL     1       1.485   9.182  17.875  0.00  0.00    +0.000 C 
BRANCH  19  20
ATOM     20  N   UNL     1       2.114  10.483  18.040  0.00  0.00    +0.000 N 
ATOM     21  C   UNL     1       1.406  11.408  18.734  0.00  0.00    +0.000 A 
ATOM     22  N   UNL     1       0.531  11.127  19.670  0.00  0.00    +0.000 NA
ATOM     23  C   UNL     1      -0.028  12.294  20.180  0.00  0.00    +0.000 A 
ATOM     24  C   UNL     1       0.418  13.454  19.580  0.00  0.00    +0.000 A 
ATOM     25  S   UNL     1       1.596  13.084  18.393  0.00  0.00    +0.000 S 
ATOM     26  H   UNL     1       2.567  10.842  17.206  0.00  0.00    +0.000 HD
BRANCH  23  27
ATOM     27  C   UNL     1      -0.993  12.267  21.276  0.00  0.00    +0.000 A 
ATOM     28  C   UNL     1      -2.080  13.138  21.274  0.00  0.00    +0.000 A 
ATOM     29  C   UNL     1      -3.004  13.066  22.313  0.00  0.00    +0.000 A 
ATOM     30  C   UNL     1      -2.817  12.131  23.323  0.00  0.00    +0.000 A 
ATOM     31  C   UNL     1      -1.706  11.306  23.255  0.00  0.00    +0.000 A 
ATOM     32  N   UNL     1      -0.792  11.350  22.259  0.00  0.00    +0.000 NA
ENDBRANCH  23  27
ENDBRANCH  19  20
ENDBRANCH  18  19
ENDBRANCH  17  18
ENDBRANCH   1  17
TORSDOF 10
ENDMDL
MODEL 7
REMARK VINA RESULT:      -7.3      3.366      4.816
REMARK  Name = 
REMARK  12 active torsions:
REMARK  status: ('A' for Active; 'I' for Inactive)
REMARK    1  A    between atoms: C_1  and  O_2
REMARK    2  A    between atoms: O_2  and  C_3
REMARK    3  A    between atoms: C_6  and  C_7
REMARK    4  A    between atoms: C_9  and  S_10
REMARK    5  A    between atoms: S_10  and  N_13
REMARK    6  A    between atoms: N_13  and  C_14
REMARK    7  A    between atoms: C_14  and  C_15
REMARK    8  A    between atoms: C_15  and  C_16
REMARK    9  A    between atoms: C_16  and  C_17
REMARK   10  A    between atoms: C_17  and  C_18
REMARK   11  A    between atoms: C_18  and  N_19
REMARK   12  A    between atoms: C_22  and  C_23
REMARK                            x       y       z     vdW  Elec       q    Type
REMARK                         _______ _______ _______ _____ _____    ______ ____
ROOT
ATOM      1  C   UNL     1       3.334   7.346  18.287  0.00  0.00    +0.000 C 
ENDROOT
BRANCH   1   2
ATOM      2  C   UNL     1       2.786   6.417  19.366  0.00  0.00    +0.000 C 
BRANCH   2   3
ATOM      3  N   UNL     1       3.805   5.446  19.760  0.00  0.00    +0.000 NA
ATOM      4  H   UNL     1       4.749   5.779  19.955  0.00  0.00    +0.000 HD
BRANCH   3   5
ATOM      5  S   UNL     1       3.849   3.991  18.905  0.00  0.00    +0.000 S 
ATOM      6  O   UNL     1       2.589   3.887  18.196  0.00  0.00    +0.000 OA
ATOM      7  O   UNL     1       4.282   2.958  19.821  0.00  0.00    +0.000 OA
BRANCH   5  14
ATOM      8  C   UNL     1       6.402   4.696  18.080  0.00  0.00    +0.000 A 
ATOM      9  C   UNL     1       7.380   4.841  17.089  0.00  0.00    +0.000 A 
ATOM     10  C   UNL     1       7.080   4.601  15.743  0.00  0.00    +0.000 A 
ATOM     11  C   UNL     1       5.797   4.210  15.358  0.00  0.00    +0.000 A 
ATOM     12  C   UNL     1       5.455   3.993  13.915  0.00  0.00    +0.000 C 
ATOM     13  C   UNL     1       4.825   4.021  16.346  0.00  0.00    +0.000 A 
ATOM     14  C   UNL     1       5.132   4.247  17.698  0.00  0.00    +0.000 A 
BRANCH   8  16
ATOM     15  C   UNL     1       7.803   5.714  19.706  0.00  0.00    +0.000 C 
ATOM     16  O   UNL     1       6.628   4.967  19.402  0.00  0.00    +0.000 OA
ENDBRANCH   8  16
ENDBRANCH   5  14
ENDBRANCH   3   5
ENDBRANCH   2   3
ENDBRANCH   1   2
BRANCH   1  17
ATOM     17  C   UNL     1       2.252   8.286  17.737  0.00  0.00    +0.000 C 
BRANCH  17  18
ATOM     18  C   UNL     1       1.451   9.047  18.800  0.00  0.00    +0.000 C 
BRANCH  18  19
ATOM     19  C   UNL     1       0.352   9.920  18.196  0.00  0.00    +0.000 C 
BRANCH  19  20
ATOM     20  N   UNL     1      -0.358  10.631  19.247  0.00  0.00    +0.000 N 
ATOM     21  C   UNL     1       0.248  11.741  19.736  0.00  0.00    +0.000 A 
ATOM     22  N   UNL     1       1.070  12.502  19.054  0.00  0.00    +0.000 NA
ATOM     23  C   UNL     1       1.526  13.553  19.840  0.00  0.00    +0.000 A 
ATOM     24  C   UNL     1       1.059  13.544  21.139  0.00  0.00    +0.000 A 
ATOM     25  S   UNL     1      -0.011  12.226  21.367  0.00  0.00    +0.000 S 
ATOM     26  H   UNL     1      -0.771  10.033  19.956  0.00  0.00    +0.000 HD
BRANCH  23  27
ATOM     27  C   UNL     1       2.413  14.584  19.306  0.00  0.00    +0.000 A 
ATOM     28  C   UNL     1       2.901  14.483  18.006  0.00  0.00    +0.000 A 
ATOM     29  C   UNL     1       3.713  15.499  17.509  0.00  0.00    +0.000 A 
ATOM     30  C   UNL     1       4.017  16.583  18.323  0.00  0.00    +0.000 A 
ATOM     31  C   UNL     1       3.497  16.604  19.606  0.00  0.00    +0.000 A 
ATOM     32  N   UNL     1       2.704  15.636  20.117  0.00  0.00    +0.000 NA
ENDBRANCH  23  27
ENDBRANCH  19  20
ENDBRANCH  18  19
ENDBRANCH  17  18
ENDBRANCH   1  17
TORSDOF 10
ENDMDL
MODEL 8
REMARK VINA RESULT:      -7.3      5.861      9.794
REMARK  Name = 
REMARK  12 active torsions:
REMARK  status: ('A' for Active; 'I' for Inactive)
REMARK    1  A    between atoms: C_1  and  O_2
REMARK    2  A    between atoms: O_2  and  C_3
REMARK    3  A    between atoms: C_6  and  C_7
REMARK    4  A    between atoms: C_9  and  S_10
REMARK    5  A    between atoms: S_10  and  N_13
REMARK    6  A    between atoms: N_13  and  C_14
REMARK    7  A    between atoms: C_14  and  C_15
REMARK    8  A    between atoms: C_15  and  C_16
REMARK    9  A    between atoms: C_16  and  C_17
REMARK   10  A    between atoms: C_17  and  C_18
REMARK   11  A    between atoms: C_18  and  N_19
REMARK   12  A    between atoms: C_22  and  C_23
REMARK                            x       y       z     vdW  Elec       q    Type
REMARK                         _______ _______ _______ _____ _____    ______ ____
ROOT
ATOM      1  C   UNL     1       8.455  10.597  17.722  0.00  0.00    +0.000 C 
ENDROOT
BRANCH   1   2
ATOM      2  C   UNL     1       9.579  10.655  18.751  0.00  0.00    +0.000 C 
BRANCH   2   3
ATOM      3  N   UNL     1      10.539  11.697  18.392  0.00  0.00    +0.000 NA
ATOM      4  H   UNL     1      11.255  11.486  17.698  0.00  0.00    +0.000 HD
BRANCH   3   5
ATOM      5  S   UNL     1      11.185  12.612  19.656  0.00  0.00    +0.000 S 
ATOM      6  O   UNL     1      11.794  13.782  19.054  0.00  0.00    +0.000 OA
ATOM      7  O   UNL     1      11.950  11.717  20.497  0.00  0.00    +0.000 OA
BRANCH   5  14
ATOM      8  C   UNL     1       8.781  13.962  19.964  0.00  0.00    +0.000 A 
ATOM      9  C   UNL     1       7.658  14.321  20.718  0.00  0.00    +0.000 A 
ATOM     10  C   UNL     1       7.538  13.933  22.057  0.00  0.00    +0.000 A 
ATOM     11  C   UNL     1       8.536  13.174  22.671  0.00  0.00    +0.000 A 
ATOM     12  C   UNL     1       8.437  12.790  24.117  0.00  0.00    +0.000 C 
ATOM     13  C   UNL     1       9.641  12.774  21.912  0.00  0.00    +0.000 A 
ATOM     14  C   UNL     1       9.753  13.152  20.564  0.00  0.00    +0.000 A 
BRANCH   8  16
ATOM     15  C   UNL     1       7.803  14.708  17.931  0.00  0.00    +0.000 C 
ATOM     16  O   UNL     1       8.972  14.358  18.668  0.00  0.00    +0.000 OA
ENDBRANCH   8  16
ENDBRANCH   5  14
ENDBRANCH   3   5
ENDBRANCH   2   3
ENDBRANCH   1   2
BRANCH   1  17
ATOM     17  C   UNL     1       7.752   9.233  17.718  0.00  0.00    +0.000 C 
BRANCH  17  18
ATOM     18  C   UNL     1       8.464   8.133  18.513  0.00  0.00    +0.000 C 
BRANCH  18  19
ATOM     19  C   UNL     1       7.840   6.754  18.299  0.00  0.00    +0.000 C 
BRANCH  19  20
ATOM     20  N   UNL     1       7.579   6.536  16.885  0.00  0.00    +0.000 N 
ATOM     21  C   UNL     1       6.667   5.580  16.584  0.00  0.00    +0.000 A 
ATOM     22  N   UNL     1       5.667   5.234  17.359  0.00  0.00    +0.000 NA
ATOM     23  C   UNL     1       4.921   4.220  16.769  0.00  0.00    +0.000 A 
ATOM     24  C   UNL     1       5.404   3.786  15.551  0.00  0.00    +0.000 A 
ATOM     25  S   UNL     1       6.786   4.698  15.111  0.00  0.00    +0.000 S 
ATOM     26  H   UNL     1       8.408   6.523  16.300  0.00  0.00    +0.000 HD
BRANCH  23  27
ATOM     27  C   UNL     1       3.715   3.688  17.399  0.00  0.00    +0.000 A 
ATOM     28  C   UNL     1       2.601   4.504  17.580  0.00  0.00    +0.000 A 
ATOM     29  C   UNL     1       1.452   3.960  18.148  0.00  0.00    +0.000 A 
ATOM     30  C   UNL     1       1.448   2.622  18.522  0.00  0.00    +0.000 A 
ATOM     31  C   UNL     1       2.600   1.881  18.314  0.00  0.00    +0.000 A 
ATOM     32  N   UNL     1       3.729   2.379  17.763  0.00  0.00    +0.000 NA
ENDBRANCH  23  27
ENDBRANCH  19  20
ENDBRANCH  18  19
ENDBRANCH  17  18
ENDBRANCH   1  17
TORSDOF 10
ENDMDL
MODEL 9
REMARK VINA RESULT:      -7.2      5.951      8.120
REMARK  Name = 
REMARK  12 active torsions:
REMARK  status: ('A' for Active; 'I' for Inactive)
REMARK    1  A    between atoms: C_1  and  O_2
REMARK    2  A    between atoms: O_2  and  C_3
REMARK    3  A    between atoms: C_6  and  C_7
REMARK    4  A    between atoms: C_9  and  S_10
REMARK    5  A    between atoms: S_10  and  N_13
REMARK    6  A    between atoms: N_13  and  C_14
REMARK    7  A    between atoms: C_14  and  C_15
REMARK    8  A    between atoms: C_15  and  C_16
REMARK    9  A    between atoms: C_16  and  C_17
REMARK   10  A    between atoms: C_17  and  C_18
REMARK   11  A    between atoms: C_18  and  N_19
REMARK   12  A    between atoms: C_22  and  C_23
REMARK                            x       y       z     vdW  Elec       q    Type
REMARK                         _______ _______ _______ _____ _____    ______ ____
ROOT
ATOM      1  C   UNL     1       7.199   7.582  17.301  0.00  0.00    +0.000 C 
ENDROOT
BRANCH   1   2
ATOM      2  C   UNL     1       7.259   6.061  17.215  0.00  0.00    +0.000 C 
BRANCH   2   3
ATOM      3  N   UNL     1       5.961   5.527  16.803  0.00  0.00    +0.000 NA
ATOM      4  H   UNL     1       5.293   6.156  16.358  0.00  0.00    +0.000 HD
BRANCH   3   5
ATOM      5  S   UNL     1       5.180   4.493  17.885  0.00  0.00    +0.000 S 
ATOM      6  O   UNL     1       6.129   4.204  18.943  0.00  0.00    +0.000 OA
ATOM      7  O   UNL     1       4.571   3.432  17.113  0.00  0.00    +0.000 OA
BRANCH   5  14
ATOM      8  C   UNL     1       3.143   5.063  19.680  0.00  0.00    +0.000 A 
ATOM      9  C   UNL     1       2.165   5.918  20.202  0.00  0.00    +0.000 A 
ATOM     10  C   UNL     1       1.894   7.152  19.601  0.00  0.00    +0.000 A 
ATOM     11  C   UNL     1       2.597   7.561  18.466  0.00  0.00    +0.000 A 
ATOM     12  C   UNL     1       2.284   8.862  17.790  0.00  0.00    +0.000 C 
ATOM     13  C   UNL     1       3.605   6.733  17.964  0.00  0.00    +0.000 A 
ATOM     14  C   UNL     1       3.886   5.501  18.577  0.00  0.00    +0.000 A 
BRANCH   8  16
ATOM     15  C   UNL     1       2.406   2.830  20.019  0.00  0.00    +0.000 C 
ATOM     16  O   UNL     1       3.411   3.825  20.198  0.00  0.00    +0.000 OA
ENDBRANCH   8  16
ENDBRANCH   5  14
ENDBRANCH   3   5
ENDBRANCH   2   3
ENDBRANCH   1   2
BRANCH   1  17
ATOM     17  C   UNL     1       8.253   8.143  18.266  0.00  0.00    +0.000 C 
BRANCH  17  18
ATOM     18  C   UNL     1       8.508   9.650  18.144  0.00  0.00    +0.000 C 
BRANCH  18  19
ATOM     19  C   UNL     1       9.230  10.225  19.362  0.00  0.00    +0.000 C 
BRANCH  19  20
ATOM     20  N   UNL     1      10.415  10.956  18.943  0.00  0.00    +0.000 N 
ATOM     21  C   UNL     1      10.239  12.269  18.654  0.00  0.00    +0.000 A 
ATOM     22  N   UNL     1       9.316  13.032  19.190  0.00  0.00    +0.000 NA
ATOM     23  C   UNL     1       9.394  14.322  18.679  0.00  0.00    +0.000 A 
ATOM     24  C   UNL     1      10.371  14.502  17.720  0.00  0.00    +0.000 A 
ATOM     25  S   UNL     1      11.242  13.045  17.491  0.00  0.00    +0.000 S 
ATOM     26  H   UNL     1      11.008  10.458  18.286  0.00  0.00    +0.000 HD
BRANCH  23  27
ATOM     27  C   UNL     1       8.515  15.389  19.150  0.00  0.00    +0.000 A 
ATOM     28  C   UNL     1       8.131  15.441  20.487  0.00  0.00    +0.000 A 
ATOM     29  C   UNL     1       7.323  16.490  20.917  0.00  0.00    +0.000 A 
ATOM     30  C   UNL     1       6.920  17.454  20.001  0.00  0.00    +0.000 A 
ATOM     31  C   UNL     1       7.340  17.326  18.687  0.00  0.00    +0.000 A 
ATOM     32  N   UNL     1       8.126  16.321  18.240  0.00  0.00    +0.000 NA
ENDBRANCH  23  27
ENDBRANCH  19  20
ENDBRANCH  18  19
ENDBRANCH  17  18
ENDBRANCH   1  17
TORSDOF 10
ENDMDL
