MODEL 1
REMARK VINA RESULT:      -7.8      0.000      0.000
REMARK  Name = 
REMARK  10 active torsions:
REMARK  status: ('A' for Active; 'I' for Inactive)
REMARK    1  A    between atoms: C_1  and  C_2
REMARK    2  A    between atoms: C_2  and  O_3
REMARK    3  A    between atoms: O_3  and  N_4
REMARK    4  A    between atoms: N_9  and  C_10
REMARK    5  A    between atoms: C_13  and  N_14
REMARK    6  A    between atoms: N_17  and  C_18
REMARK    7  A    between atoms: C_21  and  N_22
REMARK    8  A    between atoms: N_27  and  O_28
REMARK    9  A    between atoms: O_28  and  C_29
REMARK   10  A    between atoms: C_29  and  C_30
REMARK                            x       y       z     vdW  Elec       q    Type
REMARK                         _______ _______ _______ _____ _____    ______ ____
ROOT
ATOM      1  N   UNL     1       1.520   8.162  21.224  0.00  0.00    +0.000 N 
ATOM      2  C   UNL     1       0.489   9.069  21.025  0.00  0.00    +0.000 C 
ATOM      3  O   UNL     1      -0.164   9.154  19.989  0.00  0.00    +0.000 OA
ATOM      4  N   UNL     1       0.288   9.901  22.117  0.00  0.00    +0.000 N 
ATOM      5  H   UNL     1       1.674   7.866  22.178  0.00  0.00    +0.000 HD
ATOM      6  H   UNL     1       1.122  10.130  22.639  0.00  0.00    +0.000 HD
ENDROOT
BRANCH   1  10
ATOM      7  C   UNL     1       3.143   5.703  18.142  0.00  0.00    +0.000 A 
ATOM      8  C   UNL     1       2.700   5.161  19.348  0.00  0.00    +0.000 A 
ATOM      9  C   UNL     1       2.101   5.953  20.327  0.00  0.00    +0.000 A 
ATOM     10  C   UNL     1       2.036   7.341  20.191  0.00  0.00    +0.000 A 
ATOM     11  C   UNL     1       2.508   7.910  19.005  0.00  0.00    +0.000 A 
ATOM     12  C   UNL     1       3.058   7.093  17.993  0.00  0.00    +0.000 A 
BRANCH   7  18
ATOM     13  N   UNL     1       5.719   4.039  16.072  0.00  0.00    +0.000 N 
ATOM     14  C   UNL     1       7.140   4.380  16.152  0.00  0.00    +0.000 C 
ATOM     15  C   UNL     1       7.288   4.676  17.646  0.00  0.00    +0.000 C 
ATOM     16  N   UNL     1       5.957   5.122  17.990  0.00  0.00    +0.000 N 
ATOM     17  C   UNL     1       4.999   4.725  17.064  0.00  0.00    +0.000 C 
ATOM     18  N   UNL     1       3.719   4.920  17.117  0.00  0.00    +0.000 NA
ATOM     19  H   UNL     1       5.679   5.248  18.957  0.00  0.00    +0.000 HD
BRANCH  13  20
ATOM     20  O   UNL     1       5.183   4.096  14.779  0.00  0.00    +0.000 OA
BRANCH  20  22
ATOM     21  C   UNL     1       5.820   3.462  12.538  0.00  0.00    +0.000 C 
ATOM     22  C   UNL     1       6.296   3.953  13.890  0.00  0.00    +0.000 C 
ENDBRANCH  20  22
ENDBRANCH  13  20
ENDBRANCH   7  18
ENDBRANCH   1  10
BRANCH   4  23
ATOM     23  C   UNL     1      -0.756  10.860  22.113  0.00  0.00    +0.000 A 
ATOM     24  C   UNL     1      -0.974  11.688  21.009  0.00  0.00    +0.000 A 
ATOM     25  C   UNL     1      -1.953  12.679  21.047  0.00  0.00    +0.000 A 
ATOM     26  C   UNL     1      -2.788  12.826  22.158  0.00  0.00    +0.000 A 
ATOM     27  C   UNL     1      -2.561  12.002  23.266  0.00  0.00    +0.000 A 
ATOM     28  C   UNL     1      -1.563  11.012  23.242  0.00  0.00    +0.000 A 
BRANCH  26  29
ATOM     29  N   UNL     1      -3.797  13.809  22.209  0.00  0.00    +0.000 NA
ATOM     30  C   UNL     1      -5.008  13.518  21.855  0.00  0.00    +0.000 C 
ATOM     31  N   UNL     1      -5.517  12.283  21.495  0.00  0.00    +0.000 N 
ATOM     32  C   UNL     1      -6.958  12.249  21.533  0.00  0.00    +0.000 C 
ATOM     33  C   UNL     1      -7.343  13.730  21.490  0.00  0.00    +0.000 C 
ATOM     34  N   UNL     1      -6.080  14.411  21.766  0.00  0.00    +0.000 N 
ATOM     35  H   UNL     1      -5.007  11.482  21.848  0.00  0.00    +0.000 HD
BRANCH  34  36
ATOM     36  O   UNL     1      -6.159  15.324  22.827  0.00  0.00    +0.000 OA
BRANCH  36  37
ATOM     37  C   UNL     1      -6.631  16.553  22.269  0.00  0.00    +0.000 C 
ATOM     38  C   UNL     1      -7.780  17.069  23.116  0.00  0.00    +0.000 C 
ENDBRANCH  36  37
ENDBRANCH  34  36
ENDBRANCH  26  29
ENDBRANCH   4  23
TORSDOF 8
ENDMDL
MODEL 2
REMARK VINA RESULT:      -7.6      1.080      1.211
REMARK  Name = 
REMARK  10 active torsions:
REMARK  status: ('A' for Active; 'I' for Inactive)
REMARK    1  A    between atoms: C_1  and  C_2
REMARK    2  A    between atoms: C_2  and  O_3
REMARK    3  A    between atoms: O_3  and  N_4
REMARK    4  A    between atoms: N_9  and  C_10
REMARK    5  A    between atoms: C_13  and  N_14
REMARK    6  A    between atoms: N_17  and  C_18
REMARK    7  A    between atoms: C_21  and  N_22
REMARK    8  A    between atoms: N_27  and  O_28
REMARK    9  A    between atoms: O_28  and  C_29
REMARK   10  A    between atoms: C_29  and  C_30
REMARK                            x       y       z     vdW  Elec       q    Type
REMARK                         _______ _______ _______ _____ _____    ______ ____
ROOT
ATOM      1  N   UNL     1       1.593   7.790  21.283  0.00  0.00    +0.000 N 
ATOM      2  C   UNL     1       0.780   8.900  21.113  0.00  0.00    +0.000 C 
ATOM      3  O   UNL     1       0.310   9.254  20.036  0.00  0.00    +0.000 OA
ATOM      4  N   UNL     1       0.573   9.599  22.295  0.00  0.00    +0.000 N 
ATOM      5  H   UNL     1       1.553   7.341  22.187  0.00  0.00    +0.000 HD
ATOM      6  H   UNL     1       1.349   9.585  22.941  0.00  0.00    +0.000 HD
ENDROOT
BRANCH   1  10
ATOM      7  C   UNL     1       3.189   5.520  18.045  0.00  0.00    +0.000 A 
ATOM      8  C   UNL     1       2.740   4.904  19.214  0.00  0.00    +0.000 A 
ATOM      9  C   UNL     1       2.150   5.638  20.243  0.00  0.00    +0.000 A 
ATOM     10  C   UNL     1       2.101   7.032  20.198  0.00  0.00    +0.000 A 
ATOM     11  C   UNL     1       2.579   7.672  19.051  0.00  0.00    +0.000 A 
ATOM     12  C   UNL     1       3.120   6.917  17.988  0.00  0.00    +0.000 A 
BRANCH   7  18
ATOM     13  N   UNL     1       5.749   4.009  15.841  0.00  0.00    +0.000 N 
ATOM     14  C   UNL     1       7.165   4.374  15.907  0.00  0.00    +0.000 C 
ATOM     15  C   UNL     1       7.340   4.599  17.411  0.00  0.00    +0.000 C 
ATOM     16  N   UNL     1       6.010   5.002  17.804  0.00  0.00    +0.000 N 
ATOM     17  C   UNL     1       5.038   4.631  16.882  0.00  0.00    +0.000 C 
ATOM     18  N   UNL     1       3.757   4.799  16.971  0.00  0.00    +0.000 NA
ATOM     19  H   UNL     1       5.751   5.075  18.782  0.00  0.00    +0.000 HD
BRANCH  13  20
ATOM     20  O   UNL     1       5.184   4.118  14.565  0.00  0.00    +0.000 OA
BRANCH  20  22
ATOM     21  C   UNL     1       5.716   3.326  12.347  0.00  0.00    +0.000 C 
ATOM     22  C   UNL     1       6.256   3.895  13.643  0.00  0.00    +0.000 C 
ENDBRANCH  20  22
ENDBRANCH  13  20
ENDBRANCH   7  18
ENDBRANCH   1  10
BRANCH   4  23
ATOM     23  C   UNL     1      -0.273  10.736  22.324  0.00  0.00    +0.000 A 
ATOM     24  C   UNL     1       0.020  11.876  21.572  0.00  0.00    +0.000 A 
ATOM     25  C   UNL     1      -0.776  13.015  21.669  0.00  0.00    +0.000 A 
ATOM     26  C   UNL     1      -1.926  13.025  22.463  0.00  0.00    +0.000 A 
ATOM     27  C   UNL     1      -2.212  11.886  23.223  0.00  0.00    +0.000 A 
ATOM     28  C   UNL     1      -1.403  10.739  23.145  0.00  0.00    +0.000 A 
BRANCH  26  29
ATOM     29  N   UNL     1      -2.756  14.161  22.561  0.00  0.00    +0.000 NA
ATOM     30  C   UNL     1      -3.807  14.266  21.811  0.00  0.00    +0.000 C 
ATOM     31  N   UNL     1      -4.324  13.329  20.933  0.00  0.00    +0.000 N 
ATOM     32  C   UNL     1      -5.686  13.618  20.560  0.00  0.00    +0.000 C 
ATOM     33  C   UNL     1      -5.837  15.101  20.910  0.00  0.00    +0.000 C 
ATOM     34  N   UNL     1      -4.661  15.370  21.734  0.00  0.00    +0.000 N 
ATOM     35  H   UNL     1      -4.071  12.367  21.124  0.00  0.00    +0.000 HD
BRANCH  34  36
ATOM     36  O   UNL     1      -4.969  15.947  22.974  0.00  0.00    +0.000 OA
BRANCH  36  37
ATOM     37  C   UNL     1      -4.824  17.360  22.809  0.00  0.00    +0.000 C 
ATOM     38  C   UNL     1      -3.415  17.760  23.204  0.00  0.00    +0.000 C 
ENDBRANCH  36  37
ENDBRANCH  34  36
ENDBRANCH  26  29
ENDBRANCH   4  23
TORSDOF 8
ENDMDL
MODEL 3
REMARK VINA RESULT:      -7.5      1.085      1.335
REMARK  Name = 
REMARK  10 active torsions:
REMARK  status: ('A' for Active; 'I' for Inactive)
REMARK    1  A    between atoms: C_1  and  C_2
REMARK    2  A    between atoms: C_2  and  O_3
REMARK    3  A    between atoms: O_3  and  N_4
REMARK    4  A    between atoms: N_9  and  C_10
REMARK    5  A    between atoms: C_13  and  N_14
REMARK    6  A    between atoms: N_17  and  C_18
REMARK    7  A    between atoms: C_21  and  N_22
REMARK    8  A    between atoms: N_27  and  O_28
REMARK    9  A    between atoms: O_28  and  C_29
REMARK   10  A    between atoms: C_29  and  C_30
REMARK                            x       y       z     vdW  Elec       q    Type
REMARK                         _______ _______ _______ _____ _____    ______ ____
ROOT
ATOM      1  N   UNL     1       1.568   7.559  21.306  0.00  0.00    +0.000 N 
ATOM      2  C   UNL     1       0.837   8.728  21.161  0.00  0.00    +0.000 C 
ATOM      3  O   UNL     1       0.455   9.175  20.083  0.00  0.00    +0.000 OA
ATOM      4  N   UNL     1       0.603   9.368  22.370  0.00  0.00    +0.000 N 
ATOM      5  H   UNL     1       1.445   7.062  22.177  0.00  0.00    +0.000 HD
ATOM      6  H   UNL     1       1.336   9.266  23.057  0.00  0.00    +0.000 HD
ENDROOT
BRANCH   1  10
ATOM      7  C   UNL     1       3.213   5.385  18.027  0.00  0.00    +0.000 A 
ATOM      8  C   UNL     1       2.669   4.733  19.134  0.00  0.00    +0.000 A 
ATOM      9  C   UNL     1       2.064   5.440  20.172  0.00  0.00    +0.000 A 
ATOM     10  C   UNL     1       2.092   6.835  20.206  0.00  0.00    +0.000 A 
ATOM     11  C   UNL     1       2.665   7.510  19.124  0.00  0.00    +0.000 A 
ATOM     12  C   UNL     1       3.221   6.785  18.048  0.00  0.00    +0.000 A 
BRANCH   7  18
ATOM     13  N   UNL     1       5.809   3.983  15.795  0.00  0.00    +0.000 N 
ATOM     14  C   UNL     1       7.213   4.393  15.857  0.00  0.00    +0.000 C 
ATOM     15  C   UNL     1       7.389   4.611  17.362  0.00  0.00    +0.000 C 
ATOM     16  N   UNL     1       6.048   4.964  17.766  0.00  0.00    +0.000 N 
ATOM     17  C   UNL     1       5.084   4.570  16.845  0.00  0.00    +0.000 C 
ATOM     18  N   UNL     1       3.798   4.694  16.943  0.00  0.00    +0.000 NA
ATOM     19  H   UNL     1       5.793   5.020  18.746  0.00  0.00    +0.000 HD
BRANCH  13  20
ATOM     20  O   UNL     1       5.234   4.084  14.523  0.00  0.00    +0.000 OA
BRANCH  20  22
ATOM     21  C   UNL     1       5.794   3.285  12.314  0.00  0.00    +0.000 C 
ATOM     22  C   UNL     1       6.309   3.913  13.593  0.00  0.00    +0.000 C 
ENDBRANCH  20  22
ENDBRANCH  13  20
ENDBRANCH   7  18
ENDBRANCH   1  10
BRANCH   4  23
ATOM     23  C   UNL     1      -0.171  10.555  22.423  0.00  0.00    +0.000 A 
ATOM     24  C   UNL     1      -1.368  10.606  23.142  0.00  0.00    +0.000 A 
ATOM     25  C   UNL     1      -2.159  11.753  23.123  0.00  0.00    +0.000 A 
ATOM     26  C   UNL     1      -1.745  12.903  22.446  0.00  0.00    +0.000 A 
ATOM     27  C   UNL     1      -0.552  12.846  21.718  0.00  0.00    +0.000 A 
ATOM     28  C   UNL     1       0.243  11.686  21.718  0.00  0.00    +0.000 A 
BRANCH  26  29
ATOM     29  N   UNL     1      -2.521  14.081  22.430  0.00  0.00    +0.000 NA
ATOM     30  C   UNL     1      -3.499  14.205  21.591  0.00  0.00    +0.000 C 
ATOM     31  N   UNL     1      -3.991  13.258  20.709  0.00  0.00    +0.000 N 
ATOM     32  C   UNL     1      -5.301  13.596  20.211  0.00  0.00    +0.000 C 
ATOM     33  C   UNL     1      -5.402  15.098  20.491  0.00  0.00    +0.000 C 
ATOM     34  N   UNL     1      -4.286  15.344  21.399  0.00  0.00    +0.000 N 
ATOM     35  H   UNL     1      -3.804  12.293  20.957  0.00  0.00    +0.000 HD
BRANCH  34  36
ATOM     36  O   UNL     1      -4.665  15.988  22.586  0.00  0.00    +0.000 OA
BRANCH  36  37
ATOM     37  C   UNL     1      -5.891  16.667  22.305  0.00  0.00    +0.000 C 
ATOM     38  C   UNL     1      -6.371  17.361  23.566  0.00  0.00    +0.000 C 
ENDBRANCH  36  37
ENDBRANCH  34  36
ENDBRANCH  26  29
ENDBRANCH   4  23
TORSDOF 8
ENDMDL
MODEL 4
REMARK VINA RESULT:      -7.2      1.833      2.680
REMARK  Name = 
REMARK  10 active torsions:
REMARK  status: ('A' for Active; 'I' for Inactive)
REMARK    1  A    between atoms: C_1  and  C_2
REMARK    2  A    between atoms: C_2  and  O_3
REMARK    3  A    between atoms: O_3  and  N_4
REMARK    4  A    between atoms: N_9  and  C_10
REMARK    5  A    between atoms: C_13  and  N_14
REMARK    6  A    between atoms: N_17  and  C_18
REMARK    7  A    between atoms: C_21  and  N_22
REMARK    8  A    between atoms: N_27  and  O_28
REMARK    9  A    between atoms: O_28  and  C_29
REMARK   10  A    between atoms: C_29  and  C_30
REMARK                            x       y       z     vdW  Elec       q    Type
REMARK                         _______ _______ _______ _____ _____    ______ ____
ROOT
ATOM      1  N   UNL     1       1.550   7.725  21.271  0.00  0.00    +0.000 N 
ATOM      2  C   UNL     1       0.855   8.911  21.090  0.00  0.00    +0.000 C 
ATOM      3  O   UNL     1       0.568   9.383  19.994  0.00  0.00    +0.000 OA
ATOM      4  N   UNL     1       0.538   9.536  22.288  0.00  0.00    +0.000 N 
ATOM      5  H   UNL     1       1.350   7.216  22.121  0.00  0.00    +0.000 HD
ATOM      6  H   UNL     1       1.213   9.408  23.029  0.00  0.00    +0.000 HD
ENDROOT
BRANCH   1  10
ATOM      7  C   UNL     1       3.274   5.552  18.032  0.00  0.00    +0.000 A 
ATOM      8  C   UNL     1       3.049   6.926  17.949  0.00  0.00    +0.000 A 
ATOM      9  C   UNL     1       2.555   7.651  19.033  0.00  0.00    +0.000 A 
ATOM     10  C   UNL     1       2.146   7.008  20.203  0.00  0.00    +0.000 A 
ATOM     11  C   UNL     1       2.329   5.626  20.295  0.00  0.00    +0.000 A 
ATOM     12  C   UNL     1       2.886   4.909  19.214  0.00  0.00    +0.000 A 
BRANCH   7  18
ATOM     13  N   UNL     1       5.766   3.977  15.797  0.00  0.00    +0.000 N 
ATOM     14  C   UNL     1       7.182   4.344  15.808  0.00  0.00    +0.000 C 
ATOM     15  C   UNL     1       7.405   4.616  17.297  0.00  0.00    +0.000 C 
ATOM     16  N   UNL     1       6.086   5.029  17.719  0.00  0.00    +0.000 N 
ATOM     17  C   UNL     1       5.087   4.630  16.839  0.00  0.00    +0.000 C 
ATOM     18  N   UNL     1       3.808   4.799  16.964  0.00  0.00    +0.000 NA
ATOM     19  H   UNL     1       5.859   5.133  18.702  0.00  0.00    +0.000 HD
BRANCH  13  20
ATOM     20  O   UNL     1       5.161   4.045  14.536  0.00  0.00    +0.000 OA
BRANCH  20  22
ATOM     21  C   UNL     1       5.637   3.391  12.261  0.00  0.00    +0.000 C 
ATOM     22  C   UNL     1       6.214   3.846  13.587  0.00  0.00    +0.000 C 
ENDBRANCH  20  22
ENDBRANCH  13  20
ENDBRANCH   7  18
ENDBRANCH   1  10
BRANCH   4  23
ATOM     23  C   UNL     1      -0.215  10.737  22.301  0.00  0.00    +0.000 A 
ATOM     24  C   UNL     1      -1.376  10.854  23.071  0.00  0.00    +0.000 A 
ATOM     25  C   UNL     1      -2.149  12.012  23.015  0.00  0.00    +0.000 A 
ATOM     26  C   UNL     1      -1.752  13.109  22.247  0.00  0.00    +0.000 A 
ATOM     27  C   UNL     1      -0.596  12.985  21.470  0.00  0.00    +0.000 A 
ATOM     28  C   UNL     1       0.181  11.814  21.506  0.00  0.00    +0.000 A 
BRANCH  26  29
ATOM     29  N   UNL     1      -2.511  14.297  22.192  0.00  0.00    +0.000 NA
ATOM     30  C   UNL     1      -2.369  15.203  23.105  0.00  0.00    +0.000 C 
ATOM     31  N   UNL     1      -1.460  15.227  24.149  0.00  0.00    +0.000 N 
ATOM     32  C   UNL     1      -1.325  16.538  24.732  0.00  0.00    +0.000 C 
ATOM     33  C   UNL     1      -2.597  17.256  24.273  0.00  0.00    +0.000 C 
ATOM     34  N   UNL     1      -3.117  16.377  23.229  0.00  0.00    +0.000 N 
ATOM     35  H   UNL     1      -0.622  14.673  24.009  0.00  0.00    +0.000 HD
BRANCH  34  36
ATOM     36  O   UNL     1      -3.358  17.037  22.015  0.00  0.00    +0.000 OA
BRANCH  36  37
ATOM     37  C   UNL     1      -4.778  17.091  21.858  0.00  0.00    +0.000 C 
ATOM     38  C   UNL     1      -5.121  16.874  20.396  0.00  0.00    +0.000 C 
ENDBRANCH  36  37
ENDBRANCH  34  36
ENDBRANCH  26  29
ENDBRANCH   4  23
TORSDOF 8
ENDMDL
MODEL 5
REMARK VINA RESULT:      -7.2      2.718      3.705
REMARK  Name = 
REMARK  10 active torsions:
REMARK  status: ('A' for Active; 'I' for Inactive)
REMARK    1  A    between atoms: C_1  and  C_2
REMARK    2  A    between atoms: C_2  and  O_3
REMARK    3  A    between atoms: O_3  and  N_4
REMARK    4  A    between atoms: N_9  and  C_10
REMARK    5  A    between atoms: C_13  and  N_14
REMARK    6  A    between atoms: N_17  and  C_18
REMARK    7  A    between atoms: C_21  and  N_22
REMARK    8  A    between atoms: N_27  and  O_28
REMARK    9  A    between atoms: O_28  and  C_29
REMARK   10  A    between atoms: C_29  and  C_30
REMARK                            x       y       z     vdW  Elec       q    Type
REMARK                         _______ _______ _______ _____ _____    ______ ____
ROOT
ATOM      1  N   UNL     1       0.776  10.369  18.516  0.00  0.00    +0.000 N 
ATOM      2  C   UNL     1      -0.424  10.682  19.136  0.00  0.00    +0.000 C 
ATOM      3  O   UNL     1      -0.920  10.029  20.050  0.00  0.00    +0.000 OA
ATOM      4  N   UNL     1      -1.033  11.804  18.592  0.00  0.00    +0.000 N 
ATOM      5  H   UNL     1       1.296  11.147  18.135  0.00  0.00    +0.000 HD
ATOM      6  H   UNL     1      -0.881  11.935  17.602  0.00  0.00    +0.000 HD
ENDROOT
BRANCH   1  10
ATOM      7  C   UNL     1       2.844   6.713  19.250  0.00  0.00    +0.000 A 
ATOM      8  C   UNL     1       2.885   7.335  18.002  0.00  0.00    +0.000 A 
ATOM      9  C   UNL     1       2.271   8.568  17.782  0.00  0.00    +0.000 A 
ATOM     10  C   UNL     1       1.484   9.167  18.766  0.00  0.00    +0.000 A 
ATOM     11  C   UNL     1       1.399   8.542  20.013  0.00  0.00    +0.000 A 
ATOM     12  C   UNL     1       2.073   7.324  20.247  0.00  0.00    +0.000 A 
BRANCH   7  18
ATOM     13  N   UNL     1       3.815   3.158  18.917  0.00  0.00    +0.000 N 
ATOM     14  C   UNL     1       3.076   2.211  18.082  0.00  0.00    +0.000 C 
ATOM     15  C   UNL     1       2.662   3.109  16.914  0.00  0.00    +0.000 C 
ATOM     16  N   UNL     1       2.598   4.405  17.549  0.00  0.00    +0.000 N 
ATOM     17  C   UNL     1       3.309   4.457  18.743  0.00  0.00    +0.000 C 
ATOM     18  N   UNL     1       3.487   5.484  19.513  0.00  0.00    +0.000 NA
ATOM     19  H   UNL     1       2.501   5.253  17.002  0.00  0.00    +0.000 HD
BRANCH  13  20
ATOM     20  O   UNL     1       3.992   2.744  20.243  0.00  0.00    +0.000 OA
BRANCH  20  22
ATOM     21  C   UNL     1       2.222   2.980  21.869  0.00  0.00    +0.000 C 
ATOM     22  C   UNL     1       2.726   2.219  20.659  0.00  0.00    +0.000 C 
ENDBRANCH  20  22
ENDBRANCH  13  20
ENDBRANCH   7  18
ENDBRANCH   1  10
BRANCH   4  23
ATOM     23  C   UNL     1      -2.246  12.302  19.131  0.00  0.00    +0.000 A 
ATOM     24  C   UNL     1      -2.246  13.274  20.135  0.00  0.00    +0.000 A 
ATOM     25  C   UNL     1      -3.442  13.699  20.710  0.00  0.00    +0.000 A 
ATOM     26  C   UNL     1      -4.673  13.221  20.255  0.00  0.00    +0.000 A 
ATOM     27  C   UNL     1      -4.670  12.240  19.256  0.00  0.00    +0.000 A 
ATOM     28  C   UNL     1      -3.466  11.793  18.683  0.00  0.00    +0.000 A 
BRANCH  26  29
ATOM     29  N   UNL     1      -5.895  13.652  20.810  0.00  0.00    +0.000 NA
ATOM     30  C   UNL     1      -6.259  13.239  21.982  0.00  0.00    +0.000 C 
ATOM     31  N   UNL     1      -5.542  12.457  22.871  0.00  0.00    +0.000 N 
ATOM     32  C   UNL     1      -6.081  12.507  24.207  0.00  0.00    +0.000 C 
ATOM     33  C   UNL     1      -7.506  13.023  23.989  0.00  0.00    +0.000 C 
ATOM     34  N   UNL     1      -7.478  13.506  22.611  0.00  0.00    +0.000 N 
ATOM     35  H   UNL     1      -4.535  12.478  22.756  0.00  0.00    +0.000 HD
BRANCH  34  36
ATOM     36  O   UNL     1      -7.917  14.832  22.477  0.00  0.00    +0.000 OA
BRANCH  36  37
ATOM     37  C   UNL     1      -7.324  15.565  23.552  0.00  0.00    +0.000 C 
ATOM     38  C   UNL     1      -6.678  16.820  22.995  0.00  0.00    +0.000 C 
ENDBRANCH  36  37
ENDBRANCH  34  36
ENDBRANCH  26  29
ENDBRANCH   4  23
TORSDOF 8
ENDMDL
MODEL 6
REMARK VINA RESULT:      -6.9      1.837      2.386
REMARK  Name = 
REMARK  10 active torsions:
REMARK  status: ('A' for Active; 'I' for Inactive)
REMARK    1  A    between atoms: C_1  and  C_2
REMARK    2  A    between atoms: C_2  and  O_3
REMARK    3  A    between atoms: O_3  and  N_4
REMARK    4  A    between atoms: N_9  and  C_10
REMARK    5  A    between atoms: C_13  and  N_14
REMARK    6  A    between atoms: N_17  and  C_18
REMARK    7  A    between atoms: C_21  and  N_22
REMARK    8  A    between atoms: N_27  and  O_28
REMARK    9  A    between atoms: O_28  and  C_29
REMARK   10  A    between atoms: C_29  and  C_30
REMARK                            x       y       z     vdW  Elec       q    Type
REMARK                         _______ _______ _______ _____ _____    ______ ____
ROOT
ATOM      1  N   UNL     1       2.378   6.395  20.611  0.00  0.00    +0.000 N 
ATOM      2  C   UNL     1       1.739   7.623  20.531  0.00  0.00    +0.000 C 
ATOM      3  O   UNL     1       1.498   8.209  19.479  0.00  0.00    +0.000 OA
ATOM      4  N   UNL     1       1.422   8.146  21.777  0.00  0.00    +0.000 N 
ATOM      5  H   UNL     1       2.136   5.818  21.405  0.00  0.00    +0.000 HD
ATOM      6  H   UNL     1       2.073   7.918  22.514  0.00  0.00    +0.000 HD
ENDROOT
BRANCH   1  10
ATOM      7  C   UNL     1       4.156   4.411  17.282  0.00  0.00    +0.000 A 
ATOM      8  C   UNL     1       2.773   4.431  17.464  0.00  0.00    +0.000 A 
ATOM      9  C   UNL     1       2.186   5.142  18.510  0.00  0.00    +0.000 A 
ATOM     10  C   UNL     1       2.966   5.756  19.491  0.00  0.00    +0.000 A 
ATOM     11  C   UNL     1       4.356   5.716  19.349  0.00  0.00    +0.000 A 
ATOM     12  C   UNL     1       4.940   5.046  18.253  0.00  0.00    +0.000 A 
BRANCH   7  18
ATOM     13  N   UNL     1       6.374   3.775  14.390  0.00  0.00    +0.000 N 
ATOM     14  C   UNL     1       7.069   4.846  13.675  0.00  0.00    +0.000 C 
ATOM     15  C   UNL     1       7.396   5.802  14.824  0.00  0.00    +0.000 C 
ATOM     16  N   UNL     1       6.328   5.519  15.755  0.00  0.00    +0.000 N 
ATOM     17  C   UNL     1       5.721   4.291  15.522  0.00  0.00    +0.000 C 
ATOM     18  N   UNL     1       4.776   3.731  16.211  0.00  0.00    +0.000 NA
ATOM     19  H   UNL     1       6.347   5.882  16.701  0.00  0.00    +0.000 HD
BRANCH  13  20
ATOM     20  O   UNL     1       5.608   2.936  13.571  0.00  0.00    +0.000 OA
BRANCH  20  22
ATOM     21  C   UNL     1       4.476   3.261  11.463  0.00  0.00    +0.000 C 
ATOM     22  C   UNL     1       5.764   3.441  12.241  0.00  0.00    +0.000 C 
ENDBRANCH  20  22
ENDBRANCH  13  20
ENDBRANCH   7  18
ENDBRANCH   1  10
BRANCH   4  23
ATOM     23  C   UNL     1       0.721   9.373  21.890  0.00  0.00    +0.000 A 
ATOM     24  C   UNL     1       1.040  10.465  21.080  0.00  0.00    +0.000 A 
ATOM     25  C   UNL     1       0.397  11.689  21.254  0.00  0.00    +0.000 A 
ATOM     26  C   UNL     1      -0.629  11.839  22.191  0.00  0.00    +0.000 A 
ATOM     27  C   UNL     1      -0.939  10.746  23.008  0.00  0.00    +0.000 A 
ATOM     28  C   UNL     1      -0.282   9.513  22.851  0.00  0.00    +0.000 A 
BRANCH  26  29
ATOM     29  N   UNL     1      -1.305  13.063  22.369  0.00  0.00    +0.000 NA
ATOM     30  C   UNL     1      -2.344  13.345  21.649  0.00  0.00    +0.000 C 
ATOM     31  N   UNL     1      -2.989  12.535  20.731  0.00  0.00    +0.000 N 
ATOM     32  C   UNL     1      -4.308  13.015  20.403  0.00  0.00    +0.000 C 
ATOM     33  C   UNL     1      -4.262  14.482  20.840  0.00  0.00    +0.000 C 
ATOM     34  N   UNL     1      -3.050  14.551  21.652  0.00  0.00    +0.000 N 
ATOM     35  H   UNL     1      -2.858  11.538  20.862  0.00  0.00    +0.000 HD
BRANCH  34  36
ATOM     36  O   UNL     1      -3.265  15.089  22.929  0.00  0.00    +0.000 OA
BRANCH  36  37
ATOM     37  C   UNL     1      -4.606  14.753  23.289  0.00  0.00    +0.000 C 
ATOM     38  C   UNL     1      -5.223  15.921  24.036  0.00  0.00    +0.000 C 
ENDBRANCH  36  37
ENDBRANCH  34  36
ENDBRANCH  26  29
ENDBRANCH   4  23
TORSDOF 8
ENDMDL
MODEL 7
REMARK VINA RESULT:      -6.9      1.283      1.739
REMARK  Name = 
REMARK  10 active torsions:
REMARK  status: ('A' for Active; 'I' for Inactive)
REMARK    1  A    between atoms: C_1  and  C_2
REMARK    2  A    between atoms: C_2  and  O_3
REMARK    3  A    between atoms: O_3  and  N_4
REMARK    4  A    between atoms: N_9  and  C_10
REMARK    5  A    between atoms: C_13  and  N_14
REMARK    6  A    between atoms: N_17  and  C_18
REMARK    7  A    between atoms: C_21  and  N_22
REMARK    8  A    between atoms: N_27  and  O_28
REMARK    9  A    between atoms: O_28  and  C_29
REMARK   10  A    between atoms: C_29  and  C_30
REMARK                            x       y       z     vdW  Elec       q    Type
REMARK                         _______ _______ _______ _____ _____    ______ ____
ROOT
ATOM      1  N   UNL     1       1.033   8.811  21.437  0.00  0.00    +0.000 N 
ATOM      2  C   UNL     1       0.095   9.777  21.106  0.00  0.00    +0.000 C 
ATOM      3  O   UNL     1      -0.399   9.906  19.990  0.00  0.00    +0.000 OA
ATOM      4  N   UNL     1      -0.209  10.616  22.169  0.00  0.00    +0.000 N 
ATOM      5  H   UNL     1       1.035   8.502  22.399  0.00  0.00    +0.000 HD
ATOM      6  H   UNL     1       0.555  10.794  22.805  0.00  0.00    +0.000 HD
ENDROOT
BRANCH   1  10
ATOM      7  C   UNL     1       2.796   6.246  18.522  0.00  0.00    +0.000 A 
ATOM      8  C   UNL     1       2.596   7.604  18.271  0.00  0.00    +0.000 A 
ATOM      9  C   UNL     1       2.089   8.458  19.250  0.00  0.00    +0.000 A 
ATOM     10  C   UNL     1       1.642   7.965  20.476  0.00  0.00    +0.000 A 
ATOM     11  C   UNL     1       1.798   6.600  20.734  0.00  0.00    +0.000 A 
ATOM     12  C   UNL     1       2.369   5.753  19.761  0.00  0.00    +0.000 A 
BRANCH   7  18
ATOM     13  N   UNL     1       5.302   4.276  16.644  0.00  0.00    +0.000 N 
ATOM     14  C   UNL     1       6.742   4.511  16.759  0.00  0.00    +0.000 C 
ATOM     15  C   UNL     1       6.862   4.880  18.239  0.00  0.00    +0.000 C 
ATOM     16  N   UNL     1       5.560   5.444  18.508  0.00  0.00    +0.000 N 
ATOM     17  C   UNL     1       4.605   5.069  17.570  0.00  0.00    +0.000 C 
ATOM     18  N   UNL     1       3.343   5.364  17.564  0.00  0.00    +0.000 NA
ATOM     19  H   UNL     1       5.260   5.646  19.455  0.00  0.00    +0.000 HD
BRANCH  13  20
ATOM     20  O   UNL     1       4.816   4.299  15.331  0.00  0.00    +0.000 OA
BRANCH  20  22
ATOM     21  C   UNL     1       5.900   3.713  13.254  0.00  0.00    +0.000 C 
ATOM     22  C   UNL     1       5.950   4.574  14.500  0.00  0.00    +0.000 C 
ENDBRANCH  20  22
ENDBRANCH  13  20
ENDBRANCH   7  18
ENDBRANCH   1  10
BRANCH   4  23
ATOM     23  C   UNL     1      -1.185  11.635  22.030  0.00  0.00    +0.000 A 
ATOM     24  C   UNL     1      -2.322  11.662  22.841  0.00  0.00    +0.000 A 
ATOM     25  C   UNL     1      -3.312  12.623  22.643  0.00  0.00    +0.000 A 
ATOM     26  C   UNL     1      -3.163  13.625  21.682  0.00  0.00    +0.000 A 
ATOM     27  C   UNL     1      -2.027  13.590  20.865  0.00  0.00    +0.000 A 
ATOM     28  C   UNL     1      -1.033  12.613  21.045  0.00  0.00    +0.000 A 
BRANCH  26  29
ATOM     29  N   UNL     1      -4.143  14.618  21.478  0.00  0.00    +0.000 NA
ATOM     30  C   UNL     1      -4.970  14.524  20.487  0.00  0.00    +0.000 C 
ATOM     31  N   UNL     1      -5.107  13.480  19.588  0.00  0.00    +0.000 N 
ATOM     32  C   UNL     1      -6.355  13.533  18.869  0.00  0.00    +0.000 C 
ATOM     33  C   UNL     1      -6.799  14.988  19.049  0.00  0.00    +0.000 C 
ATOM     34  N   UNL     1      -5.924  15.474  20.112  0.00  0.00    +0.000 N 
ATOM     35  H   UNL     1      -4.777  12.579  19.914  0.00  0.00    +0.000 HD
BRANCH  34  36
ATOM     36  O   UNL     1      -6.618  16.049  21.186  0.00  0.00    +0.000 OA
BRANCH  36  37
ATOM     37  C   UNL     1      -6.383  17.457  21.113  0.00  0.00    +0.000 C 
ATOM     38  C   UNL     1      -5.832  17.934  22.444  0.00  0.00    +0.000 C 
ENDBRANCH  36  37
ENDBRANCH  34  36
ENDBRANCH  26  29
ENDBRANCH   4  23
TORSDOF 8
ENDMDL
MODEL 8
REMARK VINA RESULT:      -6.9      1.531      2.037
REMARK  Name = 
REMARK  10 active torsions:
REMARK  status: ('A' for Active; 'I' for Inactive)
REMARK    1  A    between atoms: C_1  and  C_2
REMARK    2  A    between atoms: C_2  and  O_3
REMARK    3  A    between atoms: O_3  and  N_4
REMARK    4  A    between atoms: N_9  and  C_10
REMARK    5  A    between atoms: C_13  and  N_14
REMARK    6  A    between atoms: N_17  and  C_18
REMARK    7  A    between atoms: C_21  and  N_22
REMARK    8  A    between atoms: N_27  and  O_28
REMARK    9  A    between atoms: O_28  and  C_29
REMARK   10  A    between atoms: C_29  and  C_30
REMARK                            x       y       z     vdW  Elec       q    Type
REMARK                         _______ _______ _______ _____ _____    ______ ____
ROOT
ATOM      1  N   UNL     1       1.866   7.005  21.039  0.00  0.00    +0.000 N 
ATOM      2  C   UNL     1       1.245   8.241  20.937  0.00  0.00    +0.000 C 
ATOM      3  O   UNL     1       0.993   8.801  19.875  0.00  0.00    +0.000 OA
ATOM      4  N   UNL     1       0.963   8.803  22.175  0.00  0.00    +0.000 N 
ATOM      5  H   UNL     1       1.631   6.454  21.853  0.00  0.00    +0.000 HD
ATOM      6  H   UNL     1       1.626   8.584  22.905  0.00  0.00    +0.000 HD
ENDROOT
BRANCH   1  10
ATOM      7  C   UNL     1       3.468   4.966  17.654  0.00  0.00    +0.000 A 
ATOM      8  C   UNL     1       3.597   6.348  17.800  0.00  0.00    +0.000 A 
ATOM      9  C   UNL     1       3.140   7.005  18.942  0.00  0.00    +0.000 A 
ATOM     10  C   UNL     1       2.420   6.325  19.925  0.00  0.00    +0.000 A 
ATOM     11  C   UNL     1       2.247   4.946  19.781  0.00  0.00    +0.000 A 
ATOM     12  C   UNL     1       2.767   4.278  18.651  0.00  0.00    +0.000 A 
BRANCH   7  18
ATOM     13  N   UNL     1       5.736   3.935  14.918  0.00  0.00    +0.000 N 
ATOM     14  C   UNL     1       6.901   4.724  14.517  0.00  0.00    +0.000 C 
ATOM     15  C   UNL     1       7.367   5.269  15.869  0.00  0.00    +0.000 C 
ATOM     16  N   UNL     1       6.128   5.308  16.612  0.00  0.00    +0.000 N 
ATOM     17  C   UNL     1       5.145   4.490  16.066  0.00  0.00    +0.000 C 
ATOM     18  N   UNL     1       3.955   4.268  16.527  0.00  0.00    +0.000 NA
ATOM     19  H   UNL     1       6.121   5.479  17.611  0.00  0.00    +0.000 HD
BRANCH  13  20
ATOM     20  O   UNL     1       4.861   3.623  13.871  0.00  0.00    +0.000 OA
BRANCH  20  22
ATOM     21  C   UNL     1       4.823   3.134  11.506  0.00  0.00    +0.000 C 
ATOM     22  C   UNL     1       5.682   3.477  12.707  0.00  0.00    +0.000 C 
ENDBRANCH  20  22
ENDBRANCH  13  20
ENDBRANCH   7  18
ENDBRANCH   1  10
BRANCH   4  23
ATOM     23  C   UNL     1       0.285  10.044  22.268  0.00  0.00    +0.000 A 
ATOM     24  C   UNL     1      -0.791  10.217  23.142  0.00  0.00    +0.000 A 
ATOM     25  C   UNL     1      -1.498  11.417  23.168  0.00  0.00    +0.000 A 
ATOM     26  C   UNL     1      -1.110  12.501  22.377  0.00  0.00    +0.000 A 
ATOM     27  C   UNL     1      -0.038  12.323  21.495  0.00  0.00    +0.000 A 
ATOM     28  C   UNL     1       0.669  11.108  21.450  0.00  0.00    +0.000 A 
BRANCH  26  29
ATOM     29  N   UNL     1      -1.800  13.731  22.402  0.00  0.00    +0.000 NA
ATOM     30  C   UNL     1      -2.857  13.899  21.674  0.00  0.00    +0.000 C 
ATOM     31  N   UNL     1      -3.509  12.965  20.889  0.00  0.00    +0.000 N 
ATOM     32  C   UNL     1      -4.841  13.381  20.528  0.00  0.00    +0.000 C 
ATOM     33  C   UNL     1      -4.807  14.895  20.760  0.00  0.00    +0.000 C 
ATOM     34  N   UNL     1      -3.580  15.087  21.528  0.00  0.00    +0.000 N 
ATOM     35  H   UNL     1      -3.362  11.997  21.152  0.00  0.00    +0.000 HD
BRANCH  34  36
ATOM     36  O   UNL     1      -3.776  15.792  22.724  0.00  0.00    +0.000 OA
BRANCH  36  37
ATOM     37  C   UNL     1      -5.036  15.362  23.246  0.00  0.00    +0.000 C 
ATOM     38  C   UNL     1      -5.450  16.297  24.367  0.00  0.00    +0.000 C 
ENDBRANCH  36  37
ENDBRANCH  34  36
ENDBRANCH  26  29
ENDBRANCH   4  23
TORSDOF 8
ENDMDL
MODEL 9
REMARK VINA RESULT:      -6.8      2.723      3.558
REMARK  Name = 
REMARK  10 active torsions:
REMARK  status: ('A' for Active; 'I' for Inactive)
REMARK    1  A    between atoms: C_1  and  C_2
REMARK    2  A    between atoms: C_2  and  O_3
REMARK    3  A    between atoms: O_3  and  N_4
REMARK    4  A    between atoms: N_9  and  C_10
REMARK    5  A    between atoms: C_13  and  N_14
REMARK    6  A    between atoms: N_17  and  C_18
REMARK    7  A    between atoms: C_21  and  N_22
REMARK    8  A    between atoms: N_27  and  O_28
REMARK    9  A    between atoms: O_28  and  C_29
REMARK   10  A    between atoms: C_29  and  C_30
REMARK                            x       y       z     vdW  Elec       q    Type
REMARK                         _______ _______ _______ _____ _____    ______ ____
ROOT
ATOM      1  N   UNL     1       1.515   9.567  18.107  0.00  0.00    +0.000 N 
ATOM      2  C   UNL     1       0.404  10.002  18.815  0.00  0.00    +0.000 C 
ATOM      3  O   UNL     1      -0.016   9.467  19.836  0.00  0.00    +0.000 OA
ATOM      4  N   UNL     1      -0.211  11.098  18.227  0.00  0.00    +0.000 N 
ATOM      5  H   UNL     1       2.023  10.276  17.597  0.00  0.00    +0.000 HD
ATOM      6  H   UNL     1      -0.163  11.126  17.219  0.00  0.00    +0.000 HD
ENDROOT
BRANCH   1  10
ATOM      7  C   UNL     1       3.608   5.967  19.022  0.00  0.00    +0.000 A 
ATOM      8  C   UNL     1       2.635   6.481  19.879  0.00  0.00    +0.000 A 
ATOM      9  C   UNL     1       1.897   7.617  19.546  0.00  0.00    +0.000 A 
ATOM     10  C   UNL     1       2.192   8.357  18.401  0.00  0.00    +0.000 A 
ATOM     11  C   UNL     1       3.189   7.880  17.545  0.00  0.00    +0.000 A 
ATOM     12  C   UNL     1       3.889   6.696  17.860  0.00  0.00    +0.000 A 
BRANCH   7  18
ATOM     13  N   UNL     1       4.547   2.390  19.139  0.00  0.00    +0.000 N 
ATOM     14  C   UNL     1       3.614   1.316  18.796  0.00  0.00    +0.000 C 
ATOM     15  C   UNL     1       2.820   1.966  17.661  0.00  0.00    +0.000 C 
ATOM     16  N   UNL     1       2.916   3.367  18.001  0.00  0.00    +0.000 N 
ATOM     17  C   UNL     1       3.966   3.641  18.870  0.00  0.00    +0.000 C 
ATOM     18  N   UNL     1       4.344   4.798  19.315  0.00  0.00    +0.000 NA
ATOM     19  H   UNL     1       2.621   4.086  17.351  0.00  0.00    +0.000 HD
BRANCH  13  20
ATOM     20  O   UNL     1       5.149   2.253  20.395  0.00  0.00    +0.000 OA
BRANCH  20  22
ATOM     21  C   UNL     1       5.901   0.569  21.954  0.00  0.00    +0.000 C 
ATOM     22  C   UNL     1       5.099   0.855  20.701  0.00  0.00    +0.000 C 
ENDBRANCH  20  22
ENDBRANCH  13  20
ENDBRANCH   7  18
ENDBRANCH   1  10
BRANCH   4  23
ATOM     23  C   UNL     1      -1.335  11.711  18.837  0.00  0.00    +0.000 A 
ATOM     24  C   UNL     1      -1.186  12.576  19.924  0.00  0.00    +0.000 A 
ATOM     25  C   UNL     1      -2.303  13.110  20.564  0.00  0.00    +0.000 A 
ATOM     26  C   UNL     1      -3.594  12.855  20.095  0.00  0.00    +0.000 A 
ATOM     27  C   UNL     1      -3.741  11.981  19.012  0.00  0.00    +0.000 A 
ATOM     28  C   UNL     1      -2.620  11.423  18.373  0.00  0.00    +0.000 A 
BRANCH  26  29
ATOM     29  N   UNL     1      -4.736  13.401  20.716  0.00  0.00    +0.000 NA
ATOM     30  C   UNL     1      -5.004  13.118  21.950  0.00  0.00    +0.000 C 
ATOM     31  N   UNL     1      -4.242  12.383  22.841  0.00  0.00    +0.000 N 
ATOM     32  C   UNL     1      -4.646  12.585  24.210  0.00  0.00    +0.000 C 
ATOM     33  C   UNL     1      -6.061  13.155  24.074  0.00  0.00    +0.000 C 
ATOM     34  N   UNL     1      -6.144  13.508  22.660  0.00  0.00    +0.000 N 
ATOM     35  H   UNL     1      -3.251  12.339  22.633  0.00  0.00    +0.000 HD
BRANCH  34  36
ATOM     36  O   UNL     1      -6.533  14.837  22.439  0.00  0.00    +0.000 OA
BRANCH  36  37
ATOM     37  C   UNL     1      -6.656  15.442  23.728  0.00  0.00    +0.000 C 
ATOM     38  C   UNL     1      -6.391  16.931  23.601  0.00  0.00    +0.000 C 
ENDBRANCH  36  37
ENDBRANCH  34  36
ENDBRANCH  26  29
ENDBRANCH   4  23
TORSDOF 8
ENDMDL
