MODEL 1
REMARK VINA RESULT:      -6.9      0.000      0.000
REMARK  Name = 
REMARK  8 active torsions:
REMARK  status: ('A' for Active; 'I' for Inactive)
REMARK    1  A    between atoms: C_1  and  O_2
REMARK    2  A    between atoms: O_2  and  C_3
REMARK    3  A    between atoms: N_6  and  C_7
REMARK    4  A    between atoms: C_13  and  C_14
REMARK    5  A    between atoms: C_14  and  N_15
REMARK    6  A    between atoms: N_15  and  C_16
REMARK    7  A    between atoms: N_15  and  S_17
REMARK    8  A    between atoms: S_17  and  C_18
REMARK                            x       y       z     vdW  Elec       q    Type
REMARK                         _______ _______ _______ _____ _____    ______ ____
ROOT
ATOM      1  C   UNL     1       3.824   6.977  18.031  0.00  0.00    +0.000 A 
ATOM      2  C   UNL     1       3.369   8.190  17.472  0.00  0.00    +0.000 A 
ATOM      3  C   UNL     1       2.283   8.890  18.005  0.00  0.00    +0.000 A 
ATOM      4  C   UNL     1       1.639   8.399  19.121  0.00  0.00    +0.000 A 
ATOM      5  F   UNL     1       0.587   9.062  19.622  0.00  0.00    +0.000 F 
ATOM      6  C   UNL     1       2.064   7.223  19.716  0.00  0.00    +0.000 A 
ATOM      7  C   UNL     1       3.152   6.493  19.186  0.00  0.00    +0.000 A 
ENDROOT
BRANCH   1  11
ATOM      8  C   UNL     1       6.943   4.552  16.500  0.00  0.00    +0.000 C 
ATOM      9  C   UNL     1       5.462   4.163  16.362  0.00  0.00    +0.000 C 
ATOM     10  C   UNL     1       4.518   5.358  16.290  0.00  0.00    +0.000 C 
ATOM     11  N   UNL     1       4.840   6.247  17.415  0.00  0.00    +0.000 N 
ATOM     12  C   UNL     1       6.148   6.884  17.217  0.00  0.00    +0.000 C 
ATOM     13  C   UNL     1       7.204   5.789  17.376  0.00  0.00    +0.000 C 
BRANCH   8  15
ATOM     14  C   UNL     1       6.776   4.243  14.145  0.00  0.00    +0.000 C 
ATOM     15  O   UNL     1       7.547   4.778  15.220  0.00  0.00    +0.000 OA
ENDBRANCH   8  15
ENDBRANCH   1  11
BRANCH   7  16
ATOM     16  C   UNL     1       3.528   5.214  19.914  0.00  0.00    +0.000 C 
BRANCH  16  17
ATOM     17  N   UNL     1       3.212   3.965  19.172  0.00  0.00    +0.000 NA
ATOM     18  C   UNL     1       4.054   2.819  19.574  0.00  0.00    +0.000 C 
BRANCH  17  19
ATOM     19  S   UNL     1       1.570   3.633  18.911  0.00  0.00    +0.000 S 
ATOM     20  C   UNL     1       1.523   1.851  18.823  0.00  0.00    +0.000 C 
ATOM     21  O   UNL     1       0.829   4.038  20.087  0.00  0.00    +0.000 OA
ATOM     22  O   UNL     1       1.220   4.136  17.600  0.00  0.00    +0.000 OA
ENDBRANCH  17  19
ENDBRANCH  16  17
ENDBRANCH   7  16
TORSDOF 5
ENDMDL
MODEL 2
REMARK VINA RESULT:      -6.8      1.330      1.482
REMARK  Name = 
REMARK  8 active torsions:
REMARK  status: ('A' for Active; 'I' for Inactive)
REMARK    1  A    between atoms: C_1  and  O_2
REMARK    2  A    between atoms: O_2  and  C_3
REMARK    3  A    between atoms: N_6  and  C_7
REMARK    4  A    between atoms: C_13  and  C_14
REMARK    5  A    between atoms: C_14  and  N_15
REMARK    6  A    between atoms: N_15  and  C_16
REMARK    7  A    between atoms: N_15  and  S_17
REMARK    8  A    between atoms: S_17  and  C_18
REMARK                            x       y       z     vdW  Elec       q    Type
REMARK                         _______ _______ _______ _____ _____    ______ ____
ROOT
ATOM      1  C   UNL     1       4.040   6.866  17.741  0.00  0.00    +0.000 A 
ATOM      2  C   UNL     1       3.517   8.125  17.378  0.00  0.00    +0.000 A 
ATOM      3  C   UNL     1       2.462   8.720  18.078  0.00  0.00    +0.000 A 
ATOM      4  C   UNL     1       1.921   8.072  19.168  0.00  0.00    +0.000 A 
ATOM      5  F   UNL     1       0.898   8.635  19.829  0.00  0.00    +0.000 F 
ATOM      6  C   UNL     1       2.416   6.845  19.574  0.00  0.00    +0.000 A 
ATOM      7  C   UNL     1       3.473   6.221  18.874  0.00  0.00    +0.000 A 
ENDROOT
BRANCH   1  11
ATOM      8  C   UNL     1       6.898   4.649  15.534  0.00  0.00    +0.000 C 
ATOM      9  C   UNL     1       5.478   4.906  15.006  0.00  0.00    +0.000 C 
ATOM     10  C   UNL     1       4.866   6.213  15.500  0.00  0.00    +0.000 C 
ATOM     11  N   UNL     1       5.019   6.251  16.960  0.00  0.00    +0.000 N 
ATOM     12  C   UNL     1       6.428   6.419  17.333  0.00  0.00    +0.000 C 
ATOM     13  C   UNL     1       7.139   5.110  16.981  0.00  0.00    +0.000 C 
BRANCH   8  15
ATOM     14  C   UNL     1       7.620   5.095  13.309  0.00  0.00    +0.000 C 
ATOM     15  O   UNL     1       7.886   5.268  14.700  0.00  0.00    +0.000 OA
ENDBRANCH   8  15
ENDBRANCH   1  11
BRANCH   7  16
ATOM     16  C   UNL     1       3.933   4.872  19.401  0.00  0.00    +0.000 C 
BRANCH  16  17
ATOM     17  N   UNL     1       3.203   3.707  18.835  0.00  0.00    +0.000 NA
ATOM     18  C   UNL     1       3.994   2.952  17.840  0.00  0.00    +0.000 C 
BRANCH  17  19
ATOM     19  S   UNL     1       2.291   2.782  19.924  0.00  0.00    +0.000 S 
ATOM     20  C   UNL     1       0.925   3.856  20.328  0.00  0.00    +0.000 C 
ATOM     21  O   UNL     1       1.760   1.635  19.217  0.00  0.00    +0.000 OA
ATOM     22  O   UNL     1       3.075   2.615  21.129  0.00  0.00    +0.000 OA
ENDBRANCH  17  19
ENDBRANCH  16  17
ENDBRANCH   7  16
TORSDOF 5
ENDMDL
MODEL 3
REMARK VINA RESULT:      -6.8      3.292      6.247
REMARK  Name = 
REMARK  8 active torsions:
REMARK  status: ('A' for Active; 'I' for Inactive)
REMARK    1  A    between atoms: C_1  and  O_2
REMARK    2  A    between atoms: O_2  and  C_3
REMARK    3  A    between atoms: N_6  and  C_7
REMARK    4  A    between atoms: C_13  and  C_14
REMARK    5  A    between atoms: C_14  and  N_15
REMARK    6  A    between atoms: N_15  and  C_16
REMARK    7  A    between atoms: N_15  and  S_17
REMARK    8  A    between atoms: S_17  and  C_18
REMARK                            x       y       z     vdW  Elec       q    Type
REMARK                         _______ _______ _______ _____ _____    ______ ____
ROOT
ATOM      1  C   UNL     1       2.607   4.695  19.250  0.00  0.00    +0.000 A 
ATOM      2  C   UNL     1       1.680   3.635  19.333  0.00  0.00    +0.000 A 
ATOM      3  C   UNL     1       2.048   2.308  19.090  0.00  0.00    +0.000 A 
ATOM      4  C   UNL     1       3.358   2.013  18.775  0.00  0.00    +0.000 A 
ATOM      5  F   UNL     1       3.708   0.743  18.525  0.00  0.00    +0.000 F 
ATOM      6  C   UNL     1       4.307   3.020  18.702  0.00  0.00    +0.000 A 
ATOM      7  C   UNL     1       3.953   4.369  18.933  0.00  0.00    +0.000 A 
ENDROOT
BRANCH   1  11
ATOM      8  C   UNL     1       1.709   8.801  19.792  0.00  0.00    +0.000 C 
ATOM      9  C   UNL     1       2.195   8.241  18.446  0.00  0.00    +0.000 C 
ATOM     10  C   UNL     1       1.796   6.789  18.205  0.00  0.00    +0.000 C 
ATOM     11  N   UNL     1       2.188   6.019  19.392  0.00  0.00    +0.000 N 
ATOM     12  C   UNL     1       1.350   6.373  20.544  0.00  0.00    +0.000 C 
ATOM     13  C   UNL     1       1.739   7.795  20.955  0.00  0.00    +0.000 C 
BRANCH   8  15
ATOM     14  C   UNL     1       0.184  10.115  18.520  0.00  0.00    +0.000 C 
ATOM     15  O   UNL     1       0.379   9.325  19.692  0.00  0.00    +0.000 OA
ENDBRANCH   8  15
ENDBRANCH   1  11
BRANCH   7  16
ATOM     16  C   UNL     1       5.071   5.391  18.820  0.00  0.00    +0.000 C 
BRANCH  16  17
ATOM     17  N   UNL     1       5.700   5.473  17.475  0.00  0.00    +0.000 NA
ATOM     18  C   UNL     1       4.945   6.322  16.530  0.00  0.00    +0.000 C 
BRANCH  17  19
ATOM     19  S   UNL     1       7.388   5.625  17.435  0.00  0.00    +0.000 S 
ATOM     20  C   UNL     1       7.813   5.903  19.146  0.00  0.00    +0.000 C 
ATOM     21  O   UNL     1       7.953   4.352  17.039  0.00  0.00    +0.000 OA
ATOM     22  O   UNL     1       7.706   6.838  16.712  0.00  0.00    +0.000 OA
ENDBRANCH  17  19
ENDBRANCH  16  17
ENDBRANCH   7  16
TORSDOF 5
ENDMDL
MODEL 4
REMARK VINA RESULT:      -6.6      1.156      1.396
REMARK  Name = 
REMARK  8 active torsions:
REMARK  status: ('A' for Active; 'I' for Inactive)
REMARK    1  A    between atoms: C_1  and  O_2
REMARK    2  A    between atoms: O_2  and  C_3
REMARK    3  A    between atoms: N_6  and  C_7
REMARK    4  A    between atoms: C_13  and  C_14
REMARK    5  A    between atoms: C_14  and  N_15
REMARK    6  A    between atoms: N_15  and  C_16
REMARK    7  A    between atoms: N_15  and  S_17
REMARK    8  A    between atoms: S_17  and  C_18
REMARK                            x       y       z     vdW  Elec       q    Type
REMARK                         _______ _______ _______ _____ _____    ______ ____
ROOT
ATOM      1  C   UNL     1       3.775   7.033  18.044  0.00  0.00    +0.000 A 
ATOM      2  C   UNL     1       3.390   8.276  17.499  0.00  0.00    +0.000 A 
ATOM      3  C   UNL     1       2.310   9.005  18.007  0.00  0.00    +0.000 A 
ATOM      4  C   UNL     1       1.604   8.511  19.084  0.00  0.00    +0.000 A 
ATOM      5  F   UNL     1       0.558   9.202  19.561  0.00  0.00    +0.000 F 
ATOM      6  C   UNL     1       1.959   7.305  19.664  0.00  0.00    +0.000 A 
ATOM      7  C   UNL     1       3.040   6.547  19.158  0.00  0.00    +0.000 A 
ENDROOT
BRANCH   1  11
ATOM      8  C   UNL     1       6.900   4.567  16.591  0.00  0.00    +0.000 C 
ATOM      9  C   UNL     1       5.427   4.131  16.548  0.00  0.00    +0.000 C 
ATOM     10  C   UNL     1       4.447   5.292  16.416  0.00  0.00    +0.000 C 
ATOM     11  N   UNL     1       4.787   6.279  17.448  0.00  0.00    +0.000 N 
ATOM     12  C   UNL     1       6.067   6.931  17.145  0.00  0.00    +0.000 C 
ATOM     13  C   UNL     1       7.160   5.880  17.350  0.00  0.00    +0.000 C 
BRANCH   8  15
ATOM     14  C   UNL     1       6.621   4.107  14.272  0.00  0.00    +0.000 C 
ATOM     15  O   UNL     1       7.447   4.701  15.273  0.00  0.00    +0.000 OA
ENDBRANCH   8  15
ENDBRANCH   1  11
BRANCH   7  16
ATOM     16  C   UNL     1       3.337   5.236  19.866  0.00  0.00    +0.000 C 
BRANCH  16  17
ATOM     17  N   UNL     1       2.257   4.220  19.764  0.00  0.00    +0.000 NA
ATOM     18  C   UNL     1       1.649   4.149  18.418  0.00  0.00    +0.000 C 
BRANCH  17  19
ATOM     19  S   UNL     1       2.534   2.738  20.539  0.00  0.00    +0.000 S 
ATOM     20  C   UNL     1       4.240   2.387  20.149  0.00  0.00    +0.000 C 
ATOM     21  O   UNL     1       2.440   2.945  21.969  0.00  0.00    +0.000 OA
ATOM     22  O   UNL     1       1.729   1.735  19.877  0.00  0.00    +0.000 OA
ENDBRANCH  17  19
ENDBRANCH  16  17
ENDBRANCH   7  16
TORSDOF 5
ENDMDL
MODEL 5
REMARK VINA RESULT:      -6.6      3.225      6.295
REMARK  Name = 
REMARK  8 active torsions:
REMARK  status: ('A' for Active; 'I' for Inactive)
REMARK    1  A    between atoms: C_1  and  O_2
REMARK    2  A    between atoms: O_2  and  C_3
REMARK    3  A    between atoms: N_6  and  C_7
REMARK    4  A    between atoms: C_13  and  C_14
REMARK    5  A    between atoms: C_14  and  N_15
REMARK    6  A    between atoms: N_15  and  C_16
REMARK    7  A    between atoms: N_15  and  S_17
REMARK    8  A    between atoms: S_17  and  C_18
REMARK                            x       y       z     vdW  Elec       q    Type
REMARK                         _______ _______ _______ _____ _____    ______ ____
ROOT
ATOM      1  C   UNL     1       2.892   5.411  19.844  0.00  0.00    +0.000 A 
ATOM      2  C   UNL     1       2.259   4.454  20.664  0.00  0.00    +0.000 A 
ATOM      3  C   UNL     1       2.756   3.155  20.806  0.00  0.00    +0.000 A 
ATOM      4  C   UNL     1       3.909   2.792  20.142  0.00  0.00    +0.000 A 
ATOM      5  F   UNL     1       4.376   1.541  20.265  0.00  0.00    +0.000 F 
ATOM      6  C   UNL     1       4.576   3.704  19.342  0.00  0.00    +0.000 A 
ATOM      7  C   UNL     1       4.084   5.019  19.175  0.00  0.00    +0.000 A 
ENDROOT
BRANCH   1  11
ATOM      8  C   UNL     1       1.491   9.375  19.317  0.00  0.00    +0.000 C 
ATOM      9  C   UNL     1       2.135   8.577  18.172  0.00  0.00    +0.000 C 
ATOM     10  C   UNL     1       1.925   7.070  18.280  0.00  0.00    +0.000 C 
ATOM     11  N   UNL     1       2.314   6.664  19.637  0.00  0.00    +0.000 N 
ATOM     12  C   UNL     1       1.359   7.173  20.629  0.00  0.00    +0.000 C 
ATOM     13  C   UNL     1       1.551   8.689  20.692  0.00  0.00    +0.000 C 
BRANCH   8  15
ATOM     14  C   UNL     1      -0.520  10.378  20.105  0.00  0.00    +0.000 C 
ATOM     15  O   UNL     1       0.120   9.684  19.035  0.00  0.00    +0.000 OA
ENDBRANCH   8  15
ENDBRANCH   1  11
BRANCH   7  16
ATOM     16  C   UNL     1       4.890   5.934  18.269  0.00  0.00    +0.000 C 
BRANCH  16  17
ATOM     17  N   UNL     1       5.722   5.227  17.260  0.00  0.00    +0.000 NA
ATOM     18  C   UNL     1       5.120   5.220  15.910  0.00  0.00    +0.000 C 
BRANCH  17  19
ATOM     19  S   UNL     1       7.394   5.497  17.332  0.00  0.00    +0.000 S 
ATOM     20  C   UNL     1       7.673   5.869  19.055  0.00  0.00    +0.000 C 
ATOM     21  O   UNL     1       8.072   4.253  17.032  0.00  0.00    +0.000 OA
ATOM     22  O   UNL     1       7.681   6.700  16.583  0.00  0.00    +0.000 OA
ENDBRANCH  17  19
ENDBRANCH  16  17
ENDBRANCH   7  16
TORSDOF 5
ENDMDL
MODEL 6
REMARK VINA RESULT:      -6.5      3.120      6.241
REMARK  Name = 
REMARK  8 active torsions:
REMARK  status: ('A' for Active; 'I' for Inactive)
REMARK    1  A    between atoms: C_1  and  O_2
REMARK    2  A    between atoms: O_2  and  C_3
REMARK    3  A    between atoms: N_6  and  C_7
REMARK    4  A    between atoms: C_13  and  C_14
REMARK    5  A    between atoms: C_14  and  N_15
REMARK    6  A    between atoms: N_15  and  C_16
REMARK    7  A    between atoms: N_15  and  S_17
REMARK    8  A    between atoms: S_17  and  C_18
REMARK                            x       y       z     vdW  Elec       q    Type
REMARK                         _______ _______ _______ _____ _____    ______ ____
ROOT
ATOM      1  C   UNL     1       2.699   4.651  19.211  0.00  0.00    +0.000 A 
ATOM      2  C   UNL     1       1.777   3.585  19.277  0.00  0.00    +0.000 A 
ATOM      3  C   UNL     1       2.160   2.260  19.049  0.00  0.00    +0.000 A 
ATOM      4  C   UNL     1       3.479   1.972  18.767  0.00  0.00    +0.000 A 
ATOM      5  F   UNL     1       3.843   0.703  18.532  0.00  0.00    +0.000 F 
ATOM      6  C   UNL     1       4.422   2.984  18.712  0.00  0.00    +0.000 A 
ATOM      7  C   UNL     1       4.054   4.332  18.927  0.00  0.00    +0.000 A 
ENDROOT
BRANCH   1  11
ATOM      8  C   UNL     1       1.765   8.756  19.697  0.00  0.00    +0.000 C 
ATOM      9  C   UNL     1       2.246   8.181  18.356  0.00  0.00    +0.000 C 
ATOM     10  C   UNL     1       1.860   6.721  18.140  0.00  0.00    +0.000 C 
ATOM     11  N   UNL     1       2.268   5.973  19.336  0.00  0.00    +0.000 N 
ATOM     12  C   UNL     1       1.435   6.337  20.489  0.00  0.00    +0.000 C 
ATOM     13  C   UNL     1       1.813   7.768  20.875  0.00  0.00    +0.000 C 
BRANCH   8  15
ATOM     14  C   UNL     1      -0.090   9.694  20.858  0.00  0.00    +0.000 C 
ATOM     15  O   UNL     1       0.429   9.266  19.600  0.00  0.00    +0.000 OA
ENDBRANCH   8  15
ENDBRANCH   1  11
BRANCH   7  16
ATOM     16  C   UNL     1       5.168   5.361  18.836  0.00  0.00    +0.000 C 
BRANCH  16  17
ATOM     17  N   UNL     1       5.535   5.753  17.449  0.00  0.00    +0.000 NA
ATOM     18  C   UNL     1       5.335   7.192  17.178  0.00  0.00    +0.000 C 
BRANCH  17  19
ATOM     19  S   UNL     1       6.945   5.060  16.813  0.00  0.00    +0.000 S 
ATOM     20  C   UNL     1       6.321   3.840  15.670  0.00  0.00    +0.000 C 
ATOM     21  O   UNL     1       7.645   6.069  16.047  0.00  0.00    +0.000 OA
ATOM     22  O   UNL     1       7.608   4.345  17.882  0.00  0.00    +0.000 OA
ENDBRANCH  17  19
ENDBRANCH  16  17
ENDBRANCH   7  16
TORSDOF 5
ENDMDL
MODEL 7
REMARK VINA RESULT:      -6.5      1.335      1.493
REMARK  Name = 
REMARK  8 active torsions:
REMARK  status: ('A' for Active; 'I' for Inactive)
REMARK    1  A    between atoms: C_1  and  O_2
REMARK    2  A    between atoms: O_2  and  C_3
REMARK    3  A    between atoms: N_6  and  C_7
REMARK    4  A    between atoms: C_13  and  C_14
REMARK    5  A    between atoms: C_14  and  N_15
REMARK    6  A    between atoms: N_15  and  C_16
REMARK    7  A    between atoms: N_15  and  S_17
REMARK    8  A    between atoms: S_17  and  C_18
REMARK                            x       y       z     vdW  Elec       q    Type
REMARK                         _______ _______ _______ _____ _____    ______ ____
ROOT
ATOM      1  C   UNL     1       3.805   7.030  18.003  0.00  0.00    +0.000 A 
ATOM      2  C   UNL     1       3.453   8.300  17.498  0.00  0.00    +0.000 A 
ATOM      3  C   UNL     1       2.368   9.024  18.002  0.00  0.00    +0.000 A 
ATOM      4  C   UNL     1       1.622   8.497  19.036  0.00  0.00    +0.000 A 
ATOM      5  F   UNL     1       0.571   9.184  19.508  0.00  0.00    +0.000 F 
ATOM      6  C   UNL     1       1.942   7.264  19.577  0.00  0.00    +0.000 A 
ATOM      7  C   UNL     1       3.028   6.510  19.074  0.00  0.00    +0.000 A 
ENDROOT
BRANCH   1  11
ATOM      8  C   UNL     1       6.939   4.578  16.549  0.00  0.00    +0.000 C 
ATOM      9  C   UNL     1       5.463   4.166  16.442  0.00  0.00    +0.000 C 
ATOM     10  C   UNL     1       4.503   5.346  16.327  0.00  0.00    +0.000 C 
ATOM     11  N   UNL     1       4.825   6.286  17.409  0.00  0.00    +0.000 N 
ATOM     12  C   UNL     1       6.122   6.930  17.172  0.00  0.00    +0.000 C 
ATOM     13  C   UNL     1       7.193   5.855  17.368  0.00  0.00    +0.000 C 
BRANCH   8  15
ATOM     14  C   UNL     1       6.731   4.209  14.206  0.00  0.00    +0.000 C 
ATOM     15  O   UNL     1       7.529   4.757  15.254  0.00  0.00    +0.000 OA
ENDBRANCH   8  15
ENDBRANCH   1  11
BRANCH   7  16
ATOM     16  C   UNL     1       3.285   5.168  19.736  0.00  0.00    +0.000 C 
BRANCH  16  17
ATOM     17  N   UNL     1       2.220   4.154  19.511  0.00  0.00    +0.000 NA
ATOM     18  C   UNL     1       1.653   4.198  18.147  0.00  0.00    +0.000 C 
BRANCH  17  19
ATOM     19  S   UNL     1       2.494   2.611  20.158  0.00  0.00    +0.000 S 
ATOM     20  C   UNL     1       1.620   2.660  21.713  0.00  0.00    +0.000 C 
ATOM     21  O   UNL     1       1.838   1.637  19.312  0.00  0.00    +0.000 OA
ATOM     22  O   UNL     1       3.904   2.502  20.463  0.00  0.00    +0.000 OA
ENDBRANCH  17  19
ENDBRANCH  16  17
ENDBRANCH   7  16
TORSDOF 5
ENDMDL
MODEL 8
REMARK VINA RESULT:      -6.5      1.685      1.935
REMARK  Name = 
REMARK  8 active torsions:
REMARK  status: ('A' for Active; 'I' for Inactive)
REMARK    1  A    between atoms: C_1  and  O_2
REMARK    2  A    between atoms: O_2  and  C_3
REMARK    3  A    between atoms: N_6  and  C_7
REMARK    4  A    between atoms: C_13  and  C_14
REMARK    5  A    between atoms: C_14  and  N_15
REMARK    6  A    between atoms: N_15  and  C_16
REMARK    7  A    between atoms: N_15  and  S_17
REMARK    8  A    between atoms: S_17  and  C_18
REMARK                            x       y       z     vdW  Elec       q    Type
REMARK                         _______ _______ _______ _____ _____    ______ ____
ROOT
ATOM      1  C   UNL     1       4.301   6.300  17.893  0.00  0.00    +0.000 A 
ATOM      2  C   UNL     1       3.487   7.428  17.658  0.00  0.00    +0.000 A 
ATOM      3  C   UNL     1       2.464   7.799  18.536  0.00  0.00    +0.000 A 
ATOM      4  C   UNL     1       2.245   7.056  19.677  0.00  0.00    +0.000 A 
ATOM      5  F   UNL     1       1.253   7.402  20.510  0.00  0.00    +0.000 F 
ATOM      6  C   UNL     1       3.033   5.953  19.959  0.00  0.00    +0.000 A 
ATOM      7  C   UNL     1       4.064   5.554  19.079  0.00  0.00    +0.000 A 
ENDROOT
BRANCH   1  11
ATOM      8  C   UNL     1       7.047   4.688  15.097  0.00  0.00    +0.000 C 
ATOM      9  C   UNL     1       5.610   5.066  14.706  0.00  0.00    +0.000 C 
ATOM     10  C   UNL     1       5.032   6.213  15.528  0.00  0.00    +0.000 C 
ATOM     11  N   UNL     1       5.242   5.893  16.946  0.00  0.00    +0.000 N 
ATOM     12  C   UNL     1       6.667   5.965  17.291  0.00  0.00    +0.000 C 
ATOM     13  C   UNL     1       7.350   4.782  16.602  0.00  0.00    +0.000 C 
BRANCH   8  15
ATOM     14  C   UNL     1       7.972   5.293  12.988  0.00  0.00    +0.000 C 
ATOM     15  O   UNL     1       8.009   5.491  14.400  0.00  0.00    +0.000 OA
ENDBRANCH   8  15
ENDBRANCH   1  11
BRANCH   7  16
ATOM     16  C   UNL     1       4.861   4.325  19.482  0.00  0.00    +0.000 C 
BRANCH  16  17
ATOM     17  N   UNL     1       4.049   3.091  19.653  0.00  0.00    +0.000 NA
ATOM     18  C   UNL     1       3.038   3.202  20.725  0.00  0.00    +0.000 C 
BRANCH  17  19
ATOM     19  S   UNL     1       3.551   2.308  18.234  0.00  0.00    +0.000 S 
ATOM     20  C   UNL     1       1.809   2.687  18.148  0.00  0.00    +0.000 C 
ATOM     21  O   UNL     1       4.200   2.947  17.108  0.00  0.00    +0.000 OA
ATOM     22  O   UNL     1       3.669   0.883  18.449  0.00  0.00    +0.000 OA
ENDBRANCH  17  19
ENDBRANCH  16  17
ENDBRANCH   7  16
TORSDOF 5
ENDMDL
MODEL 9
REMARK VINA RESULT:      -6.4      1.559      1.684
REMARK  Name = 
REMARK  8 active torsions:
REMARK  status: ('A' for Active; 'I' for Inactive)
REMARK    1  A    between atoms: C_1  and  O_2
REMARK    2  A    between atoms: O_2  and  C_3
REMARK    3  A    between atoms: N_6  and  C_7
REMARK    4  A    between atoms: C_13  and  C_14
REMARK    5  A    between atoms: C_14  and  N_15
REMARK    6  A    between atoms: N_15  and  C_16
REMARK    7  A    between atoms: N_15  and  S_17
REMARK    8  A    between atoms: S_17  and  C_18
REMARK                            x       y       z     vdW  Elec       q    Type
REMARK                         _______ _______ _______ _____ _____    ______ ____
ROOT
ATOM      1  C   UNL     1       4.037   7.058  17.668  0.00  0.00    +0.000 A 
ATOM      2  C   UNL     1       3.478   8.294  17.282  0.00  0.00    +0.000 A 
ATOM      3  C   UNL     1       2.410   8.874  17.975  0.00  0.00    +0.000 A 
ATOM      4  C   UNL     1       1.891   8.234  19.081  0.00  0.00    +0.000 A 
ATOM      5  F   UNL     1       0.856   8.781  19.735  0.00  0.00    +0.000 F 
ATOM      6  C   UNL     1       2.422   7.028  19.509  0.00  0.00    +0.000 A 
ATOM      7  C   UNL     1       3.493   6.420  18.816  0.00  0.00    +0.000 A 
ENDROOT
BRANCH   1  11
ATOM      8  C   UNL     1       6.951   4.878  15.498  0.00  0.00    +0.000 C 
ATOM      9  C   UNL     1       5.515   5.060  14.983  0.00  0.00    +0.000 C 
ATOM     10  C   UNL     1       4.859   6.358  15.439  0.00  0.00    +0.000 C 
ATOM     11  N   UNL     1       5.029   6.454  16.895  0.00  0.00    +0.000 N 
ATOM     12  C   UNL     1       6.436   6.690  17.241  0.00  0.00    +0.000 C 
ATOM     13  C   UNL     1       7.193   5.399  16.925  0.00  0.00    +0.000 C 
BRANCH   8  15
ATOM     14  C   UNL     1       7.706   5.163  13.258  0.00  0.00    +0.000 C 
ATOM     15  O   UNL     1       7.904   5.505  14.629  0.00  0.00    +0.000 OA
ENDBRANCH   8  15
ENDBRANCH   1  11
BRANCH   7  16
ATOM     16  C   UNL     1       3.992   5.095  19.368  0.00  0.00    +0.000 C 
BRANCH  16  17
ATOM     17  N   UNL     1       3.111   3.933  19.075  0.00  0.00    +0.000 NA
ATOM     18  C   UNL     1       2.705   3.853  17.656  0.00  0.00    +0.000 C 
BRANCH  17  19
ATOM     19  S   UNL     1       3.518   2.467  19.821  0.00  0.00    +0.000 S 
ATOM     20  C   UNL     1       3.440   1.291  18.481  0.00  0.00    +0.000 C 
ATOM     21  O   UNL     1       4.894   2.545  20.263  0.00  0.00    +0.000 OA
ATOM     22  O   UNL     1       2.457   2.132  20.746  0.00  0.00    +0.000 OA
ENDBRANCH  17  19
ENDBRANCH  16  17
ENDBRANCH   7  16
TORSDOF 5
ENDMDL
