MODEL 1
REMARK VINA RESULT:      -7.6      0.000      0.000
REMARK  Name = 
REMARK  3 active torsions:
REMARK  status: ('A' for Active; 'I' for Inactive)
REMARK    1  A    between atoms: C_1  and  N_2
REMARK    2  A    between atoms: N_5  and  C_6
REMARK    3  A    between atoms: C_6  and  C_7
REMARK                            x       y       z     vdW  Elec       q    Type
REMARK                         _______ _______ _______ _____ _____    ______ ____
ROOT
ATOM      1  C   UNL     1       3.405   7.006  18.308  0.00  0.00    +0.000 C 
ATOM      2  O   UNL     1       4.239   7.904  18.141  0.00  0.00    +0.000 OA
ATOM      3  N   UNL     1       3.797   5.660  18.231  0.00  0.00    +0.000 N 
ATOM      4  C   UNL     1       5.191   5.364  18.235  0.00  0.00    +0.000 A 
ATOM      5  C   UNL     1       6.016   5.949  19.224  0.00  0.00    +0.000 A 
ATOM      6  C   UNL     1       7.405   5.769  19.212  0.00  0.00    +0.000 A 
ATOM      7  C   UNL     1       7.994   5.032  18.196  0.00  0.00    +0.000 A 
ATOM      8  C   UNL     1       7.196   4.457  17.207  0.00  0.00    +0.000 A 
ATOM      9  C   UNL     1       5.795   4.596  17.248  0.00  0.00    +0.000 A 
ATOM     10  C   UNL     1       5.038   3.913  16.188  0.00  0.00    +0.000 C 
ATOM     11  O   UNL     1       5.511   3.796  15.061  0.00  0.00    +0.000 OA
ATOM     12  N   UNL     1       3.899   3.235  16.520  0.00  0.00    +0.000 N 
ATOM     13  C   UNL     1       3.050   3.389  17.626  0.00  0.00    +0.000 A 
ATOM     14  C   UNL     1       2.145   2.338  17.843  0.00  0.00    +0.000 A 
ATOM     15  C   UNL     1       1.153   2.457  18.806  0.00  0.00    +0.000 A 
ATOM     16  C   UNL     1       1.085   3.640  19.509  0.00  0.00    +0.000 A 
ATOM     17  N   UNL     1       1.939   4.674  19.326  0.00  0.00    +0.000 NA
ATOM     18  C   UNL     1       2.932   4.548  18.406  0.00  0.00    +0.000 A 
ATOM     19  H   UNL     1       3.650   2.544  15.822  0.00  0.00    +0.000 HD
ENDROOT
BRANCH   1  20
ATOM     20  C   UNL     1       1.900   7.326  18.505  0.00  0.00    +0.000 C 
BRANCH  20  25
ATOM     21  C   UNL     1      -0.322  10.507  22.769  0.00  0.00    +0.000 C 
ATOM     22  N   UNL     1      -0.037   9.588  21.674  0.00  0.00    +0.000 NA
ATOM     23  C   UNL     1       1.113   8.728  21.993  0.00  0.00    +0.000 C 
ATOM     24  C   UNL     1       1.397   7.713  20.872  0.00  0.00    +0.000 C 
ATOM     25  N   UNL     1       1.640   8.358  19.555  0.00  0.00    +0.000 NA
ATOM     26  C   UNL     1       0.443   9.194  19.238  0.00  0.00    +0.000 C 
ATOM     27  C   UNL     1       0.529   9.962  17.910  0.00  0.00    +0.000 C 
ATOM     28  C   UNL     1       1.741  10.874  17.868  0.00  0.00    +0.000 C 
ATOM     29  C   UNL     1       1.825  11.834  19.048  0.00  0.00    +0.000 C 
ATOM     30  C   UNL     1       1.205  11.395  20.379  0.00  0.00    +0.000 C 
ATOM     31  C   UNL     1       0.159  10.254  20.358  0.00  0.00    +0.000 C 
ENDBRANCH  20  25
ENDBRANCH   1  20
TORSDOF 2
ENDMDL
MODEL 2
REMARK VINA RESULT:      -7.4      4.844      7.854
REMARK  Name = 
REMARK  3 active torsions:
REMARK  status: ('A' for Active; 'I' for Inactive)
REMARK    1  A    between atoms: C_1  and  N_2
REMARK    2  A    between atoms: N_5  and  C_6
REMARK    3  A    between atoms: C_6  and  C_7
REMARK                            x       y       z     vdW  Elec       q    Type
REMARK                         _______ _______ _______ _____ _____    ______ ____
ROOT
ATOM      1  C   UNL     1      -0.307  12.648  21.009  0.00  0.00    +0.000 C 
ATOM      2  O   UNL     1       0.660  12.629  21.780  0.00  0.00    +0.000 OA
ATOM      3  N   UNL     1      -0.599  11.523  20.221  0.00  0.00    +0.000 N 
ATOM      4  C   UNL     1       0.059  10.298  20.527  0.00  0.00    +0.000 A 
ATOM      5  C   UNL     1       0.068   9.836  21.864  0.00  0.00    +0.000 A 
ATOM      6  C   UNL     1       0.783   8.690  22.234  0.00  0.00    +0.000 A 
ATOM      7  C   UNL     1       1.527   8.008  21.283  0.00  0.00    +0.000 A 
ATOM      8  C   UNL     1       1.536   8.454  19.962  0.00  0.00    +0.000 A 
ATOM      9  C   UNL     1       0.776   9.577  19.581  0.00  0.00    +0.000 A 
ATOM     10  C   UNL     1       0.815   9.940  18.156  0.00  0.00    +0.000 C 
ATOM     11  O   UNL     1       1.832   9.759  17.494  0.00  0.00    +0.000 OA
ATOM     12  N   UNL     1      -0.350  10.289  17.531  0.00  0.00    +0.000 N 
ATOM     13  C   UNL     1      -1.548  10.779  18.070  0.00  0.00    +0.000 A 
ATOM     14  C   UNL     1      -2.656  10.745  17.208  0.00  0.00    +0.000 A 
ATOM     15  C   UNL     1      -3.849  11.349  17.577  0.00  0.00    +0.000 A 
ATOM     16  C   UNL     1      -3.887  11.993  18.794  0.00  0.00    +0.000 A 
ATOM     17  N   UNL     1      -2.840  12.048  19.649  0.00  0.00    +0.000 NA
ATOM     18  C   UNL     1      -1.681  11.429  19.305  0.00  0.00    +0.000 A 
ATOM     19  H   UNL     1      -0.285  10.191  16.525  0.00  0.00    +0.000 HD
ENDROOT
BRANCH   1  20
ATOM     20  C   UNL     1      -1.161  13.928  20.814  0.00  0.00    +0.000 C 
BRANCH  20  25
ATOM     21  C   UNL     1      -1.092  16.007  26.190  0.00  0.00    +0.000 C 
ATOM     22  N   UNL     1      -0.919  15.277  24.941  0.00  0.00    +0.000 NA
ATOM     23  C   UNL     1      -0.507  16.180  23.855  0.00  0.00    +0.000 C 
ATOM     24  C   UNL     1      -0.267  15.420  22.538  0.00  0.00    +0.000 C 
ATOM     25  N   UNL     1      -1.456  14.651  22.089  0.00  0.00    +0.000 NA
ATOM     26  C   UNL     1      -1.829  13.717  23.193  0.00  0.00    +0.000 C 
ATOM     27  C   UNL     1      -3.066  12.849  22.911  0.00  0.00    +0.000 C 
ATOM     28  C   UNL     1      -4.286  13.697  22.604  0.00  0.00    +0.000 C 
ATOM     29  C   UNL     1      -4.594  14.735  23.675  0.00  0.00    +0.000 C 
ATOM     30  C   UNL     1      -3.426  15.290  24.497  0.00  0.00    +0.000 C 
ATOM     31  C   UNL     1      -2.107  14.480  24.533  0.00  0.00    +0.000 C 
ENDBRANCH  20  25
ENDBRANCH   1  20
TORSDOF 2
ENDMDL
MODEL 3
REMARK VINA RESULT:      -7.4      2.011      4.261
REMARK  Name = 
REMARK  3 active torsions:
REMARK  status: ('A' for Active; 'I' for Inactive)
REMARK    1  A    between atoms: C_1  and  N_2
REMARK    2  A    between atoms: N_5  and  C_6
REMARK    3  A    between atoms: C_6  and  C_7
REMARK                            x       y       z     vdW  Elec       q    Type
REMARK                         _______ _______ _______ _____ _____    ______ ____
ROOT
ATOM      1  C   UNL     1       2.212   6.214  19.779  0.00  0.00    +0.000 C 
ATOM      2  O   UNL     1       1.306   5.834  20.531  0.00  0.00    +0.000 OA
ATOM      3  N   UNL     1       2.948   5.276  19.037  0.00  0.00    +0.000 N 
ATOM      4  C   UNL     1       2.455   3.942  18.961  0.00  0.00    +0.000 A 
ATOM      5  C   UNL     1       1.101   3.726  18.615  0.00  0.00    +0.000 A 
ATOM      6  C   UNL     1       0.543   2.442  18.622  0.00  0.00    +0.000 A 
ATOM      7  C   UNL     1       1.318   1.359  19.007  0.00  0.00    +0.000 A 
ATOM      8  C   UNL     1       2.653   1.554  19.361  0.00  0.00    +0.000 A 
ATOM      9  C   UNL     1       3.227   2.839  19.304  0.00  0.00    +0.000 A 
ATOM     10  C   UNL     1       4.653   2.934  19.651  0.00  0.00    +0.000 C 
ATOM     11  O   UNL     1       5.140   2.190  20.496  0.00  0.00    +0.000 OA
ATOM     12  N   UNL     1       5.470   3.715  18.882  0.00  0.00    +0.000 N 
ATOM     13  C   UNL     1       5.155   4.796  18.046  0.00  0.00    +0.000 A 
ATOM     14  C   UNL     1       6.167   5.186  17.155  0.00  0.00    +0.000 A 
ATOM     15  C   UNL     1       6.027   6.340  16.397  0.00  0.00    +0.000 A 
ATOM     16  C   UNL     1       4.882   7.083  16.575  0.00  0.00    +0.000 A 
ATOM     17  N   UNL     1       3.886   6.741  17.425  0.00  0.00    +0.000 NA
ATOM     18  C   UNL     1       4.005   5.594  18.144  0.00  0.00    +0.000 A 
ATOM     19  H   UNL     1       6.445   3.459  18.981  0.00  0.00    +0.000 HD
ENDROOT
BRANCH   1  20
ATOM     20  C   UNL     1       2.629   7.705  19.704  0.00  0.00    +0.000 C 
BRANCH  20  25
ATOM     21  C   UNL     1      -0.815  12.206  18.642  0.00  0.00    +0.000 C 
ATOM     22  N   UNL     1       0.276  11.266  18.866  0.00  0.00    +0.000 NA
ATOM     23  C   UNL     1       0.141  10.084  18.000  0.00  0.00    +0.000 C 
ATOM     24  C   UNL     1       1.313   9.104  18.182  0.00  0.00    +0.000 C 
ATOM     25  N   UNL     1       1.471   8.646  19.587  0.00  0.00    +0.000 NA
ATOM     26  C   UNL     1       1.645   9.861  20.438  0.00  0.00    +0.000 C 
ATOM     27  C   UNL     1       1.800   9.577  21.940  0.00  0.00    +0.000 C 
ATOM     28  C   UNL     1       0.614   8.805  22.489  0.00  0.00    +0.000 C 
ATOM     29  C   UNL     1      -0.729   9.465  22.206  0.00  0.00    +0.000 C 
ATOM     30  C   UNL     1      -0.855  10.327  20.945  0.00  0.00    +0.000 C 
ATOM     31  C   UNL     1       0.442  10.855  20.286  0.00  0.00    +0.000 C 
ENDBRANCH  20  25
ENDBRANCH   1  20
TORSDOF 2
ENDMDL
MODEL 4
REMARK VINA RESULT:      -7.2      4.964      8.017
REMARK  Name = 
REMARK  3 active torsions:
REMARK  status: ('A' for Active; 'I' for Inactive)
REMARK    1  A    between atoms: C_1  and  N_2
REMARK    2  A    between atoms: N_5  and  C_6
REMARK    3  A    between atoms: C_6  and  C_7
REMARK                            x       y       z     vdW  Elec       q    Type
REMARK                         _______ _______ _______ _____ _____    ______ ____
ROOT
ATOM      1  C   UNL     1      -0.661  12.812  20.621  0.00  0.00    +0.000 C 
ATOM      2  O   UNL     1       0.264  12.947  21.432  0.00  0.00    +0.000 OA
ATOM      3  N   UNL     1      -0.854  11.580  19.976  0.00  0.00    +0.000 N 
ATOM      4  C   UNL     1      -0.154  10.443  20.471  0.00  0.00    +0.000 A 
ATOM      5  C   UNL     1      -0.193  10.160  21.856  0.00  0.00    +0.000 A 
ATOM      6  C   UNL     1       0.558   9.114  22.407  0.00  0.00    +0.000 A 
ATOM      7  C   UNL     1       1.383   8.356  21.590  0.00  0.00    +0.000 A 
ATOM      8  C   UNL     1       1.441   8.627  20.223  0.00  0.00    +0.000 A 
ATOM      9  C   UNL     1       0.647   9.647  19.662  0.00  0.00    +0.000 A 
ATOM     10  C   UNL     1       0.744   9.825  18.205  0.00  0.00    +0.000 C 
ATOM     11  O   UNL     1       1.803   9.616  17.621  0.00  0.00    +0.000 OA
ATOM     12  N   UNL     1      -0.401  10.024  17.486  0.00  0.00    +0.000 N 
ATOM     13  C   UNL     1      -1.650  10.512  17.900  0.00  0.00    +0.000 A 
ATOM     14  C   UNL     1      -2.707  10.304  17.000  0.00  0.00    +0.000 A 
ATOM     15  C   UNL     1      -3.946  10.884  17.231  0.00  0.00    +0.000 A 
ATOM     16  C   UNL     1      -4.081  11.676  18.348  0.00  0.00    +0.000 A 
ATOM     17  N   UNL     1      -3.085  11.901  19.236  0.00  0.00    +0.000 NA
ATOM     18  C   UNL     1      -1.880  11.307  19.031  0.00  0.00    +0.000 A 
ATOM     19  H   UNL     1      -0.279   9.801  16.506  0.00  0.00    +0.000 HD
ENDROOT
BRANCH   1  20
ATOM     20  C   UNL     1      -1.565  14.006  20.219  0.00  0.00    +0.000 C 
BRANCH  20  25
ATOM     21  C   UNL     1      -5.090  16.308  24.157  0.00  0.00    +0.000 C 
ATOM     22  N   UNL     1      -4.450  15.693  23.001  0.00  0.00    +0.000 NA
ATOM     23  C   UNL     1      -3.655  14.522  23.400  0.00  0.00    +0.000 C 
ATOM     24  C   UNL     1      -3.014  13.825  22.186  0.00  0.00    +0.000 C 
ATOM     25  N   UNL     1      -2.151  14.733  21.387  0.00  0.00    +0.000 NA
ATOM     26  C   UNL     1      -2.992  15.893  20.964  0.00  0.00    +0.000 C 
ATOM     27  C   UNL     1      -2.250  16.957  20.139  0.00  0.00    +0.000 C 
ATOM     28  C   UNL     1      -1.055  17.515  20.890  0.00  0.00    +0.000 C 
ATOM     29  C   UNL     1      -1.399  18.053  22.273  0.00  0.00    +0.000 C 
ATOM     30  C   UNL     1      -2.584  17.425  23.016  0.00  0.00    +0.000 C 
ATOM     31  C   UNL     1      -3.626  16.631  22.192  0.00  0.00    +0.000 C 
ENDBRANCH  20  25
ENDBRANCH   1  20
TORSDOF 2
ENDMDL
MODEL 5
REMARK VINA RESULT:      -7.1      4.944      8.051
REMARK  Name = 
REMARK  3 active torsions:
REMARK  status: ('A' for Active; 'I' for Inactive)
REMARK    1  A    between atoms: C_1  and  N_2
REMARK    2  A    between atoms: N_5  and  C_6
REMARK    3  A    between atoms: C_6  and  C_7
REMARK                            x       y       z     vdW  Elec       q    Type
REMARK                         _______ _______ _______ _____ _____    ______ ____
ROOT
ATOM      1  C   UNL     1      -0.979  12.535  20.872  0.00  0.00    +0.000 C 
ATOM      2  O   UNL     1      -0.145  12.616  21.782  0.00  0.00    +0.000 OA
ATOM      3  N   UNL     1      -1.021  11.391  20.059  0.00  0.00    +0.000 N 
ATOM      4  C   UNL     1      -0.287  10.243  20.473  0.00  0.00    +0.000 A 
ATOM      5  C   UNL     1      -0.431   9.775  21.800  0.00  0.00    +0.000 A 
ATOM      6  C   UNL     1       0.342   8.713  22.285  0.00  0.00    +0.000 A 
ATOM      7  C   UNL     1       1.292   8.124  21.465  0.00  0.00    +0.000 A 
ATOM      8  C   UNL     1       1.454   8.579  20.157  0.00  0.00    +0.000 A 
ATOM      9  C   UNL     1       0.642   9.613  19.654  0.00  0.00    +0.000 A 
ATOM     10  C   UNL     1       0.858   9.990  18.248  0.00  0.00    +0.000 C 
ATOM     11  O   UNL     1       1.978   9.928  17.752  0.00  0.00    +0.000 OA
ATOM     12  N   UNL     1      -0.229  10.214  17.450  0.00  0.00    +0.000 N 
ATOM     13  C   UNL     1      -1.542  10.564  17.795  0.00  0.00    +0.000 A 
ATOM     14  C   UNL     1      -2.495  10.414  16.774  0.00  0.00    +0.000 A 
ATOM     15  C   UNL     1      -3.789  10.881  16.952  0.00  0.00    +0.000 A 
ATOM     16  C   UNL     1      -4.084  11.506  18.142  0.00  0.00    +0.000 A 
ATOM     17  N   UNL     1      -3.192  11.670  19.147  0.00  0.00    +0.000 NA
ATOM     18  C   UNL     1      -1.933  11.185  18.989  0.00  0.00    +0.000 A 
ATOM     19  H   UNL     1      -0.001  10.131  16.466  0.00  0.00    +0.000 HD
ENDROOT
BRANCH   1  20
ATOM     20  C   UNL     1      -1.928  13.714  20.537  0.00  0.00    +0.000 C 
BRANCH  20  25
ATOM     21  C   UNL     1      -6.116  15.929  23.823  0.00  0.00    +0.000 C 
ATOM     22  N   UNL     1      -5.140  15.581  22.797  0.00  0.00    +0.000 NA
ATOM     23  C   UNL     1      -5.233  14.157  22.443  0.00  0.00    +0.000 C 
ATOM     24  C   UNL     1      -4.248  13.780  21.322  0.00  0.00    +0.000 C 
ATOM     25  N   UNL     1      -2.836  14.091  21.664  0.00  0.00    +0.000 NA
ATOM     26  C   UNL     1      -2.763  15.550  21.982  0.00  0.00    +0.000 C 
ATOM     27  C   UNL     1      -1.367  16.050  22.386  0.00  0.00    +0.000 C 
ATOM     28  C   UNL     1      -0.829  15.297  23.588  0.00  0.00    +0.000 C 
ATOM     29  C   UNL     1      -1.768  15.308  24.787  0.00  0.00    +0.000 C 
ATOM     30  C   UNL     1      -3.274  15.409  24.521  0.00  0.00    +0.000 C 
ATOM     31  C   UNL     1      -3.739  15.942  23.144  0.00  0.00    +0.000 C 
ENDBRANCH  20  25
ENDBRANCH   1  20
TORSDOF 2
ENDMDL
MODEL 6
REMARK VINA RESULT:      -7.1      4.941      7.840
REMARK  Name = 
REMARK  3 active torsions:
REMARK  status: ('A' for Active; 'I' for Inactive)
REMARK    1  A    between atoms: C_1  and  N_2
REMARK    2  A    between atoms: N_5  and  C_6
REMARK    3  A    between atoms: C_6  and  C_7
REMARK                            x       y       z     vdW  Elec       q    Type
REMARK                         _______ _______ _______ _____ _____    ______ ____
ROOT
ATOM      1  C   UNL     1      -0.302  12.825  20.549  0.00  0.00    +0.000 C 
ATOM      2  O   UNL     1       0.499  12.946  21.484  0.00  0.00    +0.000 OA
ATOM      3  N   UNL     1      -0.546  11.560  19.993  0.00  0.00    +0.000 N 
ATOM      4  C   UNL     1      -0.073  10.414  20.694  0.00  0.00    +0.000 A 
ATOM      5  C   UNL     1      -0.355  10.286  22.075  0.00  0.00    +0.000 A 
ATOM      6  C   UNL     1       0.170   9.230  22.831  0.00  0.00    +0.000 A 
ATOM      7  C   UNL     1       1.010   8.306  22.228  0.00  0.00    +0.000 A 
ATOM      8  C   UNL     1       1.306   8.422  20.871  0.00  0.00    +0.000 A 
ATOM      9  C   UNL     1       0.737   9.454  20.100  0.00  0.00    +0.000 A 
ATOM     10  C   UNL     1       1.073   9.464  18.668  0.00  0.00    +0.000 C 
ATOM     11  O   UNL     1       2.174   9.082  18.284  0.00  0.00    +0.000 OA
ATOM     12  N   UNL     1       0.083   9.707  17.758  0.00  0.00    +0.000 N 
ATOM     13  C   UNL     1      -1.144  10.367  17.919  0.00  0.00    +0.000 A 
ATOM     14  C   UNL     1      -2.071  10.179  16.882  0.00  0.00    +0.000 A 
ATOM     15  C   UNL     1      -3.251  10.909  16.856  0.00  0.00    +0.000 A 
ATOM     16  C   UNL     1      -3.454  11.827  17.862  0.00  0.00    +0.000 A 
ATOM     17  N   UNL     1      -2.583  12.037  18.877  0.00  0.00    +0.000 NA
ATOM     18  C   UNL     1      -1.443  11.299  18.923  0.00  0.00    +0.000 A 
ATOM     19  H   UNL     1       0.323   9.368  16.835  0.00  0.00    +0.000 HD
ENDROOT
BRANCH   1  20
ATOM     20  C   UNL     1      -0.982  14.060  19.902  0.00  0.00    +0.000 C 
BRANCH  20  25
ATOM     21  C   UNL     1       3.552  16.988  17.876  0.00  0.00    +0.000 C 
ATOM     22  N   UNL     1       2.560  16.249  18.646  0.00  0.00    +0.000 NA
ATOM     23  C   UNL     1       2.215  14.982  17.983  0.00  0.00    +0.000 C 
ATOM     24  C   UNL     1       1.207  14.160  18.807  0.00  0.00    +0.000 C 
ATOM     25  N   UNL     1      -0.048  14.902  19.092  0.00  0.00    +0.000 NA
ATOM     26  C   UNL     1       0.328  16.164  19.798  0.00  0.00    +0.000 C 
ATOM     27  C   UNL     1      -0.856  17.078  20.154  0.00  0.00    +0.000 C 
ATOM     28  C   UNL     1      -1.652  17.468  18.922  0.00  0.00    +0.000 C 
ATOM     29  C   UNL     1      -0.806  18.092  17.821  0.00  0.00    +0.000 C 
ATOM     30  C   UNL     1       0.665  17.675  17.718  0.00  0.00    +0.000 C 
ATOM     31  C   UNL     1       1.329  17.026  18.957  0.00  0.00    +0.000 C 
ENDBRANCH  20  25
ENDBRANCH   1  20
TORSDOF 2
ENDMDL
MODEL 7
REMARK VINA RESULT:      -7.1      2.252      7.768
REMARK  Name = 
REMARK  3 active torsions:
REMARK  status: ('A' for Active; 'I' for Inactive)
REMARK    1  A    between atoms: C_1  and  N_2
REMARK    2  A    between atoms: N_5  and  C_6
REMARK    3  A    between atoms: C_6  and  C_7
REMARK                            x       y       z     vdW  Elec       q    Type
REMARK                         _______ _______ _______ _____ _____    ______ ____
ROOT
ATOM      1  C   UNL     1       1.320   8.711  18.705  0.00  0.00    +0.000 C 
ATOM      2  O   UNL     1       1.481   8.696  17.478  0.00  0.00    +0.000 OA
ATOM      3  N   UNL     1       0.365   9.566  19.276  0.00  0.00    +0.000 N 
ATOM      4  C   UNL     1      -0.579  10.194  18.414  0.00  0.00    +0.000 A 
ATOM      5  C   UNL     1      -1.285   9.405  17.475  0.00  0.00    +0.000 A 
ATOM      6  C   UNL     1      -2.149   9.987  16.539  0.00  0.00    +0.000 A 
ATOM      7  C   UNL     1      -2.297  11.365  16.504  0.00  0.00    +0.000 A 
ATOM      8  C   UNL     1      -1.602  12.158  17.416  0.00  0.00    +0.000 A 
ATOM      9  C   UNL     1      -0.772  11.569  18.390  0.00  0.00    +0.000 A 
ATOM     10  C   UNL     1      -0.119  12.487  19.336  0.00  0.00    +0.000 C 
ATOM     11  O   UNL     1       0.224  13.610  18.978  0.00  0.00    +0.000 OA
ATOM     12  N   UNL     1      -0.083  12.155  20.661  0.00  0.00    +0.000 N 
ATOM     13  C   UNL     1      -0.184  10.899  21.277  0.00  0.00    +0.000 A 
ATOM     14  C   UNL     1      -0.426  10.923  22.660  0.00  0.00    +0.000 A 
ATOM     15  C   UNL     1      -0.384   9.749  23.398  0.00  0.00    +0.000 A 
ATOM     16  C   UNL     1      -0.076   8.586  22.728  0.00  0.00    +0.000 A 
ATOM     17  N   UNL     1       0.163   8.525  21.397  0.00  0.00    +0.000 NA
ATOM     18  C   UNL     1       0.090   9.668  20.666  0.00  0.00    +0.000 A 
ATOM     19  H   UNL     1       0.069  12.964  21.252  0.00  0.00    +0.000 HD
ENDROOT
BRANCH   1  20
ATOM     20  C   UNL     1       2.219   7.872  19.649  0.00  0.00    +0.000 C 
BRANCH  20  25
ATOM     21  C   UNL     1       2.891   2.146  19.565  0.00  0.00    +0.000 C 
ATOM     22  N   UNL     1       2.852   3.574  19.855  0.00  0.00    +0.000 NA
ATOM     23  C   UNL     1       1.485   4.102  19.722  0.00  0.00    +0.000 C 
ATOM     24  C   UNL     1       1.412   5.598  20.077  0.00  0.00    +0.000 C 
ATOM     25  N   UNL     1       2.325   6.433  19.254  0.00  0.00    +0.000 NA
ATOM     26  C   UNL     1       3.709   5.899  19.438  0.00  0.00    +0.000 C 
ATOM     27  C   UNL     1       4.793   6.634  18.634  0.00  0.00    +0.000 C 
ATOM     28  C   UNL     1       4.495   6.616  17.146  0.00  0.00    +0.000 C 
ATOM     29  C   UNL     1       4.268   5.219  16.585  0.00  0.00    +0.000 C 
ATOM     30  C   UNL     1       3.696   4.150  17.524  0.00  0.00    +0.000 C 
ATOM     31  C   UNL     1       3.805   4.384  19.050  0.00  0.00    +0.000 C 
ENDBRANCH  20  25
ENDBRANCH   1  20
TORSDOF 2
ENDMDL
MODEL 8
REMARK VINA RESULT:      -7.1      7.429      9.852
REMARK  Name = 
REMARK  3 active torsions:
REMARK  status: ('A' for Active; 'I' for Inactive)
REMARK    1  A    between atoms: C_1  and  N_2
REMARK    2  A    between atoms: N_5  and  C_6
REMARK    3  A    between atoms: C_6  and  C_7
REMARK                            x       y       z     vdW  Elec       q    Type
REMARK                         _______ _______ _______ _____ _____    ______ ____
ROOT
ATOM      1  C   UNL     1      -0.752  13.477  19.025  0.00  0.00    +0.000 C 
ATOM      2  O   UNL     1      -0.515  13.412  17.812  0.00  0.00    +0.000 OA
ATOM      3  N   UNL     1      -1.791  12.713  19.579  0.00  0.00    +0.000 N 
ATOM      4  C   UNL     1      -2.366  11.682  18.783  0.00  0.00    +0.000 A 
ATOM      5  C   UNL     1      -1.516  10.757  18.134  0.00  0.00    +0.000 A 
ATOM      6  C   UNL     1      -2.025   9.786  17.262  0.00  0.00    +0.000 A 
ATOM      7  C   UNL     1      -3.386   9.745  17.000  0.00  0.00    +0.000 A 
ATOM      8  C   UNL     1      -4.239  10.655  17.625  0.00  0.00    +0.000 A 
ATOM      9  C   UNL     1      -3.732  11.598  18.540  0.00  0.00    +0.000 A 
ATOM     10  C   UNL     1      -4.716  12.483  19.181  0.00  0.00    +0.000 C 
ATOM     11  O   UNL     1      -5.719  12.843  18.572  0.00  0.00    +0.000 OA
ATOM     12  N   UNL     1      -4.608  12.731  20.520  0.00  0.00    +0.000 N 
ATOM     13  C   UNL     1      -3.491  12.644  21.364  0.00  0.00    +0.000 A 
ATOM     14  C   UNL     1      -3.771  12.660  22.740  0.00  0.00    +0.000 A 
ATOM     15  C   UNL     1      -2.739  12.741  23.663  0.00  0.00    +0.000 A 
ATOM     16  C   UNL     1      -1.454  12.828  23.177  0.00  0.00    +0.000 A 
ATOM     17  N   UNL     1      -1.146  12.818  21.859  0.00  0.00    +0.000 NA
ATOM     18  C   UNL     1      -2.152  12.704  20.953  0.00  0.00    +0.000 A 
ATOM     19  H   UNL     1      -5.482  13.052  20.920  0.00  0.00    +0.000 HD
ENDROOT
BRANCH   1  20
ATOM     20  C   UNL     1       0.012  14.463  19.946  0.00  0.00    +0.000 C 
BRANCH  20  25
ATOM     21  C   UNL     1       5.175  16.789  18.864  0.00  0.00    +0.000 C 
ATOM     22  N   UNL     1       3.932  16.273  19.422  0.00  0.00    +0.000 NA
ATOM     23  C   UNL     1       3.720  14.870  19.031  0.00  0.00    +0.000 C 
ATOM     24  C   UNL     1       2.438  14.290  19.655  0.00  0.00    +0.000 C 
ATOM     25  N   UNL     1       1.221  15.067  19.306  0.00  0.00    +0.000 NA
ATOM     26  C   UNL     1       1.448  16.476  19.747  0.00  0.00    +0.000 C 
ATOM     27  C   UNL     1       0.290  17.439  19.442  0.00  0.00    +0.000 C 
ATOM     28  C   UNL     1      -0.032  17.476  17.959  0.00  0.00    +0.000 C 
ATOM     29  C   UNL     1       1.171  17.791  17.081  0.00  0.00    +0.000 C 
ATOM     30  C   UNL     1       2.558  17.376  17.584  0.00  0.00    +0.000 C 
ATOM     31  C   UNL     1       2.733  17.091  19.095  0.00  0.00    +0.000 C 
ENDBRANCH  20  25
ENDBRANCH   1  20
TORSDOF 2
ENDMDL
MODEL 9
REMARK VINA RESULT:      -7.1      4.562      7.333
REMARK  Name = 
REMARK  3 active torsions:
REMARK  status: ('A' for Active; 'I' for Inactive)
REMARK    1  A    between atoms: C_1  and  N_2
REMARK    2  A    between atoms: N_5  and  C_6
REMARK    3  A    between atoms: C_6  and  C_7
REMARK                            x       y       z     vdW  Elec       q    Type
REMARK                         _______ _______ _______ _____ _____    ______ ____
ROOT
ATOM      1  C   UNL     1      -0.455  12.052  21.070  0.00  0.00    +0.000 C 
ATOM      2  O   UNL     1       0.417  11.977  21.945  0.00  0.00    +0.000 OA
ATOM      3  N   UNL     1      -0.628  10.999  20.158  0.00  0.00    +0.000 N 
ATOM      4  C   UNL     1       0.017   9.759  20.432  0.00  0.00    +0.000 A 
ATOM      5  C   UNL     1      -0.117   9.181  21.715  0.00  0.00    +0.000 A 
ATOM      6  C   UNL     1       0.576   8.016  22.065  0.00  0.00    +0.000 A 
ATOM      7  C   UNL     1       1.440   7.430  21.152  0.00  0.00    +0.000 A 
ATOM      8  C   UNL     1       1.592   7.992  19.885  0.00  0.00    +0.000 A 
ATOM      9  C   UNL     1       0.856   9.135  19.516  0.00  0.00    +0.000 A 
ATOM     10  C   UNL     1       1.050   9.624  18.143  0.00  0.00    +0.000 C 
ATOM     11  O   UNL     1       2.141   9.515  17.592  0.00  0.00    +0.000 OA
ATOM     12  N   UNL     1      -0.041  10.013  17.419  0.00  0.00    +0.000 N 
ATOM     13  C   UNL     1      -1.305  10.438  17.854  0.00  0.00    +0.000 A 
ATOM     14  C   UNL     1      -2.305  10.467  16.869  0.00  0.00    +0.000 A 
ATOM     15  C   UNL     1      -3.546  11.022  17.147  0.00  0.00    +0.000 A 
ATOM     16  C   UNL     1      -3.739  11.554  18.402  0.00  0.00    +0.000 A 
ATOM     17  N   UNL     1      -2.799  11.546  19.376  0.00  0.00    +0.000 NA
ATOM     18  C   UNL     1      -1.594  10.973  19.117  0.00  0.00    +0.000 A 
ATOM     19  H   UNL     1       0.141  10.006  16.423  0.00  0.00    +0.000 HD
ENDROOT
BRANCH   1  20
ATOM     20  C   UNL     1      -1.309  13.334  20.888  0.00  0.00    +0.000 C 
BRANCH  20  25
ATOM     21  C   UNL     1       0.488  18.623  19.460  0.00  0.00    +0.000 C 
ATOM     22  N   UNL     1      -0.220  17.369  19.685  0.00  0.00    +0.000 NA
ATOM     23  C   UNL     1      -0.215  17.009  21.112  0.00  0.00    +0.000 C 
ATOM     24  C   UNL     1      -1.004  15.715  21.379  0.00  0.00    +0.000 C 
ATOM     25  N   UNL     1      -0.499  14.557  20.596  0.00  0.00    +0.000 NA
ATOM     26  C   UNL     1      -0.551  14.935  19.152  0.00  0.00    +0.000 C 
ATOM     27  C   UNL     1      -0.038  13.855  18.186  0.00  0.00    +0.000 C 
ATOM     28  C   UNL     1       1.393  13.459  18.499  0.00  0.00    +0.000 C 
ATOM     29  C   UNL     1       2.357  14.637  18.545  0.00  0.00    +0.000 C 
ATOM     30  C   UNL     1       1.803  16.006  18.956  0.00  0.00    +0.000 C 
ATOM     31  C   UNL     1       0.275  16.234  18.860  0.00  0.00    +0.000 C 
ENDBRANCH  20  25
ENDBRANCH   1  20
TORSDOF 2
ENDMDL
