MODEL 1
REMARK VINA RESULT:      -7.8      0.000      0.000
REMARK  Name = 
REMARK  9 active torsions:
REMARK  status: ('A' for Active; 'I' for Inactive)
REMARK    1  A    between atoms: C_1  and  O_2
REMARK    2  A    between atoms: O_2  and  C_3
REMARK    3  A    between atoms: C_6  and  C_7
REMARK    4  A    between atoms: N_11  and  C_12
REMARK    5  A    between atoms: C_12  and  C_13
REMARK    6  A    between atoms: C_12  and  C_14
REMARK    7  A    between atoms: C_18  and  C_19
REMARK    8  A    between atoms: C_28  and  C_29
REMARK    9  A    between atoms: C_29  and  O_31
REMARK                            x       y       z     vdW  Elec       q    Type
REMARK                         _______ _______ _______ _____ _____    ______ ____
ROOT
ATOM      1  C   UNL     1      -3.610  13.369  21.593  0.00  0.00    +0.000 C 
ATOM      2  C   UNL     1      -2.445  14.338  21.669  0.00  0.00    +0.000 A 
ATOM      3  N   UNL     1      -2.315  15.436  20.906  0.00  0.00    +0.000 NA
ATOM      4  C   UNL     1      -1.246  16.226  21.155  0.00  0.00    +0.000 A 
ATOM      5  N   UNL     1      -0.953  17.312  20.330  0.00  0.00    +0.000 N 
ATOM      6  C   UNL     1      -0.353  15.968  22.204  0.00  0.00    +0.000 A 
ATOM      7  C   UNL     1      -0.487  14.810  22.958  0.00  0.00    +0.000 A 
ATOM      8  C   UNL     1      -1.538  13.969  22.648  0.00  0.00    +0.000 A 
ATOM      9  C   UNL     1      -1.819  12.597  23.177  0.00  0.00    +0.000 C 
ATOM     10  C   UNL     1      -3.311  12.413  22.783  0.00  0.00    +0.000 C 
ATOM     11  H   UNL     1      -1.026  18.189  20.832  0.00  0.00    +0.000 HD
ENDROOT
BRANCH   9  12
ATOM     12  C   UNL     1      -0.919  11.502  22.612  0.00  0.00    +0.000 A 
ATOM     13  C   UNL     1      -0.833  10.194  23.162  0.00  0.00    +0.000 A 
ATOM     14  C   UNL     1      -0.106   9.178  22.534  0.00  0.00    +0.000 A 
ATOM     15  C   UNL     1       0.517   9.490  21.352  0.00  0.00    +0.000 A 
ATOM     16  C   UNL     1       0.503  10.770  20.842  0.00  0.00    +0.000 A 
ATOM     17  C   UNL     1      -0.182  11.794  21.449  0.00  0.00    +0.000 A 
ATOM     18  O   UNL     1       1.148  10.855  19.647  0.00  0.00    +0.000 OA
ATOM     19  C   UNL     1       1.225   9.451  19.335  0.00  0.00    +0.000 C 
ATOM     20  O   UNL     1       1.138   8.619  20.512  0.00  0.00    +0.000 OA
ENDBRANCH   9  12
BRANCH   1  24
ATOM     21  C   UNL     1      -4.201  11.520  17.700  0.00  0.00    +0.000 A 
ATOM     22  C   UNL     1      -2.921  11.630  18.228  0.00  0.00    +0.000 A 
ATOM     23  C   UNL     1      -2.710  12.211  19.479  0.00  0.00    +0.000 A 
ATOM     24  C   UNL     1      -3.780  12.704  20.238  0.00  0.00    +0.000 A 
ATOM     25  C   UNL     1      -5.069  12.599  19.685  0.00  0.00    +0.000 A 
ATOM     26  C   UNL     1      -5.282  12.010  18.430  0.00  0.00    +0.000 A 
BRANCH  21  28
ATOM     27  C   UNL     1      -3.022  10.831  15.768  0.00  0.00    +0.000 C 
ATOM     28  O   UNL     1      -4.256  10.950  16.461  0.00  0.00    +0.000 OA
ENDBRANCH  21  28
ENDBRANCH   1  24
BRANCH   5  29
ATOM     29  C   UNL     1      -1.502  17.307  18.980  0.00  0.00    +0.000 C 
ATOM     30  C   UNL     1      -2.300  18.571  18.676  0.00  0.00    +0.000 C 
ATOM     31  C   UNL     1      -0.320  17.184  18.016  0.00  0.00    +0.000 C 
ENDBRANCH   5  29
BRANCH  10  32
ATOM     32  C   UNL     1      -4.191  12.774  23.965  0.00  0.00    +0.000 C 
ATOM     33  O   UNL     1      -4.634  13.888  24.200  0.00  0.00    +0.000 OA
BRANCH  32  34
ATOM     34  O   UNL     1      -4.449  11.724  24.778  0.00  0.00    +0.000 OA
ATOM     35  H   UNL     1      -5.336  11.326  24.686  0.00  0.00    +0.000 HD
ENDBRANCH  32  34
ENDBRANCH  10  32
TORSDOF 6
ENDMDL
MODEL 2
REMARK VINA RESULT:      -7.8      2.194      5.661
REMARK  Name = 
REMARK  9 active torsions:
REMARK  status: ('A' for Active; 'I' for Inactive)
REMARK    1  A    between atoms: C_1  and  O_2
REMARK    2  A    between atoms: O_2  and  C_3
REMARK    3  A    between atoms: C_6  and  C_7
REMARK    4  A    between atoms: N_11  and  C_12
REMARK    5  A    between atoms: C_12  and  C_13
REMARK    6  A    between atoms: C_12  and  C_14
REMARK    7  A    between atoms: C_18  and  C_19
REMARK    8  A    between atoms: C_28  and  C_29
REMARK    9  A    between atoms: C_29  and  O_31
REMARK                            x       y       z     vdW  Elec       q    Type
REMARK                         _______ _______ _______ _____ _____    ______ ____
ROOT
ATOM      1  C   UNL     1       0.506  11.351  21.661  0.00  0.00    +0.000 C 
ATOM      2  C   UNL     1       1.245  12.157  20.609  0.00  0.00    +0.000 A 
ATOM      3  N   UNL     1       1.824  13.349  20.828  0.00  0.00    +0.000 NA
ATOM      4  C   UNL     1       2.499  13.896  19.792  0.00  0.00    +0.000 A 
ATOM      5  N   UNL     1       3.019  15.187  19.881  0.00  0.00    +0.000 N 
ATOM      6  C   UNL     1       2.664  13.229  18.570  0.00  0.00    +0.000 A 
ATOM      7  C   UNL     1       2.028  12.013  18.354  0.00  0.00    +0.000 A 
ATOM      8  C   UNL     1       1.277  11.498  19.391  0.00  0.00    +0.000 A 
ATOM      9  C   UNL     1       0.366  10.309  19.379  0.00  0.00    +0.000 C 
ATOM     10  C   UNL     1       0.201  10.030  20.899  0.00  0.00    +0.000 C 
ATOM     11  H   UNL     1       4.031  15.184  19.825  0.00  0.00    +0.000 HD
ENDROOT
BRANCH   9  12
ATOM     12  C   UNL     1      -0.967  10.538  18.672  0.00  0.00    +0.000 A 
ATOM     13  C   UNL     1      -1.948  11.461  19.125  0.00  0.00    +0.000 A 
ATOM     14  C   UNL     1      -3.093  11.745  18.374  0.00  0.00    +0.000 A 
ATOM     15  C   UNL     1      -3.229  11.103  17.169  0.00  0.00    +0.000 A 
ATOM     16  C   UNL     1      -2.323  10.153  16.747  0.00  0.00    +0.000 A 
ATOM     17  C   UNL     1      -1.202   9.835  17.475  0.00  0.00    +0.000 A 
ATOM     18  O   UNL     1      -2.623   9.668  15.513  0.00  0.00    +0.000 OA
ATOM     19  C   UNL     1      -3.572  10.672  15.103  0.00  0.00    +0.000 C 
ATOM     20  O   UNL     1      -4.177  11.349  16.225  0.00  0.00    +0.000 OA
ENDBRANCH   9  12
BRANCH   1  24
ATOM     21  C   UNL     1      -2.923  13.470  23.295  0.00  0.00    +0.000 A 
ATOM     22  C   UNL     1      -2.769  12.111  23.537  0.00  0.00    +0.000 A 
ATOM     23  C   UNL     1      -1.671  11.414  23.030  0.00  0.00    +0.000 A 
ATOM     24  C   UNL     1      -0.696  12.061  22.260  0.00  0.00    +0.000 A 
ATOM     25  C   UNL     1      -0.872  13.435  22.012  0.00  0.00    +0.000 A 
ATOM     26  C   UNL     1      -1.972  14.137  22.526  0.00  0.00    +0.000 A 
BRANCH  21  28
ATOM     27  C   UNL     1      -5.288  13.476  23.389  0.00  0.00    +0.000 C 
ATOM     28  O   UNL     1      -4.052  14.016  23.834  0.00  0.00    +0.000 OA
ENDBRANCH  21  28
ENDBRANCH   1  24
BRANCH   5  29
ATOM     29  C   UNL     1       2.441  16.086  20.873  0.00  0.00    +0.000 C 
ATOM     30  C   UNL     1       3.474  17.044  21.455  0.00  0.00    +0.000 C 
ATOM     31  C   UNL     1       1.329  16.869  20.173  0.00  0.00    +0.000 C 
ENDBRANCH   5  29
BRANCH  10  32
ATOM     32  C   UNL     1       1.184   8.955  21.323  0.00  0.00    +0.000 C 
ATOM     33  O   UNL     1       1.405   7.921  20.711  0.00  0.00    +0.000 OA
BRANCH  32  34
ATOM     34  O   UNL     1       1.816   9.238  22.486  0.00  0.00    +0.000 OA
ATOM     35  H   UNL     1       2.485   9.948  22.442  0.00  0.00    +0.000 HD
ENDBRANCH  32  34
ENDBRANCH  10  32
TORSDOF 6
ENDMDL
MODEL 3
REMARK VINA RESULT:      -7.6      2.184      5.548
REMARK  Name = 
REMARK  9 active torsions:
REMARK  status: ('A' for Active; 'I' for Inactive)
REMARK    1  A    between atoms: C_1  and  O_2
REMARK    2  A    between atoms: O_2  and  C_3
REMARK    3  A    between atoms: C_6  and  C_7
REMARK    4  A    between atoms: N_11  and  C_12
REMARK    5  A    between atoms: C_12  and  C_13
REMARK    6  A    between atoms: C_12  and  C_14
REMARK    7  A    between atoms: C_18  and  C_19
REMARK    8  A    between atoms: C_28  and  C_29
REMARK    9  A    between atoms: C_29  and  O_31
REMARK                            x       y       z     vdW  Elec       q    Type
REMARK                         _______ _______ _______ _____ _____    ______ ____
ROOT
ATOM      1  C   UNL     1       0.328  11.643  21.611  0.00  0.00    +0.000 C 
ATOM      2  C   UNL     1       1.096  12.340  20.504  0.00  0.00    +0.000 A 
ATOM      3  N   UNL     1       1.674  13.547  20.619  0.00  0.00    +0.000 NA
ATOM      4  C   UNL     1       2.378  13.987  19.551  0.00  0.00    +0.000 A 
ATOM      5  N   UNL     1       2.900  15.280  19.526  0.00  0.00    +0.000 N 
ATOM      6  C   UNL     1       2.569  13.203  18.406  0.00  0.00    +0.000 A 
ATOM      7  C   UNL     1       1.934  11.973  18.294  0.00  0.00    +0.000 A 
ATOM      8  C   UNL     1       1.155  11.564  19.358  0.00  0.00    +0.000 A 
ATOM      9  C   UNL     1       0.239  10.382  19.440  0.00  0.00    +0.000 C 
ATOM     10  C   UNL     1       0.036  10.254  20.976  0.00  0.00    +0.000 C 
ATOM     11  H   UNL     1       3.913  15.270  19.496  0.00  0.00    +0.000 HD
ENDROOT
BRANCH   9  12
ATOM     12  C   UNL     1      -1.075  10.542  18.681  0.00  0.00    +0.000 A 
ATOM     13  C   UNL     1      -2.132  11.390  19.110  0.00  0.00    +0.000 A 
ATOM     14  C   UNL     1      -3.260  11.618  18.316  0.00  0.00    +0.000 A 
ATOM     15  C   UNL     1      -3.304  10.999  17.093  0.00  0.00    +0.000 A 
ATOM     16  C   UNL     1      -2.322  10.118  16.692  0.00  0.00    +0.000 A 
ATOM     17  C   UNL     1      -1.214   9.855  17.460  0.00  0.00    +0.000 A 
ATOM     18  O   UNL     1      -2.538   9.645  15.435  0.00  0.00    +0.000 OA
ATOM     19  C   UNL     1      -3.531  10.596  15.006  0.00  0.00    +0.000 C 
ATOM     20  O   UNL     1      -4.225  11.207  16.115  0.00  0.00    +0.000 OA
ENDBRANCH   9  12
BRANCH   1  24
ATOM     21  C   UNL     1      -3.157  13.765  23.119  0.00  0.00    +0.000 A 
ATOM     22  C   UNL     1      -2.246  14.422  22.302  0.00  0.00    +0.000 A 
ATOM     23  C   UNL     1      -1.127  13.757  21.799  0.00  0.00    +0.000 A 
ATOM     24  C   UNL     1      -0.885  12.411  22.107  0.00  0.00    +0.000 A 
ATOM     25  C   UNL     1      -1.809  11.763  22.947  0.00  0.00    +0.000 A 
ATOM     26  C   UNL     1      -2.937  12.429  23.448  0.00  0.00    +0.000 A 
BRANCH  21  28
ATOM     27  C   UNL     1      -5.455  13.904  23.667  0.00  0.00    +0.000 C 
ATOM     28  O   UNL     1      -4.192  14.543  23.553  0.00  0.00    +0.000 OA
ENDBRANCH  21  28
ENDBRANCH   1  24
BRANCH   5  29
ATOM     29  C   UNL     1       2.302  16.273  20.410  0.00  0.00    +0.000 C 
ATOM     30  C   UNL     1       3.310  17.323  20.865  0.00  0.00    +0.000 C 
ATOM     31  C   UNL     1       1.163  16.936  19.633  0.00  0.00    +0.000 C 
ENDBRANCH   5  29
BRANCH  10  32
ATOM     32  C   UNL     1       1.003   9.224  21.528  0.00  0.00    +0.000 C 
ATOM     33  O   UNL     1       1.519   9.263  22.633  0.00  0.00    +0.000 OA
BRANCH  32  34
ATOM     34  O   UNL     1       1.270   8.223  20.657  0.00  0.00    +0.000 OA
ATOM     35  H   UNL     1       2.181   8.199  20.306  0.00  0.00    +0.000 HD
ENDBRANCH  32  34
ENDBRANCH  10  32
TORSDOF 6
ENDMDL
MODEL 4
REMARK VINA RESULT:      -7.6      1.989      2.914
REMARK  Name = 
REMARK  9 active torsions:
REMARK  status: ('A' for Active; 'I' for Inactive)
REMARK    1  A    between atoms: C_1  and  O_2
REMARK    2  A    between atoms: O_2  and  C_3
REMARK    3  A    between atoms: C_6  and  C_7
REMARK    4  A    between atoms: N_11  and  C_12
REMARK    5  A    between atoms: C_12  and  C_13
REMARK    6  A    between atoms: C_12  and  C_14
REMARK    7  A    between atoms: C_18  and  C_19
REMARK    8  A    between atoms: C_28  and  C_29
REMARK    9  A    between atoms: C_29  and  O_31
REMARK                            x       y       z     vdW  Elec       q    Type
REMARK                         _______ _______ _______ _____ _____    ______ ____
ROOT
ATOM      1  C   UNL     1      -1.675  12.297  20.599  0.00  0.00    +0.000 C 
ATOM      2  C   UNL     1      -0.507  13.247  20.410  0.00  0.00    +0.000 A 
ATOM      3  N   UNL     1      -0.607  14.489  19.908  0.00  0.00    +0.000 NA
ATOM      4  C   UNL     1       0.528  15.223  19.873  0.00  0.00    +0.000 A 
ATOM      5  N   UNL     1       0.552  16.471  19.250  0.00  0.00    +0.000 N 
ATOM      6  C   UNL     1       1.739  14.755  20.402  0.00  0.00    +0.000 A 
ATOM      7  C   UNL     1       1.828  13.456  20.883  0.00  0.00    +0.000 A 
ATOM      8  C   UNL     1       0.682  12.686  20.845  0.00  0.00    +0.000 A 
ATOM      9  C   UNL     1       0.532  11.226  21.139  0.00  0.00    +0.000 C 
ATOM     10  C   UNL     1      -1.004  11.107  21.341  0.00  0.00    +0.000 C 
ATOM     11  H   UNL     1       0.744  17.213  19.914  0.00  0.00    +0.000 HD
ENDROOT
BRANCH   9  12
ATOM     12  C   UNL     1       1.059  10.301  20.045  0.00  0.00    +0.000 A 
ATOM     13  C   UNL     1       1.447  10.753  18.754  0.00  0.00    +0.000 A 
ATOM     14  C   UNL     1       2.056   9.899  17.830  0.00  0.00    +0.000 A 
ATOM     15  C   UNL     1       2.277   8.603  18.220  0.00  0.00    +0.000 A 
ATOM     16  C   UNL     1       1.843   8.130  19.441  0.00  0.00    +0.000 A 
ATOM     17  C   UNL     1       1.220   8.938  20.361  0.00  0.00    +0.000 A 
ATOM     18  O   UNL     1       2.195   6.833  19.645  0.00  0.00    +0.000 OA
ATOM     19  C   UNL     1       3.176   6.700  18.598  0.00  0.00    +0.000 C 
ATOM     20  O   UNL     1       2.987   7.663  17.540  0.00  0.00    +0.000 OA
ENDBRANCH   9  12
BRANCH   1  24
ATOM     21  C   UNL     1      -3.867  11.363  16.960  0.00  0.00    +0.000 A 
ATOM     22  C   UNL     1      -2.484  11.233  16.989  0.00  0.00    +0.000 A 
ATOM     23  C   UNL     1      -1.763  11.518  18.149  0.00  0.00    +0.000 A 
ATOM     24  C   UNL     1      -2.409  11.948  19.316  0.00  0.00    +0.000 A 
ATOM     25  C   UNL     1      -3.808  12.088  19.268  0.00  0.00    +0.000 A 
ATOM     26  C   UNL     1      -4.534  11.796  18.104  0.00  0.00    +0.000 A 
BRANCH  21  28
ATOM     27  C   UNL     1      -3.616  10.393  14.816  0.00  0.00    +0.000 C 
ATOM     28  O   UNL     1      -4.438  11.070  15.755  0.00  0.00    +0.000 OA
ENDBRANCH  21  28
ENDBRANCH   1  24
BRANCH   5  29
ATOM     29  C   UNL     1      -0.480  16.757  18.262  0.00  0.00    +0.000 C 
ATOM     30  C   UNL     1      -1.668  17.499  18.865  0.00  0.00    +0.000 C 
ATOM     31  C   UNL     1       0.171  17.604  17.166  0.00  0.00    +0.000 C 
ENDBRANCH   5  29
BRANCH  10  32
ATOM     32  C   UNL     1      -1.324  11.179  22.822  0.00  0.00    +0.000 C 
ATOM     33  O   UNL     1      -2.174  11.897  23.325  0.00  0.00    +0.000 OA
BRANCH  32  34
ATOM     34  O   UNL     1      -0.554  10.360  23.575  0.00  0.00    +0.000 OA
ATOM     35  H   UNL     1       0.352  10.207  23.242  0.00  0.00    +0.000 HD
ENDBRANCH  32  34
ENDBRANCH  10  32
TORSDOF 6
ENDMDL
MODEL 5
REMARK VINA RESULT:      -7.4      1.959      5.199
REMARK  Name = 
REMARK  9 active torsions:
REMARK  status: ('A' for Active; 'I' for Inactive)
REMARK    1  A    between atoms: C_1  and  O_2
REMARK    2  A    between atoms: O_2  and  C_3
REMARK    3  A    between atoms: C_6  and  C_7
REMARK    4  A    between atoms: N_11  and  C_12
REMARK    5  A    between atoms: C_12  and  C_13
REMARK    6  A    between atoms: C_12  and  C_14
REMARK    7  A    between atoms: C_18  and  C_19
REMARK    8  A    between atoms: C_28  and  C_29
REMARK    9  A    between atoms: C_29  and  O_31
REMARK                            x       y       z     vdW  Elec       q    Type
REMARK                         _______ _______ _______ _____ _____    ______ ____
ROOT
ATOM      1  C   UNL     1      -0.367  11.830  22.239  0.00  0.00    +0.000 C 
ATOM      2  C   UNL     1       0.514  12.596  21.270  0.00  0.00    +0.000 A 
ATOM      3  N   UNL     1       1.018  13.820  21.502  0.00  0.00    +0.000 NA
ATOM      4  C   UNL     1       1.842  14.326  20.556  0.00  0.00    +0.000 A 
ATOM      5  N   UNL     1       2.307  15.639  20.643  0.00  0.00    +0.000 N 
ATOM      6  C   UNL     1       2.222  13.593  19.424  0.00  0.00    +0.000 A 
ATOM      7  C   UNL     1       1.662  12.345  19.187  0.00  0.00    +0.000 A 
ATOM      8  C   UNL     1       0.763  11.866  20.120  0.00  0.00    +0.000 A 
ATOM      9  C   UNL     1      -0.103  10.647  20.038  0.00  0.00    +0.000 C 
ATOM     10  C   UNL     1      -0.509  10.456  21.526  0.00  0.00    +0.000 C 
ATOM     11  H   UNL     1       3.313  15.668  20.753  0.00  0.00    +0.000 HD
ENDROOT
BRANCH   9  12
ATOM     12  C   UNL     1      -1.307  10.785  19.109  0.00  0.00    +0.000 A 
ATOM     13  C   UNL     1      -2.387  11.677  19.351  0.00  0.00    +0.000 A 
ATOM     14  C   UNL     1      -3.400  11.877  18.408  0.00  0.00    +0.000 A 
ATOM     15  C   UNL     1      -3.306  11.184  17.228  0.00  0.00    +0.000 A 
ATOM     16  C   UNL     1      -2.305  10.263  17.007  0.00  0.00    +0.000 A 
ATOM     17  C   UNL     1      -1.310  10.027  17.923  0.00  0.00    +0.000 A 
ATOM     18  O   UNL     1      -2.374   9.717  15.763  0.00  0.00    +0.000 OA
ATOM     19  C   UNL     1      -3.280  10.658  15.156  0.00  0.00    +0.000 C 
ATOM     20  O   UNL     1      -4.092  11.348  16.130  0.00  0.00    +0.000 OA
ENDBRANCH   9  12
BRANCH   1  24
ATOM     21  C   UNL     1      -4.081  13.908  23.139  0.00  0.00    +0.000 A 
ATOM     22  C   UNL     1      -3.853  12.640  23.657  0.00  0.00    +0.000 A 
ATOM     23  C   UNL     1      -2.665  11.960  23.389  0.00  0.00    +0.000 A 
ATOM     24  C   UNL     1      -1.669  12.532  22.586  0.00  0.00    +0.000 A 
ATOM     25  C   UNL     1      -1.918  13.811  22.057  0.00  0.00    +0.000 A 
ATOM     26  C   UNL     1      -3.110  14.498  22.331  0.00  0.00    +0.000 A 
BRANCH  21  28
ATOM     27  C   UNL     1      -6.343  13.523  23.717  0.00  0.00    +0.000 C 
ATOM     28  O   UNL     1      -5.293  14.445  23.466  0.00  0.00    +0.000 OA
ENDBRANCH  21  28
ENDBRANCH   1  24
BRANCH   5  29
ATOM     29  C   UNL     1       1.551  16.574  21.467  0.00  0.00    +0.000 C 
ATOM     30  C   UNL     1       2.449  17.606  22.141  0.00  0.00    +0.000 C 
ATOM     31  C   UNL     1       0.545  17.269  20.547  0.00  0.00    +0.000 C 
ENDBRANCH   5  29
BRANCH  10  32
ATOM     32  C   UNL     1       0.418   9.444  22.173  0.00  0.00    +0.000 C 
ATOM     33  O   UNL     1       0.974   8.525  21.593  0.00  0.00    +0.000 OA
BRANCH  32  34
ATOM     34  O   UNL     1       0.578   9.641  23.502  0.00  0.00    +0.000 OA
ATOM     35  H   UNL     1       1.313  10.231  23.757  0.00  0.00    +0.000 HD
ENDBRANCH  32  34
ENDBRANCH  10  32
TORSDOF 6
ENDMDL
MODEL 6
REMARK VINA RESULT:      -7.4      2.022      5.238
REMARK  Name = 
REMARK  9 active torsions:
REMARK  status: ('A' for Active; 'I' for Inactive)
REMARK    1  A    between atoms: C_1  and  O_2
REMARK    2  A    between atoms: O_2  and  C_3
REMARK    3  A    between atoms: C_6  and  C_7
REMARK    4  A    between atoms: N_11  and  C_12
REMARK    5  A    between atoms: C_12  and  C_13
REMARK    6  A    between atoms: C_12  and  C_14
REMARK    7  A    between atoms: C_18  and  C_19
REMARK    8  A    between atoms: C_28  and  C_29
REMARK    9  A    between atoms: C_29  and  O_31
REMARK                            x       y       z     vdW  Elec       q    Type
REMARK                         _______ _______ _______ _____ _____    ______ ____
ROOT
ATOM      1  C   UNL     1      -0.443  11.954  22.316  0.00  0.00    +0.000 C 
ATOM      2  C   UNL     1       0.478  12.654  21.335  0.00  0.00    +0.000 A 
ATOM      3  N   UNL     1       1.021  13.868  21.530  0.00  0.00    +0.000 NA
ATOM      4  C   UNL     1       1.875  14.311  20.580  0.00  0.00    +0.000 A 
ATOM      5  N   UNL     1       2.384  15.608  20.627  0.00  0.00    +0.000 N 
ATOM      6  C   UNL     1       2.247  13.524  19.481  0.00  0.00    +0.000 A 
ATOM      7  C   UNL     1       1.647  12.287  19.281  0.00  0.00    +0.000 A 
ATOM      8  C   UNL     1       0.719  11.874  20.216  0.00  0.00    +0.000 A 
ATOM      9  C   UNL     1      -0.187  10.683  20.164  0.00  0.00    +0.000 C 
ATOM     10  C   UNL     1      -0.622  10.560  21.652  0.00  0.00    +0.000 C 
ATOM     11  H   UNL     1       3.390  15.608  20.752  0.00  0.00    +0.000 HD
ENDROOT
BRANCH   9  12
ATOM     12  C   UNL     1      -1.372  10.827  19.212  0.00  0.00    +0.000 A 
ATOM     13  C   UNL     1      -2.458  11.716  19.439  0.00  0.00    +0.000 A 
ATOM     14  C   UNL     1      -3.451  11.923  18.477  0.00  0.00    +0.000 A 
ATOM     15  C   UNL     1      -3.332  11.240  17.293  0.00  0.00    +0.000 A 
ATOM     16  C   UNL     1      -2.325  10.322  17.085  0.00  0.00    +0.000 A 
ATOM     17  C   UNL     1      -1.349  10.079  18.020  0.00  0.00    +0.000 A 
ATOM     18  O   UNL     1      -2.367   9.787  15.836  0.00  0.00    +0.000 OA
ATOM     19  C   UNL     1      -3.262  10.732  15.218  0.00  0.00    +0.000 C 
ATOM     20  O   UNL     1      -4.095  11.413  16.181  0.00  0.00    +0.000 OA
ENDBRANCH   9  12
BRANCH   1  24
ATOM     21  C   UNL     1      -4.134  14.051  23.266  0.00  0.00    +0.000 A 
ATOM     22  C   UNL     1      -3.132  14.699  22.556  0.00  0.00    +0.000 A 
ATOM     23  C   UNL     1      -1.945  14.042  22.232  0.00  0.00    +0.000 A 
ATOM     24  C   UNL     1      -1.725  12.713  22.617  0.00  0.00    +0.000 A 
ATOM     25  C   UNL     1      -2.742  12.073  23.348  0.00  0.00    +0.000 A 
ATOM     26  C   UNL     1      -3.939  12.731  23.668  0.00  0.00    +0.000 A 
BRANCH  21  28
ATOM     27  C   UNL     1      -4.992  16.050  24.198  0.00  0.00    +0.000 C 
ATOM     28  O   UNL     1      -5.231  14.820  23.529  0.00  0.00    +0.000 OA
ENDBRANCH  21  28
ENDBRANCH   1  24
BRANCH   5  29
ATOM     29  C   UNL     1       1.649  16.599  21.404  0.00  0.00    +0.000 C 
ATOM     30  C   UNL     1       2.547  17.348  22.381  0.00  0.00    +0.000 C 
ATOM     31  C   UNL     1       1.023  17.576  20.406  0.00  0.00    +0.000 C 
ENDBRANCH   5  29
BRANCH  10  32
ATOM     32  C   UNL     1       0.260   9.542  22.350  0.00  0.00    +0.000 C 
ATOM     33  O   UNL     1       0.640   9.615  23.508  0.00  0.00    +0.000 OA
BRANCH  32  34
ATOM     34  O   UNL     1       0.616   8.509  21.552  0.00  0.00    +0.000 OA
ATOM     35  H   UNL     1       1.542   8.208  21.637  0.00  0.00    +0.000 HD
ENDBRANCH  32  34
ENDBRANCH  10  32
TORSDOF 6
ENDMDL
MODEL 7
REMARK VINA RESULT:      -7.3      3.771      7.497
REMARK  Name = 
REMARK  9 active torsions:
REMARK  status: ('A' for Active; 'I' for Inactive)
REMARK    1  A    between atoms: C_1  and  O_2
REMARK    2  A    between atoms: O_2  and  C_3
REMARK    3  A    between atoms: C_6  and  C_7
REMARK    4  A    between atoms: N_11  and  C_12
REMARK    5  A    between atoms: C_12  and  C_13
REMARK    6  A    between atoms: C_12  and  C_14
REMARK    7  A    between atoms: C_18  and  C_19
REMARK    8  A    between atoms: C_28  and  C_29
REMARK    9  A    between atoms: C_29  and  O_31
REMARK                            x       y       z     vdW  Elec       q    Type
REMARK                         _______ _______ _______ _____ _____    ______ ____
ROOT
ATOM      1  C   UNL     1      -5.343  11.792  20.437  0.00  0.00    +0.000 C 
ATOM      2  C   UNL     1      -4.513  11.746  19.167  0.00  0.00    +0.000 A 
ATOM      3  N   UNL     1      -3.170  11.705  19.135  0.00  0.00    +0.000 NA
ATOM      4  C   UNL     1      -2.595  11.598  17.916  0.00  0.00    +0.000 A 
ATOM      5  N   UNL     1      -1.210  11.681  17.770  0.00  0.00    +0.000 N 
ATOM      6  C   UNL     1      -3.349  11.457  16.743  0.00  0.00    +0.000 A 
ATOM      7  C   UNL     1      -4.734  11.538  16.796  0.00  0.00    +0.000 A 
ATOM      8  C   UNL     1      -5.311  11.724  18.036  0.00  0.00    +0.000 A 
ATOM      9  C   UNL     1      -6.745  12.007  18.363  0.00  0.00    +0.000 C 
ATOM     10  C   UNL     1      -6.789  11.669  19.879  0.00  0.00    +0.000 C 
ATOM     11  H   UNL     1      -0.822  10.812  17.423  0.00  0.00    +0.000 HD
ENDROOT
BRANCH   9  12
ATOM     12  C   UNL     1      -7.194  13.434  18.061  0.00  0.00    +0.000 A 
ATOM     13  C   UNL     1      -7.648  14.342  19.057  0.00  0.00    +0.000 A 
ATOM     14  C   UNL     1      -7.917  15.682  18.761  0.00  0.00    +0.000 A 
ATOM     15  C   UNL     1      -7.714  16.094  17.469  0.00  0.00    +0.000 A 
ATOM     16  C   UNL     1      -7.343  15.212  16.477  0.00  0.00    +0.000 A 
ATOM     17  C   UNL     1      -7.095  13.885  16.731  0.00  0.00    +0.000 A 
ATOM     18  O   UNL     1      -7.160  15.830  15.280  0.00  0.00    +0.000 OA
ATOM     19  C   UNL     1      -7.107  17.195  15.739  0.00  0.00    +0.000 C 
ATOM     20  O   UNL     1      -7.765  17.374  17.012  0.00  0.00    +0.000 OA
ENDBRANCH   9  12
BRANCH   1  24
ATOM     21  C   UNL     1      -4.558  15.323  22.853  0.00  0.00    +0.000 A 
ATOM     22  C   UNL     1      -5.237  14.243  23.404  0.00  0.00    +0.000 A 
ATOM     23  C   UNL     1      -5.490  13.097  22.649  0.00  0.00    +0.000 A 
ATOM     24  C   UNL     1      -5.073  13.002  21.314  0.00  0.00    +0.000 A 
ATOM     25  C   UNL     1      -4.399  14.108  20.766  0.00  0.00    +0.000 A 
ATOM     26  C   UNL     1      -4.139  15.258  21.526  0.00  0.00    +0.000 A 
BRANCH  21  28
ATOM     27  C   UNL     1      -3.356  17.292  23.378  0.00  0.00    +0.000 C 
ATOM     28  O   UNL     1      -4.398  16.383  23.699  0.00  0.00    +0.000 OA
ENDBRANCH  21  28
ENDBRANCH   1  24
BRANCH   5  29
ATOM     29  C   UNL     1      -0.454  12.336  18.830  0.00  0.00    +0.000 C 
ATOM     30  C   UNL     1       0.874  11.639  19.107  0.00  0.00    +0.000 C 
ATOM     31  C   UNL     1      -0.210  13.778  18.382  0.00  0.00    +0.000 C 
ENDBRANCH   5  29
BRANCH  10  32
ATOM     32  C   UNL     1      -7.291  10.250  20.064  0.00  0.00    +0.000 C 
ATOM     33  O   UNL     1      -7.499   9.710  21.139  0.00  0.00    +0.000 OA
BRANCH  32  34
ATOM     34  O   UNL     1      -7.488   9.597  18.894  0.00  0.00    +0.000 OA
ATOM     35  H   UNL     1      -8.418   9.501  18.615  0.00  0.00    +0.000 HD
ENDBRANCH  32  34
ENDBRANCH  10  32
TORSDOF 6
ENDMDL
MODEL 8
REMARK VINA RESULT:      -7.3      2.213      5.593
REMARK  Name = 
REMARK  9 active torsions:
REMARK  status: ('A' for Active; 'I' for Inactive)
REMARK    1  A    between atoms: C_1  and  O_2
REMARK    2  A    between atoms: O_2  and  C_3
REMARK    3  A    between atoms: C_6  and  C_7
REMARK    4  A    between atoms: N_11  and  C_12
REMARK    5  A    between atoms: C_12  and  C_13
REMARK    6  A    between atoms: C_12  and  C_14
REMARK    7  A    between atoms: C_18  and  C_19
REMARK    8  A    between atoms: C_28  and  C_29
REMARK    9  A    between atoms: C_29  and  O_31
REMARK                            x       y       z     vdW  Elec       q    Type
REMARK                         _______ _______ _______ _____ _____    ______ ____
ROOT
ATOM      1  C   UNL     1       0.363  11.527  21.584  0.00  0.00    +0.000 C 
ATOM      2  C   UNL     1       1.151  12.261  20.515  0.00  0.00    +0.000 A 
ATOM      3  N   UNL     1       1.742  13.455  20.688  0.00  0.00    +0.000 NA
ATOM      4  C   UNL     1       2.463  13.932  19.648  0.00  0.00    +0.000 A 
ATOM      5  N   UNL     1       3.001  15.218  19.684  0.00  0.00    +0.000 N 
ATOM      6  C   UNL     1       2.658  13.195  18.472  0.00  0.00    +0.000 A 
ATOM      7  C   UNL     1       2.009  11.979  18.301  0.00  0.00    +0.000 A 
ATOM      8  C   UNL     1       1.214  11.534  19.338  0.00  0.00    +0.000 A 
ATOM      9  C   UNL     1       0.284  10.361  19.360  0.00  0.00    +0.000 C 
ATOM     10  C   UNL     1       0.062  10.170  20.887  0.00  0.00    +0.000 C 
ATOM     11  H   UNL     1       4.014  15.197  19.664  0.00  0.00    +0.000 HD
ENDROOT
BRANCH   9  12
ATOM     12  C   UNL     1      -1.020  10.569  18.594  0.00  0.00    +0.000 A 
ATOM     13  C   UNL     1      -1.352   9.869  17.402  0.00  0.00    +0.000 A 
ATOM     14  C   UNL     1      -2.613   9.984  16.810  0.00  0.00    +0.000 A 
ATOM     15  C   UNL     1      -3.529  10.794  17.431  0.00  0.00    +0.000 A 
ATOM     16  C   UNL     1      -3.201  11.535  18.546  0.00  0.00    +0.000 A 
ATOM     17  C   UNL     1      -1.963  11.463  19.137  0.00  0.00    +0.000 A 
ATOM     18  O   UNL     1      -4.260  12.241  19.024  0.00  0.00    +0.000 OA
ATOM     19  C   UNL     1      -5.316  11.571  18.309  0.00  0.00    +0.000 C 
ATOM     20  O   UNL     1      -4.844  10.922  17.109  0.00  0.00    +0.000 OA
ENDBRANCH   9  12
BRANCH   1  24
ATOM     21  C   UNL     1      -3.114  13.624  23.144  0.00  0.00    +0.000 A 
ATOM     22  C   UNL     1      -2.178  14.308  22.379  0.00  0.00    +0.000 A 
ATOM     23  C   UNL     1      -1.061  13.652  21.861  0.00  0.00    +0.000 A 
ATOM     24  C   UNL     1      -0.846  12.288  22.100  0.00  0.00    +0.000 A 
ATOM     25  C   UNL     1      -1.795  11.611  22.888  0.00  0.00    +0.000 A 
ATOM     26  C   UNL     1      -2.921  12.269  23.404  0.00  0.00    +0.000 A 
BRANCH  21  28
ATOM     27  C   UNL     1      -5.408  13.757  23.708  0.00  0.00    +0.000 C 
ATOM     28  O   UNL     1      -4.144  14.395  23.602  0.00  0.00    +0.000 OA
ENDBRANCH  21  28
ENDBRANCH   1  24
BRANCH   5  29
ATOM     29  C   UNL     1       2.405  16.180  20.603  0.00  0.00    +0.000 C 
ATOM     30  C   UNL     1       3.386  17.273  21.011  0.00  0.00    +0.000 C 
ATOM     31  C   UNL     1       1.198  16.792  19.890  0.00  0.00    +0.000 C 
ENDBRANCH   5  29
BRANCH  10  32
ATOM     32  C   UNL     1       1.011   9.106  21.404  0.00  0.00    +0.000 C 
ATOM     33  O   UNL     1       1.354   8.108  20.789  0.00  0.00    +0.000 OA
BRANCH  32  34
ATOM     34  O   UNL     1       1.459   9.353  22.657  0.00  0.00    +0.000 OA
ATOM     35  H   UNL     1       1.733  10.273  22.834  0.00  0.00    +0.000 HD
ENDBRANCH  32  34
ENDBRANCH  10  32
TORSDOF 6
ENDMDL
MODEL 9
REMARK VINA RESULT:      -7.0      2.073      5.377
REMARK  Name = 
REMARK  9 active torsions:
REMARK  status: ('A' for Active; 'I' for Inactive)
REMARK    1  A    between atoms: C_1  and  O_2
REMARK    2  A    between atoms: O_2  and  C_3
REMARK    3  A    between atoms: C_6  and  C_7
REMARK    4  A    between atoms: N_11  and  C_12
REMARK    5  A    between atoms: C_12  and  C_13
REMARK    6  A    between atoms: C_12  and  C_14
REMARK    7  A    between atoms: C_18  and  C_19
REMARK    8  A    between atoms: C_28  and  C_29
REMARK    9  A    between atoms: C_29  and  O_31
REMARK                            x       y       z     vdW  Elec       q    Type
REMARK                         _______ _______ _______ _____ _____    ______ ____
ROOT
ATOM      1  C   UNL     1       0.043  11.713  21.825  0.00  0.00    +0.000 C 
ATOM      2  C   UNL     1       0.869  12.498  20.824  0.00  0.00    +0.000 A 
ATOM      3  N   UNL     1       1.374  13.723  21.044  0.00  0.00    +0.000 NA
ATOM      4  C   UNL     1       2.146  14.247  20.065  0.00  0.00    +0.000 A 
ATOM      5  N   UNL     1       2.604  15.563  20.145  0.00  0.00    +0.000 N 
ATOM      6  C   UNL     1       2.476  13.530  18.908  0.00  0.00    +0.000 A 
ATOM      7  C   UNL     1       1.916  12.279  18.685  0.00  0.00    +0.000 A 
ATOM      8  C   UNL     1       1.067  11.783  19.655  0.00  0.00    +0.000 A 
ATOM      9  C   UNL     1       0.209  10.557  19.601  0.00  0.00    +0.000 C 
ATOM     10  C   UNL     1      -0.122  10.346  21.105  0.00  0.00    +0.000 C 
ATOM     11  H   UNL     1       3.615  15.600  20.206  0.00  0.00    +0.000 HD
ENDROOT
BRANCH   9  12
ATOM     12  C   UNL     1      -1.040  10.694  18.734  0.00  0.00    +0.000 A 
ATOM     13  C   UNL     1      -1.248   9.959  17.535  0.00  0.00    +0.000 A 
ATOM     14  C   UNL     1      -2.463  10.007  16.845  0.00  0.00    +0.000 A 
ATOM     15  C   UNL     1      -3.459  10.787  17.378  0.00  0.00    +0.000 A 
ATOM     16  C   UNL     1      -3.250  11.561  18.499  0.00  0.00    +0.000 A 
ATOM     17  C   UNL     1      -2.060  11.554  19.185  0.00  0.00    +0.000 A 
ATOM     18  O   UNL     1      -4.373  12.227  18.881  0.00  0.00    +0.000 OA
ATOM     19  C   UNL     1      -5.340  11.498  18.102  0.00  0.00    +0.000 C 
ATOM     20  O   UNL     1      -4.749  10.850  16.955  0.00  0.00    +0.000 OA
ENDBRANCH   9  12
BRANCH   1  24
ATOM     21  C   UNL     1      -3.639  13.749  22.929  0.00  0.00    +0.000 A 
ATOM     22  C   UNL     1      -3.378  12.476  23.418  0.00  0.00    +0.000 A 
ATOM     23  C   UNL     1      -2.199  11.810  23.085  0.00  0.00    +0.000 A 
ATOM     24  C   UNL     1      -1.246  12.400  22.244  0.00  0.00    +0.000 A 
ATOM     25  C   UNL     1      -1.530  13.684  21.745  0.00  0.00    +0.000 A 
ATOM     26  C   UNL     1      -2.712  14.358  22.085  0.00  0.00    +0.000 A 
BRANCH  21  28
ATOM     27  C   UNL     1      -5.879  13.340  23.573  0.00  0.00    +0.000 C 
ATOM     28  O   UNL     1      -4.838  14.272  23.321  0.00  0.00    +0.000 OA
ENDBRANCH  21  28
ENDBRANCH   1  24
BRANCH   5  29
ATOM     29  C   UNL     1       1.881  16.482  21.015  0.00  0.00    +0.000 C 
ATOM     30  C   UNL     1       2.806  17.502  21.672  0.00  0.00    +0.000 C 
ATOM     31  C   UNL     1       0.841  17.194  20.148  0.00  0.00    +0.000 C 
ENDBRANCH   5  29
BRANCH  10  32
ATOM     32  C   UNL     1       0.843   9.335  21.695  0.00  0.00    +0.000 C 
ATOM     33  O   UNL     1       1.490   9.492  22.719  0.00  0.00    +0.000 OA
BRANCH  32  34
ATOM     34  O   UNL     1       0.945   8.203  20.960  0.00  0.00    +0.000 OA
ATOM     35  H   UNL     1       0.561   7.401  21.364  0.00  0.00    +0.000 HD
ENDBRANCH  32  34
ENDBRANCH  10  32
TORSDOF 6
ENDMDL
