MODEL 1
REMARK VINA RESULT:      -7.6      0.000      0.000
REMARK  Name = 
REMARK  6 active torsions:
REMARK  status: ('A' for Active; 'I' for Inactive)
REMARK    1  A    between atoms: C_1  and  O_2
REMARK    2  A    between atoms: O_2  and  C_3
REMARK    3  A    between atoms: C_6  and  C_7
REMARK    4  A    between atoms: N_9  and  C_10
REMARK    5  A    between atoms: C_20  and  O_21
REMARK    6  A    between atoms: O_21  and  C_22
REMARK                            x       y       z     vdW  Elec       q    Type
REMARK                         _______ _______ _______ _____ _____    ______ ____
ROOT
ATOM      1  C   UNL     1       2.632   6.480  18.738  0.00  0.00    +0.000 C 
ATOM      2  O   UNL     1       1.925   5.737  19.410  0.00  0.00    +0.000 OA
ATOM      3  N   UNL     1       2.525   7.860  18.646  0.00  0.00    +0.000 N 
ATOM      4  H   UNL     1       3.044   8.326  17.912  0.00  0.00    +0.000 HD
ENDROOT
BRANCH   3   5
ATOM      5  C   UNL     1       1.592   8.650  19.360  0.00  0.00    +0.000 A 
ATOM      6  C   UNL     1       0.804   9.630  18.742  0.00  0.00    +0.000 A 
ATOM      7  C   UNL     1      -0.087  10.433  19.460  0.00  0.00    +0.000 A 
ATOM      8  C   UNL     1      -0.173  10.224  20.836  0.00  0.00    +0.000 A 
ATOM      9  N   UNL     1      -0.941  10.866  21.777  0.00  0.00    +0.000 N 
ATOM     10  C   UNL     1      -0.700  10.342  23.018  0.00  0.00    +0.000 A 
ATOM     11  C   UNL     1       0.231   9.336  22.876  0.00  0.00    +0.000 A 
ATOM     12  C   UNL     1       0.573   9.248  21.496  0.00  0.00    +0.000 A 
ATOM     13  C   UNL     1       1.456   8.440  20.741  0.00  0.00    +0.000 A 
ATOM     14  H   UNL     1      -1.579  11.624  21.575  0.00  0.00    +0.000 HD
ENDBRANCH   3   5
BRANCH   1  18
ATOM     15  C   UNL     1       5.520   4.493  16.264  0.00  0.00    +0.000 A 
ATOM     16  C   UNL     1       4.383   3.827  16.743  0.00  0.00    +0.000 A 
ATOM     17  C   UNL     1       3.454   4.495  17.536  0.00  0.00    +0.000 A 
ATOM     18  C   UNL     1       3.662   5.830  17.893  0.00  0.00    +0.000 A 
ATOM     19  C   UNL     1       4.839   6.470  17.500  0.00  0.00    +0.000 A 
ATOM     20  C   UNL     1       5.780   5.808  16.693  0.00  0.00    +0.000 A 
BRANCH  15  22
ATOM     21  C   UNL     1       6.153   4.054  14.026  0.00  0.00    +0.000 C 
ATOM     22  O   UNL     1       6.391   3.859  15.421  0.00  0.00    +0.000 OA
ENDBRANCH  15  22
BRANCH  20  23
ATOM     23  O   UNL     1       6.865   6.598  16.418  0.00  0.00    +0.000 OA
ATOM     24  C   UNL     1       7.458   7.339  17.473  0.00  0.00    +0.000 C 
ENDBRANCH  20  23
ENDBRANCH   1  18
TORSDOF 4
ENDMDL
MODEL 2
REMARK VINA RESULT:      -7.3      2.662      8.298
REMARK  Name = 
REMARK  6 active torsions:
REMARK  status: ('A' for Active; 'I' for Inactive)
REMARK    1  A    between atoms: C_1  and  O_2
REMARK    2  A    between atoms: O_2  and  C_3
REMARK    3  A    between atoms: C_6  and  C_7
REMARK    4  A    between atoms: N_9  and  C_10
REMARK    5  A    between atoms: C_20  and  O_21
REMARK    6  A    between atoms: O_21  and  C_22
REMARK                            x       y       z     vdW  Elec       q    Type
REMARK                         _______ _______ _______ _____ _____    ______ ____
ROOT
ATOM      1  C   UNL     1       2.073   8.098  18.766  0.00  0.00    +0.000 C 
ATOM      2  O   UNL     1       1.949   8.483  17.609  0.00  0.00    +0.000 OA
ATOM      3  N   UNL     1       2.702   6.936  19.187  0.00  0.00    +0.000 N 
ATOM      4  H   UNL     1       2.565   6.646  20.147  0.00  0.00    +0.000 HD
ENDROOT
BRANCH   3   5
ATOM      5  C   UNL     1       3.353   6.012  18.333  0.00  0.00    +0.000 A 
ATOM      6  C   UNL     1       2.810   4.757  18.028  0.00  0.00    +0.000 A 
ATOM      7  C   UNL     1       3.476   3.834  17.216  0.00  0.00    +0.000 A 
ATOM      8  C   UNL     1       4.718   4.209  16.704  0.00  0.00    +0.000 A 
ATOM      9  N   UNL     1       5.588   3.508  15.903  0.00  0.00    +0.000 N 
ATOM     10  C   UNL     1       6.703   4.260  15.649  0.00  0.00    +0.000 A 
ATOM     11  C   UNL     1       6.548   5.470  16.289  0.00  0.00    +0.000 A 
ATOM     12  C   UNL     1       5.292   5.453  16.961  0.00  0.00    +0.000 A 
ATOM     13  C   UNL     1       4.589   6.373  17.774  0.00  0.00    +0.000 A 
ATOM     14  H   UNL     1       5.424   2.570  15.565  0.00  0.00    +0.000 HD
ENDBRANCH   3   5
BRANCH   1  18
ATOM     15  C   UNL     1       0.270  10.416  21.895  0.00  0.00    +0.000 A 
ATOM     16  C   UNL     1       0.777   9.131  22.134  0.00  0.00    +0.000 A 
ATOM     17  C   UNL     1       1.367   8.401  21.105  0.00  0.00    +0.000 A 
ATOM     18  C   UNL     1       1.430   8.929  19.813  0.00  0.00    +0.000 A 
ATOM     19  C   UNL     1       0.843  10.167  19.547  0.00  0.00    +0.000 A 
ATOM     20  C   UNL     1       0.251  10.916  20.580  0.00  0.00    +0.000 A 
BRANCH  15  22
ATOM     21  C   UNL     1      -1.649  11.064  23.119  0.00  0.00    +0.000 C 
ATOM     22  O   UNL     1      -0.238  11.163  22.922  0.00  0.00    +0.000 OA
ENDBRANCH  15  22
BRANCH  20  23
ATOM     23  O   UNL     1      -0.271  12.096  20.120  0.00  0.00    +0.000 OA
ATOM     24  C   UNL     1      -1.421  12.060  19.288  0.00  0.00    +0.000 C 
ENDBRANCH  20  23
ENDBRANCH   1  18
TORSDOF 4
ENDMDL
MODEL 3
REMARK VINA RESULT:      -7.3      1.981      2.343
REMARK  Name = 
REMARK  6 active torsions:
REMARK  status: ('A' for Active; 'I' for Inactive)
REMARK    1  A    between atoms: C_1  and  O_2
REMARK    2  A    between atoms: O_2  and  C_3
REMARK    3  A    between atoms: C_6  and  C_7
REMARK    4  A    between atoms: N_9  and  C_10
REMARK    5  A    between atoms: C_20  and  O_21
REMARK    6  A    between atoms: O_21  and  C_22
REMARK                            x       y       z     vdW  Elec       q    Type
REMARK                         _______ _______ _______ _____ _____    ______ ____
ROOT
ATOM      1  C   UNL     1       2.566   7.594  18.433  0.00  0.00    +0.000 C 
ATOM      2  O   UNL     1       2.190   7.341  19.572  0.00  0.00    +0.000 OA
ATOM      3  N   UNL     1       2.122   8.632  17.628  0.00  0.00    +0.000 N 
ATOM      4  H   UNL     1       2.373   8.611  16.647  0.00  0.00    +0.000 HD
ENDROOT
BRANCH   3   5
ATOM      5  C   UNL     1       1.177   9.612  18.018  0.00  0.00    +0.000 A 
ATOM      6  C   UNL     1       1.536  10.761  18.736  0.00  0.00    +0.000 A 
ATOM      7  C   UNL     1       0.592  11.705  19.151  0.00  0.00    +0.000 A 
ATOM      8  C   UNL     1      -0.741  11.469  18.818  0.00  0.00    +0.000 A 
ATOM      9  N   UNL     1      -1.864  12.209  19.104  0.00  0.00    +0.000 N 
ATOM     10  C   UNL     1      -2.974  11.596  18.590  0.00  0.00    +0.000 A 
ATOM     11  C   UNL     1      -2.562  10.446  17.953  0.00  0.00    +0.000 A 
ATOM     12  C   UNL     1      -1.147  10.353  18.087  0.00  0.00    +0.000 A 
ATOM     13  C   UNL     1      -0.169   9.422  17.668  0.00  0.00    +0.000 A 
ATOM     14  H   UNL     1      -1.861  13.073  19.629  0.00  0.00    +0.000 HD
ENDBRANCH   3   5
BRANCH   1  18
ATOM     15  C   UNL     1       5.299   4.782  16.689  0.00  0.00    +0.000 A 
ATOM     16  C   UNL     1       4.049   4.380  17.181  0.00  0.00    +0.000 A 
ATOM     17  C   UNL     1       3.175   5.313  17.733  0.00  0.00    +0.000 A 
ATOM     18  C   UNL     1       3.547   6.655  17.835  0.00  0.00    +0.000 A 
ATOM     19  C   UNL     1       4.827   7.045  17.436  0.00  0.00    +0.000 A 
ATOM     20  C   UNL     1       5.715   6.114  16.869  0.00  0.00    +0.000 A 
BRANCH  15  22
ATOM     21  C   UNL     1       6.120   3.910  14.647  0.00  0.00    +0.000 C 
ATOM     22  O   UNL     1       6.125   3.880  16.076  0.00  0.00    +0.000 OA
ENDBRANCH  15  22
BRANCH  20  23
ATOM     23  O   UNL     1       6.917   6.686  16.547  0.00  0.00    +0.000 OA
ATOM     24  C   UNL     1       7.584   7.477  17.519  0.00  0.00    +0.000 C 
ENDBRANCH  20  23
ENDBRANCH   1  18
TORSDOF 4
ENDMDL
MODEL 4
REMARK VINA RESULT:      -7.3      0.864      1.879
REMARK  Name = 
REMARK  6 active torsions:
REMARK  status: ('A' for Active; 'I' for Inactive)
REMARK    1  A    between atoms: C_1  and  O_2
REMARK    2  A    between atoms: O_2  and  C_3
REMARK    3  A    between atoms: C_6  and  C_7
REMARK    4  A    between atoms: N_9  and  C_10
REMARK    5  A    between atoms: C_20  and  O_21
REMARK    6  A    between atoms: O_21  and  C_22
REMARK                            x       y       z     vdW  Elec       q    Type
REMARK                         _______ _______ _______ _____ _____    ______ ____
ROOT
ATOM      1  C   UNL     1       2.681   6.739  18.614  0.00  0.00    +0.000 C 
ATOM      2  O   UNL     1       2.097   6.101  19.483  0.00  0.00    +0.000 OA
ATOM      3  N   UNL     1       2.441   8.057  18.256  0.00  0.00    +0.000 N 
ATOM      4  H   UNL     1       2.860   8.398  17.399  0.00  0.00    +0.000 HD
ENDROOT
BRANCH   3   5
ATOM      5  C   UNL     1       1.495   8.907  18.879  0.00  0.00    +0.000 A 
ATOM      6  C   UNL     1       1.335   8.964  20.270  0.00  0.00    +0.000 A 
ATOM      7  C   UNL     1       0.372   9.777  20.876  0.00  0.00    +0.000 A 
ATOM      8  C   UNL     1      -0.434  10.548  20.041  0.00  0.00    +0.000 A 
ATOM      9  N   UNL     1      -1.455  11.414  20.357  0.00  0.00    +0.000 N 
ATOM     10  C   UNL     1      -1.984  11.953  19.216  0.00  0.00    +0.000 A 
ATOM     11  C   UNL     1      -1.288  11.436  18.145  0.00  0.00    +0.000 A 
ATOM     12  C   UNL     1      -0.301  10.545  18.653  0.00  0.00    +0.000 A 
ATOM     13  C   UNL     1       0.691   9.723  18.068  0.00  0.00    +0.000 A 
ATOM     14  H   UNL     1      -1.769  11.608  21.298  0.00  0.00    +0.000 HD
ENDBRANCH   3   5
BRANCH   1  18
ATOM     15  C   UNL     1       5.535   4.515  16.307  0.00  0.00    +0.000 A 
ATOM     16  C   UNL     1       4.348   3.928  16.768  0.00  0.00    +0.000 A 
ATOM     17  C   UNL     1       3.432   4.672  17.507  0.00  0.00    +0.000 A 
ATOM     18  C   UNL     1       3.701   6.005  17.826  0.00  0.00    +0.000 A 
ATOM     19  C   UNL     1       4.923   6.568  17.453  0.00  0.00    +0.000 A 
ATOM     20  C   UNL     1       5.852   5.828  16.700  0.00  0.00    +0.000 A 
BRANCH  15  22
ATOM     21  C   UNL     1       6.242   3.998  14.108  0.00  0.00    +0.000 C 
ATOM     22  O   UNL     1       6.397   3.806  15.515  0.00  0.00    +0.000 OA
ENDBRANCH  15  22
BRANCH  20  23
ATOM     23  O   UNL     1       6.986   6.549  16.437  0.00  0.00    +0.000 OA
ATOM     24  C   UNL     1       7.529   7.372  17.459  0.00  0.00    +0.000 C 
ENDBRANCH  20  23
ENDBRANCH   1  18
TORSDOF 4
ENDMDL
MODEL 5
REMARK VINA RESULT:      -7.3      3.132      8.303
REMARK  Name = 
REMARK  6 active torsions:
REMARK  status: ('A' for Active; 'I' for Inactive)
REMARK    1  A    between atoms: C_1  and  O_2
REMARK    2  A    between atoms: O_2  and  C_3
REMARK    3  A    between atoms: C_6  and  C_7
REMARK    4  A    between atoms: N_9  and  C_10
REMARK    5  A    between atoms: C_20  and  O_21
REMARK    6  A    between atoms: O_21  and  C_22
REMARK                            x       y       z     vdW  Elec       q    Type
REMARK                         _______ _______ _______ _____ _____    ______ ____
ROOT
ATOM      1  C   UNL     1       1.621   8.125  20.012  0.00  0.00    +0.000 C 
ATOM      2  O   UNL     1       1.893   8.449  18.861  0.00  0.00    +0.000 OA
ATOM      3  N   UNL     1       1.870   6.896  20.604  0.00  0.00    +0.000 N 
ATOM      4  H   UNL     1       1.424   6.700  21.491  0.00  0.00    +0.000 HD
ENDROOT
BRANCH   3   5
ATOM      5  C   UNL     1       2.531   5.813  19.976  0.00  0.00    +0.000 A 
ATOM      6  C   UNL     1       3.868   5.884  19.561  0.00  0.00    +0.000 A 
ATOM      7  C   UNL     1       4.502   4.824  18.906  0.00  0.00    +0.000 A 
ATOM      8  C   UNL     1       3.754   3.670  18.679  0.00  0.00    +0.000 A 
ATOM      9  N   UNL     1       4.111   2.498  18.056  0.00  0.00    +0.000 N 
ATOM     10  C   UNL     1       3.053   1.630  18.045  0.00  0.00    +0.000 A 
ATOM     11  C   UNL     1       1.998   2.246  18.681  0.00  0.00    +0.000 A 
ATOM     12  C   UNL     1       2.428   3.540  19.090  0.00  0.00    +0.000 A 
ATOM     13  C   UNL     1       1.816   4.624  19.763  0.00  0.00    +0.000 A 
ATOM     14  H   UNL     1       5.022   2.318  17.655  0.00  0.00    +0.000 HD
ENDBRANCH   3   5
BRANCH   1  18
ATOM     15  C   UNL     1      -0.473  10.936  22.487  0.00  0.00    +0.000 A 
ATOM     16  C   UNL     1      -0.377   9.582  22.836  0.00  0.00    +0.000 A 
ATOM     17  C   UNL     1       0.317   8.690  22.022  0.00  0.00    +0.000 A 
ATOM     18  C   UNL     1       0.896   9.128  20.829  0.00  0.00    +0.000 A 
ATOM     19  C   UNL     1       0.722  10.454  20.427  0.00  0.00    +0.000 A 
ATOM     20  C   UNL     1       0.031  11.365  21.245  0.00  0.00    +0.000 A 
BRANCH  15  22
ATOM     21  C   UNL     1      -2.500  11.959  23.158  0.00  0.00    +0.000 C 
ATOM     22  O   UNL     1      -1.087  11.826  23.325  0.00  0.00    +0.000 OA
ENDBRANCH  15  22
BRANCH  20  23
ATOM     23  O   UNL     1      -0.037  12.610  20.678  0.00  0.00    +0.000 OA
ATOM     24  C   UNL     1       1.164  13.241  20.259  0.00  0.00    +0.000 C 
ENDBRANCH  20  23
ENDBRANCH   1  18
TORSDOF 4
ENDMDL
MODEL 6
REMARK VINA RESULT:      -7.2      2.692      8.257
REMARK  Name = 
REMARK  6 active torsions:
REMARK  status: ('A' for Active; 'I' for Inactive)
REMARK    1  A    between atoms: C_1  and  O_2
REMARK    2  A    between atoms: O_2  and  C_3
REMARK    3  A    between atoms: C_6  and  C_7
REMARK    4  A    between atoms: N_9  and  C_10
REMARK    5  A    between atoms: C_20  and  O_21
REMARK    6  A    between atoms: O_21  and  C_22
REMARK                            x       y       z     vdW  Elec       q    Type
REMARK                         _______ _______ _______ _____ _____    ______ ____
ROOT
ATOM      1  C   UNL     1       1.934   8.540  18.219  0.00  0.00    +0.000 C 
ATOM      2  O   UNL     1       2.266   8.956  17.114  0.00  0.00    +0.000 OA
ATOM      3  N   UNL     1       2.262   7.311  18.772  0.00  0.00    +0.000 N 
ATOM      4  H   UNL     1       1.766   7.021  19.605  0.00  0.00    +0.000 HD
ENDROOT
BRANCH   3   5
ATOM      5  C   UNL     1       3.086   6.339  18.155  0.00  0.00    +0.000 A 
ATOM      6  C   UNL     1       2.652   5.030  17.908  0.00  0.00    +0.000 A 
ATOM      7  C   UNL     1       3.484   4.064  17.334  0.00  0.00    +0.000 A 
ATOM      8  C   UNL     1       4.782   4.451  17.003  0.00  0.00    +0.000 A 
ATOM      9  N   UNL     1       5.804   3.718  16.448  0.00  0.00    +0.000 N 
ATOM     10  C   UNL     1       6.918   4.499  16.305  0.00  0.00    +0.000 A 
ATOM     11  C   UNL     1       6.609   5.761  16.764  0.00  0.00    +0.000 A 
ATOM     12  C   UNL     1       5.256   5.746  17.208  0.00  0.00    +0.000 A 
ATOM     13  C   UNL     1       4.387   6.706  17.778  0.00  0.00    +0.000 A 
ATOM     14  H   UNL     1       5.736   2.741  16.198  0.00  0.00    +0.000 HD
ENDBRANCH   3   5
BRANCH   1  18
ATOM     15  C   UNL     1      -0.740  11.085  20.407  0.00  0.00    +0.000 A 
ATOM     16  C   UNL     1      -0.791  10.998  19.009  0.00  0.00    +0.000 A 
ATOM     17  C   UNL     1       0.080  10.157  18.321  0.00  0.00    +0.000 A 
ATOM     18  C   UNL     1       1.039   9.416  19.015  0.00  0.00    +0.000 A 
ATOM     19  C   UNL     1       1.159   9.570  20.397  0.00  0.00    +0.000 A 
ATOM     20  C   UNL     1       0.280  10.410  21.103  0.00  0.00    +0.000 A 
BRANCH  15  22
ATOM     21  C   UNL     1      -1.806  13.188  20.614  0.00  0.00    +0.000 C 
ATOM     22  O   UNL     1      -1.648  11.850  21.088  0.00  0.00    +0.000 OA
ENDBRANCH  15  22
BRANCH  20  23
ATOM     23  O   UNL     1       0.559  10.431  22.444  0.00  0.00    +0.000 OA
ATOM     24  C   UNL     1      -0.103   9.511  23.298  0.00  0.00    +0.000 C 
ENDBRANCH  20  23
ENDBRANCH   1  18
TORSDOF 4
ENDMDL
MODEL 7
REMARK VINA RESULT:      -7.2      2.251      3.194
REMARK  Name = 
REMARK  6 active torsions:
REMARK  status: ('A' for Active; 'I' for Inactive)
REMARK    1  A    between atoms: C_1  and  O_2
REMARK    2  A    between atoms: O_2  and  C_3
REMARK    3  A    between atoms: C_6  and  C_7
REMARK    4  A    between atoms: N_9  and  C_10
REMARK    5  A    between atoms: C_20  and  O_21
REMARK    6  A    between atoms: O_21  and  C_22
REMARK                            x       y       z     vdW  Elec       q    Type
REMARK                         _______ _______ _______ _____ _____    ______ ____
ROOT
ATOM      1  C   UNL     1       2.351   7.771  18.659  0.00  0.00    +0.000 C 
ATOM      2  O   UNL     1       1.998   7.632  19.825  0.00  0.00    +0.000 OA
ATOM      3  N   UNL     1       1.894   8.729  17.767  0.00  0.00    +0.000 N 
ATOM      4  H   UNL     1       2.125   8.612  16.788  0.00  0.00    +0.000 HD
ENDROOT
BRANCH   3   5
ATOM      5  C   UNL     1       0.962   9.748  18.079  0.00  0.00    +0.000 A 
ATOM      6  C   UNL     1       1.337  10.951  18.691  0.00  0.00    +0.000 A 
ATOM      7  C   UNL     1       0.405  11.937  19.031  0.00  0.00    +0.000 A 
ATOM      8  C   UNL     1      -0.933  11.684  18.733  0.00  0.00    +0.000 A 
ATOM      9  N   UNL     1      -2.047  12.456  18.964  0.00  0.00    +0.000 N 
ATOM     10  C   UNL     1      -3.168  11.811  18.515  0.00  0.00    +0.000 A 
ATOM     11  C   UNL     1      -2.771  10.606  17.977  0.00  0.00    +0.000 A 
ATOM     12  C   UNL     1      -1.356  10.513  18.106  0.00  0.00    +0.000 A 
ATOM     13  C   UNL     1      -0.389   9.540  17.760  0.00  0.00    +0.000 A 
ATOM     14  H   UNL     1      -2.032  13.362  19.412  0.00  0.00    +0.000 HD
ENDBRANCH   3   5
BRANCH   1  18
ATOM     15  C   UNL     1       5.218   4.993  17.087  0.00  0.00    +0.000 A 
ATOM     16  C   UNL     1       5.146   6.313  16.621  0.00  0.00    +0.000 A 
ATOM     17  C   UNL     1       4.214   7.200  17.153  0.00  0.00    +0.000 A 
ATOM     18  C   UNL     1       3.316   6.774  18.135  0.00  0.00    +0.000 A 
ATOM     19  C   UNL     1       3.319   5.436  18.535  0.00  0.00    +0.000 A 
ATOM     20  C   UNL     1       4.261   4.534  18.010  0.00  0.00    +0.000 A 
BRANCH  15  22
ATOM     21  C   UNL     1       6.730   4.474  15.341  0.00  0.00    +0.000 C 
ATOM     22  O   UNL     1       6.185   4.145  16.620  0.00  0.00    +0.000 OA
ENDBRANCH  15  22
BRANCH  20  23
ATOM     23  O   UNL     1       4.100   3.273  18.520  0.00  0.00    +0.000 OA
ATOM     24  C   UNL     1       3.214   2.376  17.868  0.00  0.00    +0.000 C 
ENDBRANCH  20  23
ENDBRANCH   1  18
TORSDOF 4
ENDMDL
MODEL 8
REMARK VINA RESULT:      -7.2      1.568      2.246
REMARK  Name = 
REMARK  6 active torsions:
REMARK  status: ('A' for Active; 'I' for Inactive)
REMARK    1  A    between atoms: C_1  and  O_2
REMARK    2  A    between atoms: O_2  and  C_3
REMARK    3  A    between atoms: C_6  and  C_7
REMARK    4  A    between atoms: N_9  and  C_10
REMARK    5  A    between atoms: C_20  and  O_21
REMARK    6  A    between atoms: O_21  and  C_22
REMARK                            x       y       z     vdW  Elec       q    Type
REMARK                         _______ _______ _______ _____ _____    ______ ____
ROOT
ATOM      1  C   UNL     1       2.251   6.997  19.721  0.00  0.00    +0.000 C 
ATOM      2  O   UNL     1       1.627   6.405  20.594  0.00  0.00    +0.000 OA
ATOM      3  N   UNL     1       2.030   8.294  19.283  0.00  0.00    +0.000 N 
ATOM      4  H   UNL     1       2.488   8.589  18.430  0.00  0.00    +0.000 HD
ENDROOT
BRANCH   3   5
ATOM      5  C   UNL     1       1.058   9.175  19.816  0.00  0.00    +0.000 A 
ATOM      6  C   UNL     1       0.340  10.076  19.019  0.00  0.00    +0.000 A 
ATOM      7  C   UNL     1      -0.590  10.970  19.558  0.00  0.00    +0.000 A 
ATOM      8  C   UNL     1      -0.791  10.934  20.937  0.00  0.00    +0.000 A 
ATOM      9  N   UNL     1      -1.620  11.695  21.727  0.00  0.00    +0.000 N 
ATOM     10  C   UNL     1      -1.489  11.326  23.038  0.00  0.00    +0.000 A 
ATOM     11  C   UNL     1      -0.568  10.303  23.097  0.00  0.00    +0.000 A 
ATOM     12  C   UNL     1      -0.118  10.042  21.772  0.00  0.00    +0.000 A 
ATOM     13  C   UNL     1       0.808   9.139  21.197  0.00  0.00    +0.000 A 
ATOM     14  H   UNL     1      -2.225  12.427  21.381  0.00  0.00    +0.000 HD
ENDBRANCH   3   5
BRANCH   1  18
ATOM     15  C   UNL     1       5.319   4.870  17.604  0.00  0.00    +0.000 A 
ATOM     16  C   UNL     1       4.688   5.992  17.048  0.00  0.00    +0.000 A 
ATOM     17  C   UNL     1       3.702   6.672  17.758  0.00  0.00    +0.000 A 
ATOM     18  C   UNL     1       3.306   6.224  19.020  0.00  0.00    +0.000 A 
ATOM     19  C   UNL     1       3.861   5.053  19.538  0.00  0.00    +0.000 A 
ATOM     20  C   UNL     1       4.863   4.362  18.834  0.00  0.00    +0.000 A 
BRANCH  15  22
ATOM     21  C   UNL     1       6.350   4.421  15.521  0.00  0.00    +0.000 C 
ATOM     22  O   UNL     1       6.342   4.250  16.940  0.00  0.00    +0.000 OA
ENDBRANCH  15  22
BRANCH  20  23
ATOM     23  O   UNL     1       5.276   3.240  19.502  0.00  0.00    +0.000 OA
ATOM     24  C   UNL     1       4.299   2.339  20.001  0.00  0.00    +0.000 C 
ENDBRANCH  20  23
ENDBRANCH   1  18
TORSDOF 4
ENDMDL
MODEL 9
REMARK VINA RESULT:      -7.1      1.117      2.179
REMARK  Name = 
REMARK  6 active torsions:
REMARK  status: ('A' for Active; 'I' for Inactive)
REMARK    1  A    between atoms: C_1  and  O_2
REMARK    2  A    between atoms: O_2  and  C_3
REMARK    3  A    between atoms: C_6  and  C_7
REMARK    4  A    between atoms: N_9  and  C_10
REMARK    5  A    between atoms: C_20  and  O_21
REMARK    6  A    between atoms: O_21  and  C_22
REMARK                            x       y       z     vdW  Elec       q    Type
REMARK                         _______ _______ _______ _____ _____    ______ ____
ROOT
ATOM      1  C   UNL     1       2.518   6.601  19.206  0.00  0.00    +0.000 C 
ATOM      2  O   UNL     1       2.109   6.050  20.222  0.00  0.00    +0.000 OA
ATOM      3  N   UNL     1       2.216   7.888  18.787  0.00  0.00    +0.000 N 
ATOM      4  H   UNL     1       2.465   8.148  17.840  0.00  0.00    +0.000 HD
ENDROOT
BRANCH   3   5
ATOM      5  C   UNL     1       1.408   8.805  19.502  0.00  0.00    +0.000 A 
ATOM      6  C   UNL     1       0.956  10.007  18.943  0.00  0.00    +0.000 A 
ATOM      7  C   UNL     1       0.191  10.926  19.668  0.00  0.00    +0.000 A 
ATOM      8  C   UNL     1      -0.120  10.601  20.987  0.00  0.00    +0.000 A 
ATOM      9  N   UNL     1      -0.834  11.311  21.923  0.00  0.00    +0.000 N 
ATOM     10  C   UNL     1      -0.886  10.617  23.101  0.00  0.00    +0.000 A 
ATOM     11  C   UNL     1      -0.203   9.434  22.922  0.00  0.00    +0.000 A 
ATOM     12  C   UNL     1       0.286   9.409  21.584  0.00  0.00    +0.000 A 
ATOM     13  C   UNL     1       1.048   8.492  20.822  0.00  0.00    +0.000 A 
ATOM     14  H   UNL     1      -1.246  12.220  21.759  0.00  0.00    +0.000 HD
ENDBRANCH   3   5
BRANCH   1  18
ATOM     15  C   UNL     1       5.059   4.357  16.576  0.00  0.00    +0.000 A 
ATOM     16  C   UNL     1       5.068   5.758  16.584  0.00  0.00    +0.000 A 
ATOM     17  C   UNL     1       4.242   6.465  17.453  0.00  0.00    +0.000 A 
ATOM     18  C   UNL     1       3.368   5.785  18.305  0.00  0.00    +0.000 A 
ATOM     19  C   UNL     1       3.285   4.394  18.235  0.00  0.00    +0.000 A 
ATOM     20  C   UNL     1       4.120   3.669  17.367  0.00  0.00    +0.000 A 
BRANCH  15  22
ATOM     21  C   UNL     1       6.208   4.255  14.509  0.00  0.00    +0.000 C 
ATOM     22  O   UNL     1       5.927   3.662  15.778  0.00  0.00    +0.000 OA
ENDBRANCH  15  22
BRANCH  20  23
ATOM     23  O   UNL     1       3.886   2.321  17.439  0.00  0.00    +0.000 OA
ATOM     24  C   UNL     1       3.472   1.762  18.676  0.00  0.00    +0.000 C 
ENDBRANCH  20  23
ENDBRANCH   1  18
TORSDOF 4
ENDMDL
