MODEL 1
REMARK VINA RESULT:      -8.1      0.000      0.000
REMARK  Name = 
REMARK  8 active torsions:
REMARK  status: ('A' for Active; 'I' for Inactive)
REMARK    1  A    between atoms: C_1  and  C_2
REMARK    2  A    between atoms: C_2  and  C_3
REMARK    3  A    between atoms: C_2  and  S_4
REMARK    4  A    between atoms: S_4  and  N_7
REMARK    5  A    between atoms: N_7  and  C_8
REMARK    6  A    between atoms: C_13  and  C_14
REMARK    7  A    between atoms: C_14  and  C_15
REMARK    8  A    between atoms: C_18  and  C_19
REMARK                            x       y       z     vdW  Elec       q    Type
REMARK                         _______ _______ _______ _____ _____    ______ ____
ROOT
ATOM      1  C   UNL     1       0.894  10.724  18.602  0.00  0.00    +0.000 C 
ATOM      2  C   UNL     1       0.930  10.388  20.105  0.00  0.00    +0.000 C 
ATOM      3  C   UNL     1       1.287   8.932  20.085  0.00  0.00    +0.000 A 
ATOM      4  C   UNL     1       1.132   8.005  21.097  0.00  0.00    +0.000 A 
ATOM      5  C   UNL     1       1.597   6.706  20.879  0.00  0.00    +0.000 A 
ATOM      6  C   UNL     1       2.227   6.350  19.666  0.00  0.00    +0.000 A 
ATOM      7  C   UNL     1       2.360   7.306  18.645  0.00  0.00    +0.000 A 
ATOM      8  C   UNL     1       1.882   8.586  18.868  0.00  0.00    +0.000 A 
ATOM      9  C   UNL     1       1.946   9.777  17.960  0.00  0.00    +0.000 C 
ENDROOT
BRANCH   1  10
ATOM     10  N   UNL     1      -0.447  10.451  17.958  0.00  0.00    +0.000 NA
ATOM     11  H   UNL     1      -0.301  10.243  16.971  0.00  0.00    +0.000 HD
BRANCH  10  12
ATOM     12  S   UNL     1      -1.613  11.670  18.117  0.00  0.00    +0.000 S 
ATOM     13  O   UNL     1      -0.928  12.916  17.852  0.00  0.00    +0.000 OA
ATOM     14  O   UNL     1      -2.329  11.453  19.352  0.00  0.00    +0.000 OA
BRANCH  12  16
ATOM     15  C   UNL     1      -2.433   9.934  16.178  0.00  0.00    +0.000 C 
ATOM     16  C   UNL     1      -2.736  11.320  16.743  0.00  0.00    +0.000 C 
ATOM     17  C   UNL     1      -4.200  11.407  17.162  0.00  0.00    +0.000 C 
ENDBRANCH  12  16
ENDBRANCH  10  12
ENDBRANCH   1  10
BRANCH   6  18
ATOM     18  C   UNL     1       2.755   4.945  19.471  0.00  0.00    +0.000 C 
BRANCH  18  19
ATOM     19  C   UNL     1       3.853   4.830  18.470  0.00  0.00    +0.000 A 
ATOM     20  C   UNL     1       3.930   4.392  17.163  0.00  0.00    +0.000 A 
ATOM     21  C   UNL     1       5.291   4.481  16.787  0.00  0.00    +0.000 A 
ATOM     22  C   UNL     1       5.974   4.973  17.883  0.00  0.00    +0.000 A 
ATOM     23  O   UNL     1       5.095   5.190  18.910  0.00  0.00    +0.000 OA
BRANCH  22  24
ATOM     24  C   UNL     1       7.404   5.278  18.133  0.00  0.00    +0.000 C 
ATOM     25  F   UNL     1       7.827   6.344  17.401  0.00  0.00    +0.000 F 
ATOM     26  F   UNL     1       7.647   5.582  19.434  0.00  0.00    +0.000 F 
ATOM     27  F   UNL     1       8.218   4.239  17.809  0.00  0.00    +0.000 F 
ENDBRANCH  22  24
ENDBRANCH  18  19
ENDBRANCH   6  18
TORSDOF 6
ENDMDL
MODEL 2
REMARK VINA RESULT:      -8.1      1.307      1.661
REMARK  Name = 
REMARK  8 active torsions:
REMARK  status: ('A' for Active; 'I' for Inactive)
REMARK    1  A    between atoms: C_1  and  C_2
REMARK    2  A    between atoms: C_2  and  C_3
REMARK    3  A    between atoms: C_2  and  S_4
REMARK    4  A    between atoms: S_4  and  N_7
REMARK    5  A    between atoms: N_7  and  C_8
REMARK    6  A    between atoms: C_13  and  C_14
REMARK    7  A    between atoms: C_14  and  C_15
REMARK    8  A    between atoms: C_18  and  C_19
REMARK                            x       y       z     vdW  Elec       q    Type
REMARK                         _______ _______ _______ _____ _____    ______ ____
ROOT
ATOM      1  C   UNL     1       0.908  10.657  18.654  0.00  0.00    +0.000 C 
ATOM      2  C   UNL     1       1.004  10.213  20.126  0.00  0.00    +0.000 C 
ATOM      3  C   UNL     1       1.385   8.771  19.986  0.00  0.00    +0.000 A 
ATOM      4  C   UNL     1       1.282   7.769  20.933  0.00  0.00    +0.000 A 
ATOM      5  C   UNL     1       1.761   6.499  20.604  0.00  0.00    +0.000 A 
ATOM      6  C   UNL     1       2.352   6.244  19.347  0.00  0.00    +0.000 A 
ATOM      7  C   UNL     1       2.432   7.275  18.395  0.00  0.00    +0.000 A 
ATOM      8  C   UNL     1       1.941   8.526  18.727  0.00  0.00    +0.000 A 
ATOM      9  C   UNL     1       1.951   9.780  17.907  0.00  0.00    +0.000 C 
ENDROOT
BRANCH   1  10
ATOM     10  N   UNL     1      -0.451  10.406  18.039  0.00  0.00    +0.000 NA
ATOM     11  H   UNL     1      -0.326  10.154  17.059  0.00  0.00    +0.000 HD
BRANCH  10  12
ATOM     12  S   UNL     1      -1.573  11.670  18.163  0.00  0.00    +0.000 S 
ATOM     13  O   UNL     1      -0.864  12.872  17.783  0.00  0.00    +0.000 OA
ATOM     14  O   UNL     1      -2.237  11.560  19.441  0.00  0.00    +0.000 OA
BRANCH  12  16
ATOM     15  C   UNL     1      -2.487   9.859  16.339  0.00  0.00    +0.000 C 
ATOM     16  C   UNL     1      -2.767  11.264  16.867  0.00  0.00    +0.000 C 
ATOM     17  C   UNL     1      -4.206  11.361  17.363  0.00  0.00    +0.000 C 
ENDBRANCH  12  16
ENDBRANCH  10  12
ENDBRANCH   1  10
BRANCH   6  18
ATOM     18  C   UNL     1       2.897   4.868  19.031  0.00  0.00    +0.000 C 
BRANCH  18  19
ATOM     19  C   UNL     1       4.294   4.860  18.511  0.00  0.00    +0.000 A 
ATOM     20  C   UNL     1       5.539   5.036  19.080  0.00  0.00    +0.000 A 
ATOM     21  C   UNL     1       6.478   4.969  18.023  0.00  0.00    +0.000 A 
ATOM     22  C   UNL     1       5.757   4.752  16.864  0.00  0.00    +0.000 A 
ATOM     23  O   UNL     1       4.423   4.681  17.163  0.00  0.00    +0.000 OA
BRANCH  22  24
ATOM     24  C   UNL     1       6.146   4.603  15.441  0.00  0.00    +0.000 C 
ATOM     25  F   UNL     1       5.272   5.230  14.610  0.00  0.00    +0.000 F 
ATOM     26  F   UNL     1       7.371   5.130  15.183  0.00  0.00    +0.000 F 
ATOM     27  F   UNL     1       6.184   3.301  15.051  0.00  0.00    +0.000 F 
ENDBRANCH  22  24
ENDBRANCH  18  19
ENDBRANCH   6  18
TORSDOF 6
ENDMDL
MODEL 3
REMARK VINA RESULT:      -8.0      5.025      8.868
REMARK  Name = 
REMARK  8 active torsions:
REMARK  status: ('A' for Active; 'I' for Inactive)
REMARK    1  A    between atoms: C_1  and  C_2
REMARK    2  A    between atoms: C_2  and  C_3
REMARK    3  A    between atoms: C_2  and  S_4
REMARK    4  A    between atoms: S_4  and  N_7
REMARK    5  A    between atoms: N_7  and  C_8
REMARK    6  A    between atoms: C_13  and  C_14
REMARK    7  A    between atoms: C_14  and  C_15
REMARK    8  A    between atoms: C_18  and  C_19
REMARK                            x       y       z     vdW  Elec       q    Type
REMARK                         _______ _______ _______ _____ _____    ______ ____
ROOT
ATOM      1  C   UNL     1       3.368   5.552  19.218  0.00  0.00    +0.000 C 
ATOM      2  C   UNL     1       2.292   5.741  20.305  0.00  0.00    +0.000 C 
ATOM      3  C   UNL     1       1.905   7.175  20.107  0.00  0.00    +0.000 A 
ATOM      4  C   UNL     1       1.244   8.007  20.990  0.00  0.00    +0.000 A 
ATOM      5  C   UNL     1       0.927   9.300  20.567  0.00  0.00    +0.000 A 
ATOM      6  C   UNL     1       1.254   9.744  19.267  0.00  0.00    +0.000 A 
ATOM      7  C   UNL     1       1.940   8.885  18.391  0.00  0.00    +0.000 A 
ATOM      8  C   UNL     1       2.261   7.611  18.827  0.00  0.00    +0.000 A 
ATOM      9  C   UNL     1       2.944   6.511  18.071  0.00  0.00    +0.000 C 
ENDROOT
BRANCH   1  10
ATOM     10  N   UNL     1       4.756   5.942  19.674  0.00  0.00    +0.000 NA
ATOM     11  H   UNL     1       4.949   6.892  19.362  0.00  0.00    +0.000 HD
BRANCH  10  12
ATOM     12  S   UNL     1       6.016   4.916  19.191  0.00  0.00    +0.000 S 
ATOM     13  O   UNL     1       5.478   3.574  19.234  0.00  0.00    +0.000 OA
ATOM     14  O   UNL     1       7.201   5.276  19.933  0.00  0.00    +0.000 OA
BRANCH  12  16
ATOM     15  C   UNL     1       6.668   6.859  17.390  0.00  0.00    +0.000 C 
ATOM     16  C   UNL     1       6.265   5.388  17.463  0.00  0.00    +0.000 C 
ATOM     17  C   UNL     1       7.315   4.520  16.777  0.00  0.00    +0.000 C 
ENDBRANCH  12  16
ENDBRANCH  10  12
ENDBRANCH   1  10
BRANCH   6  18
ATOM     18  C   UNL     1       0.866  11.137  18.822  0.00  0.00    +0.000 C 
BRANCH  18  19
ATOM     19  C   UNL     1      -0.603  11.379  18.755  0.00  0.00    +0.000 A 
ATOM     20  C   UNL     1      -1.471  12.250  19.381  0.00  0.00    +0.000 A 
ATOM     21  C   UNL     1      -2.769  11.928  18.921  0.00  0.00    +0.000 A 
ATOM     22  C   UNL     1      -2.626  10.877  18.034  0.00  0.00    +0.000 A 
ATOM     23  O   UNL     1      -1.303  10.544  17.930  0.00  0.00    +0.000 OA
BRANCH  22  24
ATOM     24  C   UNL     1      -3.593  10.089  17.233  0.00  0.00    +0.000 C 
ATOM     25  F   UNL     1      -4.102   9.044  17.940  0.00  0.00    +0.000 F 
ATOM     26  F   UNL     1      -4.654  10.832  16.826  0.00  0.00    +0.000 F 
ATOM     27  F   UNL     1      -3.028   9.560  16.116  0.00  0.00    +0.000 F 
ENDBRANCH  22  24
ENDBRANCH  18  19
ENDBRANCH   6  18
TORSDOF 6
ENDMDL
MODEL 4
REMARK VINA RESULT:      -8.0      5.120      8.675
REMARK  Name = 
REMARK  8 active torsions:
REMARK  status: ('A' for Active; 'I' for Inactive)
REMARK    1  A    between atoms: C_1  and  C_2
REMARK    2  A    between atoms: C_2  and  C_3
REMARK    3  A    between atoms: C_2  and  S_4
REMARK    4  A    between atoms: S_4  and  N_7
REMARK    5  A    between atoms: N_7  and  C_8
REMARK    6  A    between atoms: C_13  and  C_14
REMARK    7  A    between atoms: C_14  and  C_15
REMARK    8  A    between atoms: C_18  and  C_19
REMARK                            x       y       z     vdW  Elec       q    Type
REMARK                         _______ _______ _______ _____ _____    ______ ____
ROOT
ATOM      1  C   UNL     1       3.918   5.124  18.687  0.00  0.00    +0.000 C 
ATOM      2  C   UNL     1       4.110   6.297  17.706  0.00  0.00    +0.000 C 
ATOM      3  C   UNL     1       3.059   7.259  18.170  0.00  0.00    +0.000 A 
ATOM      4  C   UNL     1       2.523   8.329  17.481  0.00  0.00    +0.000 A 
ATOM      5  C   UNL     1       1.593   9.138  18.137  0.00  0.00    +0.000 A 
ATOM      6  C   UNL     1       1.221   8.885  19.476  0.00  0.00    +0.000 A 
ATOM      7  C   UNL     1       1.769   7.782  20.153  0.00  0.00    +0.000 A 
ATOM      8  C   UNL     1       2.679   6.979  19.487  0.00  0.00    +0.000 A 
ATOM      9  C   UNL     1       3.424   5.785  20.004  0.00  0.00    +0.000 C 
ENDROOT
BRANCH   1  10
ATOM     10  N   UNL     1       2.872   4.129  18.234  0.00  0.00    +0.000 NA
ATOM     11  H   UNL     1       1.951   4.485  18.483  0.00  0.00    +0.000 HD
BRANCH  10  12
ATOM     12  S   UNL     1       3.047   2.546  18.814  0.00  0.00    +0.000 S 
ATOM     13  O   UNL     1       4.348   2.492  19.443  0.00  0.00    +0.000 OA
ATOM     14  O   UNL     1       2.685   1.635  17.754  0.00  0.00    +0.000 OA
BRANCH  12  16
ATOM     15  C   UNL     1       2.422   2.645  21.468  0.00  0.00    +0.000 C 
ATOM     16  C   UNL     1       1.776   2.456  20.097  0.00  0.00    +0.000 C 
ATOM     17  C   UNL     1       0.675   3.490  19.888  0.00  0.00    +0.000 C 
ENDBRANCH  12  16
ENDBRANCH  10  12
ENDBRANCH   1  10
BRANCH   6  18
ATOM     18  C   UNL     1       0.239   9.799  20.175  0.00  0.00    +0.000 C 
BRANCH  18  19
ATOM     19  C   UNL     1      -0.425  10.792  19.284  0.00  0.00    +0.000 A 
ATOM     20  C   UNL     1      -0.340  12.161  19.126  0.00  0.00    +0.000 A 
ATOM     21  C   UNL     1      -1.290  12.513  18.139  0.00  0.00    +0.000 A 
ATOM     22  C   UNL     1      -1.904  11.340  17.742  0.00  0.00    +0.000 A 
ATOM     23  O   UNL     1      -1.373  10.288  18.439  0.00  0.00    +0.000 OA
BRANCH  22  24
ATOM     24  C   UNL     1      -2.977  11.038  16.764  0.00  0.00    +0.000 C 
ATOM     25  F   UNL     1      -4.052  11.856  16.926  0.00  0.00    +0.000 F 
ATOM     26  F   UNL     1      -2.564  11.195  15.480  0.00  0.00    +0.000 F 
ATOM     27  F   UNL     1      -3.439   9.766  16.880  0.00  0.00    +0.000 F 
ENDBRANCH  22  24
ENDBRANCH  18  19
ENDBRANCH   6  18
TORSDOF 6
ENDMDL
MODEL 5
REMARK VINA RESULT:      -8.0      4.953      8.755
REMARK  Name = 
REMARK  8 active torsions:
REMARK  status: ('A' for Active; 'I' for Inactive)
REMARK    1  A    between atoms: C_1  and  C_2
REMARK    2  A    between atoms: C_2  and  C_3
REMARK    3  A    between atoms: C_2  and  S_4
REMARK    4  A    between atoms: S_4  and  N_7
REMARK    5  A    between atoms: N_7  and  C_8
REMARK    6  A    between atoms: C_13  and  C_14
REMARK    7  A    between atoms: C_14  and  C_15
REMARK    8  A    between atoms: C_18  and  C_19
REMARK                            x       y       z     vdW  Elec       q    Type
REMARK                         _______ _______ _______ _____ _____    ______ ____
ROOT
ATOM      1  C   UNL     1       3.168   5.654  18.997  0.00  0.00    +0.000 C 
ATOM      2  C   UNL     1       2.227   5.812  20.207  0.00  0.00    +0.000 C 
ATOM      3  C   UNL     1       1.818   7.249  20.091  0.00  0.00    +0.000 A 
ATOM      4  C   UNL     1       1.264   8.057  21.065  0.00  0.00    +0.000 A 
ATOM      5  C   UNL     1       0.899   9.358  20.714  0.00  0.00    +0.000 A 
ATOM      6  C   UNL     1       1.071   9.835  19.396  0.00  0.00    +0.000 A 
ATOM      7  C   UNL     1       1.650   9.000  18.425  0.00  0.00    +0.000 A 
ATOM      8  C   UNL     1       2.021   7.717  18.789  0.00  0.00    +0.000 A 
ATOM      9  C   UNL     1       2.611   6.638  17.931  0.00  0.00    +0.000 C 
ENDROOT
BRANCH   1  10
ATOM     10  N   UNL     1       4.599   6.037  19.297  0.00  0.00    +0.000 NA
ATOM     11  H   UNL     1       4.849   6.845  18.727  0.00  0.00    +0.000 HD
BRANCH  10  12
ATOM     12  S   UNL     1       5.758   4.817  19.093  0.00  0.00    +0.000 S 
ATOM     13  O   UNL     1       5.063   3.566  19.305  0.00  0.00    +0.000 OA
ATOM     14  O   UNL     1       6.925   5.169  19.867  0.00  0.00    +0.000 OA
BRANCH  12  16
ATOM     15  C   UNL     1       5.220   4.100  16.516  0.00  0.00    +0.000 C 
ATOM     16  C   UNL     1       6.176   4.961  17.340  0.00  0.00    +0.000 C 
ATOM     17  C   UNL     1       6.130   6.406  16.856  0.00  0.00    +0.000 C 
ENDBRANCH  12  16
ENDBRANCH  10  12
ENDBRANCH   1  10
BRANCH   6  18
ATOM     18  C   UNL     1       0.632  11.237  19.035  0.00  0.00    +0.000 C 
BRANCH  18  19
ATOM     19  C   UNL     1      -0.827  11.378  18.763  0.00  0.00    +0.000 A 
ATOM     20  C   UNL     1      -1.902  11.863  19.480  0.00  0.00    +0.000 A 
ATOM     21  C   UNL     1      -3.048  11.658  18.675  0.00  0.00    +0.000 A 
ATOM     22  C   UNL     1      -2.612  11.062  17.507  0.00  0.00    +0.000 A 
ATOM     23  O   UNL     1      -1.254  10.895  17.559  0.00  0.00    +0.000 OA
BRANCH  22  24
ATOM     24  C   UNL     1      -3.311  10.591  16.287  0.00  0.00    +0.000 C 
ATOM     25  F   UNL     1      -2.811  11.171  15.163  0.00  0.00    +0.000 F 
ATOM     26  F   UNL     1      -3.197   9.249  16.112  0.00  0.00    +0.000 F 
ATOM     27  F   UNL     1      -4.639  10.876  16.311  0.00  0.00    +0.000 F 
ENDBRANCH  22  24
ENDBRANCH  18  19
ENDBRANCH   6  18
TORSDOF 6
ENDMDL
MODEL 6
REMARK VINA RESULT:      -7.9      1.397      1.934
REMARK  Name = 
REMARK  8 active torsions:
REMARK  status: ('A' for Active; 'I' for Inactive)
REMARK    1  A    between atoms: C_1  and  C_2
REMARK    2  A    between atoms: C_2  and  C_3
REMARK    3  A    between atoms: C_2  and  S_4
REMARK    4  A    between atoms: S_4  and  N_7
REMARK    5  A    between atoms: N_7  and  C_8
REMARK    6  A    between atoms: C_13  and  C_14
REMARK    7  A    between atoms: C_14  and  C_15
REMARK    8  A    between atoms: C_18  and  C_19
REMARK                            x       y       z     vdW  Elec       q    Type
REMARK                         _______ _______ _______ _____ _____    ______ ____
ROOT
ATOM      1  C   UNL     1       0.923  10.406  18.600  0.00  0.00    +0.000 C 
ATOM      2  C   UNL     1       1.014   9.966  20.074  0.00  0.00    +0.000 C 
ATOM      3  C   UNL     1       1.427   8.532  19.941  0.00  0.00    +0.000 A 
ATOM      4  C   UNL     1       1.338   7.530  20.888  0.00  0.00    +0.000 A 
ATOM      5  C   UNL     1       1.847   6.270  20.565  0.00  0.00    +0.000 A 
ATOM      6  C   UNL     1       2.456   6.027  19.314  0.00  0.00    +0.000 A 
ATOM      7  C   UNL     1       2.522   7.057  18.361  0.00  0.00    +0.000 A 
ATOM      8  C   UNL     1       2.001   8.298  18.687  0.00  0.00    +0.000 A 
ATOM      9  C   UNL     1       1.992   9.551  17.865  0.00  0.00    +0.000 C 
ENDROOT
BRANCH   1  10
ATOM     10  N   UNL     1      -0.424  10.125  17.973  0.00  0.00    +0.000 NA
ATOM     11  H   UNL     1      -0.291   9.945  16.979  0.00  0.00    +0.000 HD
BRANCH  10  12
ATOM     12  S   UNL     1      -1.610  11.317  18.183  0.00  0.00    +0.000 S 
ATOM     13  O   UNL     1      -1.091  12.513  17.557  0.00  0.00    +0.000 OA
ATOM     14  O   UNL     1      -2.017  11.309  19.569  0.00  0.00    +0.000 OA
BRANCH  12  16
ATOM     15  C   UNL     1      -4.291  11.299  17.678  0.00  0.00    +0.000 C 
ATOM     16  C   UNL     1      -2.981  10.686  17.187  0.00  0.00    +0.000 C 
ATOM     17  C   UNL     1      -2.791  10.975  15.701  0.00  0.00    +0.000 C 
ENDBRANCH  12  16
ENDBRANCH  10  12
ENDBRANCH   1  10
BRANCH   6  18
ATOM     18  C   UNL     1       3.033   4.662  19.006  0.00  0.00    +0.000 C 
BRANCH  18  19
ATOM     19  C   UNL     1       4.416   4.686  18.451  0.00  0.00    +0.000 A 
ATOM     20  C   UNL     1       5.675   4.841  18.995  0.00  0.00    +0.000 A 
ATOM     21  C   UNL     1       6.586   4.831  17.913  0.00  0.00    +0.000 A 
ATOM     22  C   UNL     1       5.836   4.666  16.764  0.00  0.00    +0.000 A 
ATOM     23  O   UNL     1       4.511   4.574  17.093  0.00  0.00    +0.000 OA
BRANCH  22  24
ATOM     24  C   UNL     1       6.189   4.587  15.326  0.00  0.00    +0.000 C 
ATOM     25  F   UNL     1       6.204   3.303  14.879  0.00  0.00    +0.000 F 
ATOM     26  F   UNL     1       5.308   5.259  14.540  0.00  0.00    +0.000 F 
ATOM     27  F   UNL     1       7.421   5.100  15.068  0.00  0.00    +0.000 F 
ENDBRANCH  22  24
ENDBRANCH  18  19
ENDBRANCH   6  18
TORSDOF 6
ENDMDL
MODEL 7
REMARK VINA RESULT:      -7.8      5.517      9.164
REMARK  Name = 
REMARK  8 active torsions:
REMARK  status: ('A' for Active; 'I' for Inactive)
REMARK    1  A    between atoms: C_1  and  C_2
REMARK    2  A    between atoms: C_2  and  C_3
REMARK    3  A    between atoms: C_2  and  S_4
REMARK    4  A    between atoms: S_4  and  N_7
REMARK    5  A    between atoms: N_7  and  C_8
REMARK    6  A    between atoms: C_13  and  C_14
REMARK    7  A    between atoms: C_14  and  C_15
REMARK    8  A    between atoms: C_18  and  C_19
REMARK                            x       y       z     vdW  Elec       q    Type
REMARK                         _______ _______ _______ _____ _____    ______ ____
ROOT
ATOM      1  C   UNL     1       3.790   5.652  18.706  0.00  0.00    +0.000 C 
ATOM      2  C   UNL     1       2.889   5.696  19.956  0.00  0.00    +0.000 C 
ATOM      3  C   UNL     1       2.228   7.033  19.809  0.00  0.00    +0.000 A 
ATOM      4  C   UNL     1       1.583   7.774  20.781  0.00  0.00    +0.000 A 
ATOM      5  C   UNL     1       0.978   8.974  20.402  0.00  0.00    +0.000 A 
ATOM      6  C   UNL     1       1.004   9.414  19.060  0.00  0.00    +0.000 A 
ATOM      7  C   UNL     1       1.679   8.651  18.092  0.00  0.00    +0.000 A 
ATOM      8  C   UNL     1       2.287   7.471  18.482  0.00  0.00    +0.000 A 
ATOM      9  C   UNL     1       3.021   6.475  17.635  0.00  0.00    +0.000 C 
ENDROOT
BRANCH   1  10
ATOM     10  N   UNL     1       5.142   6.293  18.918  0.00  0.00    +0.000 NA
ATOM     11  H   UNL     1       5.273   7.023  18.219  0.00  0.00    +0.000 HD
BRANCH  10  12
ATOM     12  S   UNL     1       6.476   5.247  18.906  0.00  0.00    +0.000 S 
ATOM     13  O   UNL     1       5.951   3.935  18.598  0.00  0.00    +0.000 OA
ATOM     14  O   UNL     1       7.250   5.487  20.101  0.00  0.00    +0.000 OA
BRANCH  12  16
ATOM     15  C   UNL     1       6.827   5.278  16.200  0.00  0.00    +0.000 C 
ATOM     16  C   UNL     1       7.427   5.841  17.486  0.00  0.00    +0.000 C 
ATOM     17  C   UNL     1       7.472   7.364  17.423  0.00  0.00    +0.000 C 
ENDBRANCH  12  16
ENDBRANCH  10  12
ENDBRANCH   1  10
BRANCH   6  18
ATOM     18  C   UNL     1       0.308  10.700  18.671  0.00  0.00    +0.000 C 
BRANCH  18  19
ATOM     19  C   UNL     1      -1.072  10.520  18.138  0.00  0.00    +0.000 A 
ATOM     20  C   UNL     1      -1.631   9.748  17.139  0.00  0.00    +0.000 A 
ATOM     21  C   UNL     1      -3.004  10.086  17.089  0.00  0.00    +0.000 A 
ATOM     22  C   UNL     1      -3.213  11.043  18.064  0.00  0.00    +0.000 A 
ATOM     23  O   UNL     1      -2.034  11.305  18.707  0.00  0.00    +0.000 OA
BRANCH  22  24
ATOM     24  C   UNL     1      -4.412  11.798  18.503  0.00  0.00    +0.000 C 
ATOM     25  F   UNL     1      -4.107  12.722  19.453  0.00  0.00    +0.000 F 
ATOM     26  F   UNL     1      -4.999  12.474  17.481  0.00  0.00    +0.000 F 
ATOM     27  F   UNL     1      -5.362  10.989  19.041  0.00  0.00    +0.000 F 
ENDBRANCH  22  24
ENDBRANCH  18  19
ENDBRANCH   6  18
TORSDOF 6
ENDMDL
MODEL 8
REMARK VINA RESULT:      -7.7      2.330      3.231
REMARK  Name = 
REMARK  8 active torsions:
REMARK  status: ('A' for Active; 'I' for Inactive)
REMARK    1  A    between atoms: C_1  and  C_2
REMARK    2  A    between atoms: C_2  and  C_3
REMARK    3  A    between atoms: C_2  and  S_4
REMARK    4  A    between atoms: S_4  and  N_7
REMARK    5  A    between atoms: N_7  and  C_8
REMARK    6  A    between atoms: C_13  and  C_14
REMARK    7  A    between atoms: C_14  and  C_15
REMARK    8  A    between atoms: C_18  and  C_19
REMARK                            x       y       z     vdW  Elec       q    Type
REMARK                         _______ _______ _______ _____ _____    ______ ____
ROOT
ATOM      1  C   UNL     1       0.155  10.992  20.376  0.00  0.00    +0.000 C 
ATOM      2  C   UNL     1       0.291  10.650  18.879  0.00  0.00    +0.000 C 
ATOM      3  C   UNL     1       1.166   9.434  18.922  0.00  0.00    +0.000 A 
ATOM      4  C   UNL     1       1.906   8.883  17.893  0.00  0.00    +0.000 A 
ATOM      5  C   UNL     1       2.605   7.700  18.143  0.00  0.00    +0.000 A 
ATOM      6  C   UNL     1       2.545   7.070  19.406  0.00  0.00    +0.000 A 
ATOM      7  C   UNL     1       1.798   7.656  20.441  0.00  0.00    +0.000 A 
ATOM      8  C   UNL     1       1.121   8.836  20.185  0.00  0.00    +0.000 A 
ATOM      9  C   UNL     1       0.233   9.621  21.104  0.00  0.00    +0.000 C 
ENDROOT
BRANCH   1  10
ATOM     10  N   UNL     1       1.271  11.870  20.894  0.00  0.00    +0.000 NA
ATOM     11  H   UNL     1       1.603  11.490  21.780  0.00  0.00    +0.000 HD
BRANCH  10  12
ATOM     12  S   UNL     1       0.902  13.514  21.083  0.00  0.00    +0.000 S 
ATOM     13  O   UNL     1       1.921  14.054  21.955  0.00  0.00    +0.000 OA
ATOM     14  O   UNL     1      -0.501  13.628  21.403  0.00  0.00    +0.000 OA
BRANCH  12  16
ATOM     15  C   UNL     1      -0.195  14.397  18.746  0.00  0.00    +0.000 C 
ATOM     16  C   UNL     1       1.158  14.167  19.415  0.00  0.00    +0.000 C 
ATOM     17  C   UNL     1       1.966  15.460  19.424  0.00  0.00    +0.000 C 
ENDBRANCH  12  16
ENDBRANCH  10  12
ENDBRANCH   1  10
BRANCH   6  18
ATOM     18  C   UNL     1       3.283   5.769  19.638  0.00  0.00    +0.000 C 
BRANCH  18  19
ATOM     19  C   UNL     1       3.934   5.201  18.423  0.00  0.00    +0.000 A 
ATOM     20  C   UNL     1       3.511   4.397  17.384  0.00  0.00    +0.000 A 
ATOM     21  C   UNL     1       4.643   4.163  16.569  0.00  0.00    +0.000 A 
ATOM     22  C   UNL     1       5.699   4.839  17.151  0.00  0.00    +0.000 A 
ATOM     23  O   UNL     1       5.264   5.476  18.282  0.00  0.00    +0.000 OA
BRANCH  22  24
ATOM     24  C   UNL     1       7.132   4.979  16.796  0.00  0.00    +0.000 C 
ATOM     25  F   UNL     1       7.929   4.243  17.617  0.00  0.00    +0.000 F 
ATOM     26  F   UNL     1       7.393   4.563  15.530  0.00  0.00    +0.000 F 
ATOM     27  F   UNL     1       7.563   6.264  16.890  0.00  0.00    +0.000 F 
ENDBRANCH  22  24
ENDBRANCH  18  19
ENDBRANCH   6  18
TORSDOF 6
ENDMDL
MODEL 9
REMARK VINA RESULT:      -7.7      2.253      3.408
REMARK  Name = 
REMARK  8 active torsions:
REMARK  status: ('A' for Active; 'I' for Inactive)
REMARK    1  A    between atoms: C_1  and  C_2
REMARK    2  A    between atoms: C_2  and  C_3
REMARK    3  A    between atoms: C_2  and  S_4
REMARK    4  A    between atoms: S_4  and  N_7
REMARK    5  A    between atoms: N_7  and  C_8
REMARK    6  A    between atoms: C_13  and  C_14
REMARK    7  A    between atoms: C_14  and  C_15
REMARK    8  A    between atoms: C_18  and  C_19
REMARK                            x       y       z     vdW  Elec       q    Type
REMARK                         _______ _______ _______ _____ _____    ______ ____
ROOT
ATOM      1  C   UNL     1       0.240  11.112  20.252  0.00  0.00    +0.000 C 
ATOM      2  C   UNL     1       0.331  10.705  18.768  0.00  0.00    +0.000 C 
ATOM      3  C   UNL     1       1.168   9.464  18.842  0.00  0.00    +0.000 A 
ATOM      4  C   UNL     1       1.867   8.848  17.822  0.00  0.00    +0.000 A 
ATOM      5  C   UNL     1       2.534   7.654  18.106  0.00  0.00    +0.000 A 
ATOM      6  C   UNL     1       2.483   7.078  19.394  0.00  0.00    +0.000 A 
ATOM      7  C   UNL     1       1.778   7.730  20.420  0.00  0.00    +0.000 A 
ATOM      8  C   UNL     1       1.133   8.920  20.130  0.00  0.00    +0.000 A 
ATOM      9  C   UNL     1       0.292   9.770  21.034  0.00  0.00    +0.000 C 
ENDROOT
BRANCH   1  10
ATOM     10  N   UNL     1       1.395  11.974  20.709  0.00  0.00    +0.000 NA
ATOM     11  H   UNL     1       1.703  11.650  21.626  0.00  0.00    +0.000 HD
BRANCH  10  12
ATOM     12  S   UNL     1       1.106  13.643  20.763  0.00  0.00    +0.000 S 
ATOM     13  O   UNL     1       1.458  14.068  22.100  0.00  0.00    +0.000 OA
ATOM     14  O   UNL     1      -0.206  13.892  20.215  0.00  0.00    +0.000 OA
BRANCH  12  16
ATOM     15  C   UNL     1       3.557  14.780  20.379  0.00  0.00    +0.000 C 
ATOM     16  C   UNL     1       2.336  14.291  19.604  0.00  0.00    +0.000 C 
ATOM     17  C   UNL     1       2.753  13.251  18.570  0.00  0.00    +0.000 C 
ENDBRANCH  12  16
ENDBRANCH  10  12
ENDBRANCH   1  10
BRANCH   6  18
ATOM     18  C   UNL     1       3.183   5.764  19.664  0.00  0.00    +0.000 C 
BRANCH  18  19
ATOM     19  C   UNL     1       3.880   5.180  18.483  0.00  0.00    +0.000 A 
ATOM     20  C   UNL     1       3.495   4.369  17.435  0.00  0.00    +0.000 A 
ATOM     21  C   UNL     1       4.658   4.119  16.670  0.00  0.00    +0.000 A 
ATOM     22  C   UNL     1       5.693   4.794  17.288  0.00  0.00    +0.000 A 
ATOM     23  O   UNL     1       5.218   5.445  18.394  0.00  0.00    +0.000 OA
BRANCH  22  24
ATOM     24  C   UNL     1       7.141   4.921  16.992  0.00  0.00    +0.000 C 
ATOM     25  F   UNL     1       7.534   6.222  16.942  0.00  0.00    +0.000 F 
ATOM     26  F   UNL     1       7.915   4.320  17.932  0.00  0.00    +0.000 F 
ATOM     27  F   UNL     1       7.473   4.372  15.794  0.00  0.00    +0.000 F 
ENDBRANCH  22  24
ENDBRANCH  18  19
ENDBRANCH   6  18
TORSDOF 6
ENDMDL
