MODEL 1
REMARK VINA RESULT:      -8.9      0.000      0.000
REMARK  Name = 
REMARK  6 active torsions:
REMARK  status: ('A' for Active; 'I' for Inactive)
REMARK    1  A    between atoms: C_1  and  C_2
REMARK    2  A    between atoms: C_5  and  N_6
REMARK    3  A    between atoms: N_6  and  C_7
REMARK    4  A    between atoms: C_7  and  C_8
REMARK    5  A    between atoms: C_16  and  C_17
REMARK    6  A    between atoms: C_20  and  N_21
REMARK                            x       y       z     vdW  Elec       q    Type
REMARK                         _______ _______ _______ _____ _____    ______ ____
ROOT
ATOM      1  C   UNL     1       0.363  10.313  20.078  0.00  0.00    +0.000 A 
ATOM      2  C   UNL     1       0.353   9.516  21.253  0.00  0.00    +0.000 A 
ATOM      3  C   UNL     1       1.023   8.291  21.318  0.00  0.00    +0.000 A 
ATOM      4  C   UNL     1       1.694   7.890  20.188  0.00  0.00    +0.000 A 
ATOM      5  C   UNL     1       1.726   8.665  18.997  0.00  0.00    +0.000 A 
ATOM      6  C   UNL     1       1.058   9.877  18.936  0.00  0.00    +0.000 A 
ATOM      7  C   UNL     1       2.561   8.019  17.877  0.00  0.00    +0.000 C 
ATOM      8  C   UNL     1       2.963   6.794  18.624  0.00  0.00    +0.000 A 
ATOM      9  C   UNL     1       3.702   5.609  18.459  0.00  0.00    +0.000 A 
ATOM     10  N   UNL     1       3.633   4.862  19.589  0.00  0.00    +0.000 NA
ATOM     11  N   UNL     1       2.884   5.594  20.453  0.00  0.00    +0.000 N 
ATOM     12  C   UNL     1       2.471   6.742  19.896  0.00  0.00    +0.000 A 
ATOM     13  H   UNL     1       2.710   5.225  21.381  0.00  0.00    +0.000 HD
ENDROOT
BRANCH   9  14
ATOM     14  C   UNL     1       4.456   5.173  17.287  0.00  0.00    +0.000 A 
ATOM     15  C   UNL     1       4.715   3.815  17.068  0.00  0.00    +0.000 A 
ATOM     16  C   UNL     1       5.409   3.398  15.930  0.00  0.00    +0.000 A 
ATOM     17  C   UNL     1       5.892   4.329  15.007  0.00  0.00    +0.000 A 
ATOM     18  C   UNL     1       5.598   5.679  15.205  0.00  0.00    +0.000 A 
ATOM     19  C   UNL     1       4.904   6.102  16.343  0.00  0.00    +0.000 A 
BRANCH  17  20
ATOM     20  N   UNL     1       6.442   3.892  13.799  0.00  0.00    +0.000 N 
ATOM     21  H   UNL     1       6.674   4.642  13.156  0.00  0.00    +0.000 HD
ATOM     22  H   UNL     1       5.915   3.147  13.353  0.00  0.00    +0.000 HD
ENDBRANCH  17  20
ENDBRANCH   9  14
BRANCH   1  23
ATOM     23  C   UNL     1      -0.368  11.639  20.075  0.00  0.00    +0.000 C 
BRANCH  23  24
ATOM     24  N   UNL     1      -1.802  11.425  19.875  0.00  0.00    +0.000 NA
ATOM     25  H   UNL     1      -2.285  11.786  20.698  0.00  0.00    +0.000 HD
BRANCH  24  30
ATOM     26  C   UNL     1      -3.903  10.536  15.558  0.00  0.00    +0.000 C 
ATOM     27  C   UNL     1      -3.228   9.910  16.783  0.00  0.00    +0.000 C 
ATOM     28  C   UNL     1      -1.757  10.336  16.889  0.00  0.00    +0.000 C 
ATOM     29  C   UNL     1      -1.576  11.774  17.382  0.00  0.00    +0.000 C 
ATOM     30  C   UNL     1      -2.342  12.091  18.681  0.00  0.00    +0.000 C 
ATOM     31  C   UNL     1      -3.817  11.686  18.522  0.00  0.00    +0.000 C 
ATOM     32  C   UNL     1      -3.989  10.232  18.076  0.00  0.00    +0.000 C 
ENDBRANCH  24  30
ENDBRANCH  23  24
ENDBRANCH   1  23
TORSDOF 5
ENDMDL
MODEL 2
REMARK VINA RESULT:      -8.7      2.313      9.530
REMARK  Name = 
REMARK  6 active torsions:
REMARK  status: ('A' for Active; 'I' for Inactive)
REMARK    1  A    between atoms: C_1  and  C_2
REMARK    2  A    between atoms: C_5  and  N_6
REMARK    3  A    between atoms: N_6  and  C_7
REMARK    4  A    between atoms: C_7  and  C_8
REMARK    5  A    between atoms: C_16  and  C_17
REMARK    6  A    between atoms: C_20  and  N_21
REMARK                            x       y       z     vdW  Elec       q    Type
REMARK                         _______ _______ _______ _____ _____    ______ ____
ROOT
ATOM      1  C   UNL     1       2.926   6.591  19.313  0.00  0.00    +0.000 A 
ATOM      2  C   UNL     1       3.106   7.289  18.089  0.00  0.00    +0.000 A 
ATOM      3  C   UNL     1       2.431   8.481  17.815  0.00  0.00    +0.000 A 
ATOM      4  C   UNL     1       1.577   8.949  18.785  0.00  0.00    +0.000 A 
ATOM      5  C   UNL     1       1.376   8.275  20.020  0.00  0.00    +0.000 A 
ATOM      6  C   UNL     1       2.045   7.092  20.288  0.00  0.00    +0.000 A 
ATOM      7  C   UNL     1       0.394   9.006  20.954  0.00  0.00    +0.000 C 
ATOM      8  C   UNL     1       0.092  10.152  20.051  0.00  0.00    +0.000 A 
ATOM      9  C   UNL     1      -0.687  11.321  19.996  0.00  0.00    +0.000 A 
ATOM     10  N   UNL     1      -0.514  11.934  18.798  0.00  0.00    +0.000 NA
ATOM     11  N   UNL     1       0.386  11.166  18.134  0.00  0.00    +0.000 N 
ATOM     12  C   UNL     1       0.753  10.098  18.859  0.00  0.00    +0.000 A 
ATOM     13  H   UNL     1       0.676  11.448  17.204  0.00  0.00    +0.000 HD
ENDROOT
BRANCH   9  14
ATOM     14  C   UNL     1      -1.572  11.864  21.023  0.00  0.00    +0.000 A 
ATOM     15  C   UNL     1      -2.722  12.580  20.671  0.00  0.00    +0.000 A 
ATOM     16  C   UNL     1      -3.583  13.071  21.655  0.00  0.00    +0.000 A 
ATOM     17  C   UNL     1      -3.295  12.892  23.010  0.00  0.00    +0.000 A 
ATOM     18  C   UNL     1      -2.170  12.142  23.360  0.00  0.00    +0.000 A 
ATOM     19  C   UNL     1      -1.304  11.649  22.379  0.00  0.00    +0.000 A 
BRANCH  17  20
ATOM     20  N   UNL     1      -4.240  13.246  23.977  0.00  0.00    +0.000 N 
ATOM     21  H   UNL     1      -4.008  12.935  24.915  0.00  0.00    +0.000 HD
ATOM     22  H   UNL     1      -5.196  13.021  23.718  0.00  0.00    +0.000 HD
ENDBRANCH  17  20
ENDBRANCH   9  14
BRANCH   1  23
ATOM     23  C   UNL     1       3.699   5.312  19.559  0.00  0.00    +0.000 C 
BRANCH  23  24
ATOM     24  N   UNL     1       5.110   5.501  19.219  0.00  0.00    +0.000 NA
ATOM     25  H   UNL     1       5.628   5.588  20.092  0.00  0.00    +0.000 HD
BRANCH  24  30
ATOM     26  C   UNL     1       6.786   4.366  14.775  0.00  0.00    +0.000 C 
ATOM     27  C   UNL     1       6.086   5.434  15.622  0.00  0.00    +0.000 C 
ATOM     28  C   UNL     1       4.715   4.947  16.113  0.00  0.00    +0.000 C 
ATOM     29  C   UNL     1       4.806   3.935  17.258  0.00  0.00    +0.000 C 
ATOM     30  C   UNL     1       5.685   4.399  18.435  0.00  0.00    +0.000 C 
ATOM     31  C   UNL     1       7.060   4.842  17.908  0.00  0.00    +0.000 C 
ATOM     32  C   UNL     1       6.961   5.890  16.797  0.00  0.00    +0.000 C 
ENDBRANCH  24  30
ENDBRANCH  23  24
ENDBRANCH   1  23
TORSDOF 5
ENDMDL
MODEL 3
REMARK VINA RESULT:      -8.7      2.069      3.266
REMARK  Name = 
REMARK  6 active torsions:
REMARK  status: ('A' for Active; 'I' for Inactive)
REMARK    1  A    between atoms: C_1  and  C_2
REMARK    2  A    between atoms: C_5  and  N_6
REMARK    3  A    between atoms: N_6  and  C_7
REMARK    4  A    between atoms: C_7  and  C_8
REMARK    5  A    between atoms: C_16  and  C_17
REMARK    6  A    between atoms: C_20  and  N_21
REMARK                            x       y       z     vdW  Elec       q    Type
REMARK                         _______ _______ _______ _____ _____    ______ ____
ROOT
ATOM      1  C   UNL     1       0.125  10.911  19.594  0.00  0.00    +0.000 A 
ATOM      2  C   UNL     1       0.113  10.252  20.852  0.00  0.00    +0.000 A 
ATOM      3  C   UNL     1       0.769   9.034  21.052  0.00  0.00    +0.000 A 
ATOM      4  C   UNL     1       1.428   8.499  19.972  0.00  0.00    +0.000 A 
ATOM      5  C   UNL     1       1.461   9.134  18.700  0.00  0.00    +0.000 A 
ATOM      6  C   UNL     1       0.807  10.340  18.505  0.00  0.00    +0.000 A 
ATOM      7  C   UNL     1       2.281   8.355  17.657  0.00  0.00    +0.000 C 
ATOM      8  C   UNL     1       2.674   7.218  18.535  0.00  0.00    +0.000 A 
ATOM      9  C   UNL     1       3.397   6.012  18.501  0.00  0.00    +0.000 A 
ATOM     10  N   UNL     1       3.326   5.399  19.709  0.00  0.00    +0.000 NA
ATOM     11  N   UNL     1       2.592   6.233  20.488  0.00  0.00    +0.000 N 
ATOM     12  C   UNL     1       2.189   7.316  19.807  0.00  0.00    +0.000 A 
ATOM     13  H   UNL     1       2.419   5.974  21.453  0.00  0.00    +0.000 HD
ENDROOT
BRANCH   9  14
ATOM     14  C   UNL     1       4.138   5.437  17.383  0.00  0.00    +0.000 A 
ATOM     15  C   UNL     1       4.838   6.259  16.491  0.00  0.00    +0.000 A 
ATOM     16  C   UNL     1       5.572   5.705  15.439  0.00  0.00    +0.000 A 
ATOM     17  C   UNL     1       5.592   4.323  15.233  0.00  0.00    +0.000 A 
ATOM     18  C   UNL     1       4.929   3.502  16.147  0.00  0.00    +0.000 A 
ATOM     19  C   UNL     1       4.191   4.052  17.201  0.00  0.00    +0.000 A 
BRANCH  17  20
ATOM     20  N   UNL     1       6.454   3.773  14.281  0.00  0.00    +0.000 N 
ATOM     21  H   UNL     1       6.368   2.767  14.178  0.00  0.00    +0.000 HD
ATOM     22  H   UNL     1       7.420   4.072  14.380  0.00  0.00    +0.000 HD
ENDBRANCH  17  20
ENDBRANCH   9  14
BRANCH   1  23
ATOM     23  C   UNL     1      -0.590  12.237  19.445  0.00  0.00    +0.000 C 
BRANCH  23  24
ATOM     24  N   UNL     1      -1.845  12.223  20.197  0.00  0.00    +0.000 NA
ATOM     25  H   UNL     1      -1.853  11.376  20.766  0.00  0.00    +0.000 HD
BRANCH  24  30
ATOM     26  C   UNL     1      -3.744  13.584  24.485  0.00  0.00    +0.000 C 
ATOM     27  C   UNL     1      -3.614  12.443  23.470  0.00  0.00    +0.000 C 
ATOM     28  C   UNL     1      -4.295  12.797  22.140  0.00  0.00    +0.000 C 
ATOM     29  C   UNL     1      -3.494  13.792  21.297  0.00  0.00    +0.000 C 
ATOM     30  C   UNL     1      -2.024  13.386  21.078  0.00  0.00    +0.000 C 
ATOM     31  C   UNL     1      -1.367  13.076  22.433  0.00  0.00    +0.000 C 
ATOM     32  C   UNL     1      -2.149  12.044  23.250  0.00  0.00    +0.000 C 
ENDBRANCH  24  30
ENDBRANCH  23  24
ENDBRANCH   1  23
TORSDOF 5
ENDMDL
MODEL 4
REMARK VINA RESULT:      -8.6      1.207      1.851
REMARK  Name = 
REMARK  6 active torsions:
REMARK  status: ('A' for Active; 'I' for Inactive)
REMARK    1  A    between atoms: C_1  and  C_2
REMARK    2  A    between atoms: C_5  and  N_6
REMARK    3  A    between atoms: N_6  and  C_7
REMARK    4  A    between atoms: C_7  and  C_8
REMARK    5  A    between atoms: C_16  and  C_17
REMARK    6  A    between atoms: C_20  and  N_21
REMARK                            x       y       z     vdW  Elec       q    Type
REMARK                         _______ _______ _______ _____ _____    ______ ____
ROOT
ATOM      1  C   UNL     1      -0.165  11.365  19.444  0.00  0.00    +0.000 A 
ATOM      2  C   UNL     1      -0.239  10.755  20.725  0.00  0.00    +0.000 A 
ATOM      3  C   UNL     1       0.402   9.545  21.002  0.00  0.00    +0.000 A 
ATOM      4  C   UNL     1       1.110   8.967  19.976  0.00  0.00    +0.000 A 
ATOM      5  C   UNL     1       1.205   9.553  18.684  0.00  0.00    +0.000 A 
ATOM      6  C   UNL     1       0.565  10.751  18.412  0.00  0.00    +0.000 A 
ATOM      7  C   UNL     1       2.071   8.733  17.711  0.00  0.00    +0.000 C 
ATOM      8  C   UNL     1       2.417   7.629  18.650  0.00  0.00    +0.000 A 
ATOM      9  C   UNL     1       3.137   6.422  18.697  0.00  0.00    +0.000 A 
ATOM     10  N   UNL     1       3.007   5.856  19.923  0.00  0.00    +0.000 NA
ATOM     11  N   UNL     1       2.240   6.721  20.633  0.00  0.00    +0.000 N 
ATOM     12  C   UNL     1       1.874   7.778  19.893  0.00  0.00    +0.000 A 
ATOM     13  H   UNL     1       2.021   6.499  21.599  0.00  0.00    +0.000 HD
ENDROOT
BRANCH   9  14
ATOM     14  C   UNL     1       3.929   5.803  17.638  0.00  0.00    +0.000 A 
ATOM     15  C   UNL     1       3.888   4.419  17.430  0.00  0.00    +0.000 A 
ATOM     16  C   UNL     1       4.621   3.832  16.396  0.00  0.00    +0.000 A 
ATOM     17  C   UNL     1       5.439   4.609  15.572  0.00  0.00    +0.000 A 
ATOM     18  C   UNL     1       5.447   5.994  15.753  0.00  0.00    +0.000 A 
ATOM     19  C   UNL     1       4.716   6.586  16.787  0.00  0.00    +0.000 A 
BRANCH  17  20
ATOM     20  N   UNL     1       6.040   4.037  14.448  0.00  0.00    +0.000 N 
ATOM     21  H   UNL     1       5.480   3.319  14.000  0.00  0.00    +0.000 HD
ATOM     22  H   UNL     1       7.001   3.743  14.600  0.00  0.00    +0.000 HD
ENDBRANCH  17  20
ENDBRANCH   9  14
BRANCH   1  23
ATOM     23  C   UNL     1      -0.868  12.686  19.210  0.00  0.00    +0.000 C 
BRANCH  23  24
ATOM     24  N   UNL     1      -2.061  12.485  18.386  0.00  0.00    +0.000 NA
ATOM     25  H   UNL     1      -1.752  12.139  17.477  0.00  0.00    +0.000 HD
BRANCH  24  30
ATOM     26  C   UNL     1      -6.741  11.107  18.181  0.00  0.00    +0.000 C 
ATOM     27  C   UNL     1      -5.711  12.140  17.714  0.00  0.00    +0.000 C 
ATOM     28  C   UNL     1      -5.163  12.957  18.893  0.00  0.00    +0.000 C 
ATOM     29  C   UNL     1      -4.164  12.181  19.755  0.00  0.00    +0.000 C 
ATOM     30  C   UNL     1      -3.021  11.528  18.954  0.00  0.00    +0.000 C 
ATOM     31  C   UNL     1      -3.609  10.689  17.807  0.00  0.00    +0.000 C 
ATOM     32  C   UNL     1      -4.571  11.486  16.921  0.00  0.00    +0.000 C 
ENDBRANCH  24  30
ENDBRANCH  23  24
ENDBRANCH   1  23
TORSDOF 5
ENDMDL
MODEL 5
REMARK VINA RESULT:      -8.6      2.505      9.797
REMARK  Name = 
REMARK  6 active torsions:
REMARK  status: ('A' for Active; 'I' for Inactive)
REMARK    1  A    between atoms: C_1  and  C_2
REMARK    2  A    between atoms: C_5  and  N_6
REMARK    3  A    between atoms: N_6  and  C_7
REMARK    4  A    between atoms: C_7  and  C_8
REMARK    5  A    between atoms: C_16  and  C_17
REMARK    6  A    between atoms: C_20  and  N_21
REMARK                            x       y       z     vdW  Elec       q    Type
REMARK                         _______ _______ _______ _____ _____    ______ ____
ROOT
ATOM      1  C   UNL     1       2.207   7.488  19.386  0.00  0.00    +0.000 A 
ATOM      2  C   UNL     1       2.116   8.166  18.142  0.00  0.00    +0.000 A 
ATOM      3  C   UNL     1       1.408   9.363  18.005  0.00  0.00    +0.000 A 
ATOM      4  C   UNL     1       0.799   9.857  19.134  0.00  0.00    +0.000 A 
ATOM      5  C   UNL     1       0.873   9.203  20.394  0.00  0.00    +0.000 A 
ATOM      6  C   UNL     1       1.573   8.015  20.525  0.00  0.00    +0.000 A 
ATOM      7  C   UNL     1       0.132   9.960  21.512  0.00  0.00    +0.000 C 
ATOM      8  C   UNL     1      -0.353  11.097  20.681  0.00  0.00    +0.000 A 
ATOM      9  C   UNL     1      -1.112  12.276  20.781  0.00  0.00    +0.000 A 
ATOM     10  N   UNL     1      -1.206  12.869  19.565  0.00  0.00    +0.000 NA
ATOM     11  N   UNL     1      -0.486  12.080  18.729  0.00  0.00    +0.000 N 
ATOM     12  C   UNL     1       0.024  11.018  19.372  0.00  0.00    +0.000 A 
ATOM     13  H   UNL     1      -0.408  12.345  17.753  0.00  0.00    +0.000 HD
ENDROOT
BRANCH   9  14
ATOM     14  C   UNL     1      -1.738  12.846  21.971  0.00  0.00    +0.000 A 
ATOM     15  C   UNL     1      -1.016  13.687  22.826  0.00  0.00    +0.000 A 
ATOM     16  C   UNL     1      -1.626  14.256  23.947  0.00  0.00    +0.000 A 
ATOM     17  C   UNL     1      -2.956  13.967  24.259  0.00  0.00    +0.000 A 
ATOM     18  C   UNL     1      -3.688  13.161  23.384  0.00  0.00    +0.000 A 
ATOM     19  C   UNL     1      -3.082  12.589  22.261  0.00  0.00    +0.000 A 
BRANCH  17  20
ATOM     20  N   UNL     1      -3.599  14.663  25.286  0.00  0.00    +0.000 N 
ATOM     21  H   UNL     1      -4.174  15.435  24.966  0.00  0.00    +0.000 HD
ATOM     22  H   UNL     1      -2.983  14.929  26.050  0.00  0.00    +0.000 HD
ENDBRANCH  17  20
ENDBRANCH   9  14
BRANCH   1  23
ATOM     23  C   UNL     1       3.003   6.202  19.474  0.00  0.00    +0.000 C 
BRANCH  23  24
ATOM     24  N   UNL     1       3.464   5.801  18.144  0.00  0.00    +0.000 NA
ATOM     25  H   UNL     1       3.207   6.542  17.493  0.00  0.00    +0.000 HD
BRANCH  24  30
ATOM     26  C   UNL     1       7.070   4.906  14.977  0.00  0.00    +0.000 C 
ATOM     27  C   UNL     1       5.554   5.039  15.154  0.00  0.00    +0.000 C 
ATOM     28  C   UNL     1       5.000   3.941  16.074  0.00  0.00    +0.000 C 
ATOM     29  C   UNL     1       5.310   4.178  17.554  0.00  0.00    +0.000 C 
ATOM     30  C   UNL     1       4.914   5.579  18.060  0.00  0.00    +0.000 C 
ATOM     31  C   UNL     1       5.518   6.650  17.137  0.00  0.00    +0.000 C 
ATOM     32  C   UNL     1       5.163   6.433  15.663  0.00  0.00    +0.000 C 
ENDBRANCH  24  30
ENDBRANCH  23  24
ENDBRANCH   1  23
TORSDOF 5
ENDMDL
MODEL 6
REMARK VINA RESULT:      -8.5      2.518      9.725
REMARK  Name = 
REMARK  6 active torsions:
REMARK  status: ('A' for Active; 'I' for Inactive)
REMARK    1  A    between atoms: C_1  and  C_2
REMARK    2  A    between atoms: C_5  and  N_6
REMARK    3  A    between atoms: N_6  and  C_7
REMARK    4  A    between atoms: C_7  and  C_8
REMARK    5  A    between atoms: C_16  and  C_17
REMARK    6  A    between atoms: C_20  and  N_21
REMARK                            x       y       z     vdW  Elec       q    Type
REMARK                         _______ _______ _______ _____ _____    ______ ____
ROOT
ATOM      1  C   UNL     1       2.375   6.991  19.520  0.00  0.00    +0.000 A 
ATOM      2  C   UNL     1       2.467   7.681  18.282  0.00  0.00    +0.000 A 
ATOM      3  C   UNL     1       1.860   8.924  18.085  0.00  0.00    +0.000 A 
ATOM      4  C   UNL     1       1.165   9.451  19.146  0.00  0.00    +0.000 A 
ATOM      5  C   UNL     1       1.056   8.787  20.398  0.00  0.00    +0.000 A 
ATOM      6  C   UNL     1       1.656   7.554  20.589  0.00  0.00    +0.000 A 
ATOM      7  C   UNL     1       0.249   9.586  21.438  0.00  0.00    +0.000 C 
ATOM      8  C   UNL     1      -0.065  10.758  20.573  0.00  0.00    +0.000 A 
ATOM      9  C   UNL     1      -0.750  11.986  20.606  0.00  0.00    +0.000 A 
ATOM     10  N   UNL     1      -0.669  12.591  19.394  0.00  0.00    +0.000 NA
ATOM     11  N   UNL     1       0.085  11.759  18.632  0.00  0.00    +0.000 N 
ATOM     12  C   UNL     1       0.448  10.661  19.312  0.00  0.00    +0.000 A 
ATOM     13  H   UNL     1       0.286  12.023  17.674  0.00  0.00    +0.000 HD
ENDROOT
BRANCH   9  14
ATOM     14  C   UNL     1      -1.463  12.590  21.727  0.00  0.00    +0.000 A 
ATOM     15  C   UNL     1      -0.798  13.429  22.630  0.00  0.00    +0.000 A 
ATOM     16  C   UNL     1      -1.489  14.031  23.684  0.00  0.00    +0.000 A 
ATOM     17  C   UNL     1      -2.849  13.778  23.882  0.00  0.00    +0.000 A 
ATOM     18  C   UNL     1      -3.521  12.975  22.958  0.00  0.00    +0.000 A 
ATOM     19  C   UNL     1      -2.833  12.370  21.902  0.00  0.00    +0.000 A 
BRANCH  17  20
ATOM     20  N   UNL     1      -3.561  14.507  24.838  0.00  0.00    +0.000 N 
ATOM     21  H   UNL     1      -4.155  15.231  24.448  0.00  0.00    +0.000 HD
ATOM     22  H   UNL     1      -2.989  14.846  25.607  0.00  0.00    +0.000 HD
ENDBRANCH  17  20
ENDBRANCH   9  14
BRANCH   1  23
ATOM     23  C   UNL     1       3.068   5.653  19.678  0.00  0.00    +0.000 C 
BRANCH  23  24
ATOM     24  N   UNL     1       4.517   5.818  19.559  0.00  0.00    +0.000 NA
ATOM     25  H   UNL     1       4.897   5.894  20.503  0.00  0.00    +0.000 HD
BRANCH  24  30
ATOM     26  C   UNL     1       7.027   4.718  15.518  0.00  0.00    +0.000 C 
ATOM     27  C   UNL     1       6.220   5.800  16.244  0.00  0.00    +0.000 C 
ATOM     28  C   UNL     1       4.754   5.379  16.420  0.00  0.00    +0.000 C 
ATOM     29  C   UNL     1       4.552   4.330  17.516  0.00  0.00    +0.000 C 
ATOM     30  C   UNL     1       5.187   4.707  18.868  0.00  0.00    +0.000 C 
ATOM     31  C   UNL     1       6.663   5.085  18.657  0.00  0.00    +0.000 C 
ATOM     32  C   UNL     1       6.852   6.169  17.592  0.00  0.00    +0.000 C 
ENDBRANCH  24  30
ENDBRANCH  23  24
ENDBRANCH   1  23
TORSDOF 5
ENDMDL
MODEL 7
REMARK VINA RESULT:      -8.5      2.126      3.396
REMARK  Name = 
REMARK  6 active torsions:
REMARK  status: ('A' for Active; 'I' for Inactive)
REMARK    1  A    between atoms: C_1  and  C_2
REMARK    2  A    between atoms: C_5  and  N_6
REMARK    3  A    between atoms: N_6  and  C_7
REMARK    4  A    between atoms: C_7  and  C_8
REMARK    5  A    between atoms: C_16  and  C_17
REMARK    6  A    between atoms: C_20  and  N_21
REMARK                            x       y       z     vdW  Elec       q    Type
REMARK                         _______ _______ _______ _____ _____    ______ ____
ROOT
ATOM      1  C   UNL     1       0.393  10.237  20.103  0.00  0.00    +0.000 A 
ATOM      2  C   UNL     1       0.397   9.415  21.261  0.00  0.00    +0.000 A 
ATOM      3  C   UNL     1       1.075   8.194  21.295  0.00  0.00    +0.000 A 
ATOM      4  C   UNL     1       1.740   7.820  20.152  0.00  0.00    +0.000 A 
ATOM      5  C   UNL     1       1.757   8.621  18.978  0.00  0.00    +0.000 A 
ATOM      6  C   UNL     1       1.082   9.830  18.947  0.00  0.00    +0.000 A 
ATOM      7  C   UNL     1       2.588   8.004  17.838  0.00  0.00    +0.000 C 
ATOM      8  C   UNL     1       3.004   6.766  18.556  0.00  0.00    +0.000 A 
ATOM      9  C   UNL     1       3.748   5.589  18.360  0.00  0.00    +0.000 A 
ATOM     10  N   UNL     1       3.692   4.818  19.475  0.00  0.00    +0.000 NA
ATOM     11  N   UNL     1       2.946   5.527  20.359  0.00  0.00    +0.000 N 
ATOM     12  C   UNL     1       2.521   6.684  19.830  0.00  0.00    +0.000 A 
ATOM     13  H   UNL     1       2.781   5.137  21.281  0.00  0.00    +0.000 HD
ENDROOT
BRANCH   9  14
ATOM     14  C   UNL     1       4.496   5.183  17.174  0.00  0.00    +0.000 A 
ATOM     15  C   UNL     1       4.720   3.828  16.899  0.00  0.00    +0.000 A 
ATOM     16  C   UNL     1       5.409   3.441  15.747  0.00  0.00    +0.000 A 
ATOM     17  C   UNL     1       5.920   4.397  14.866  0.00  0.00    +0.000 A 
ATOM     18  C   UNL     1       5.660   5.745  15.118  0.00  0.00    +0.000 A 
ATOM     19  C   UNL     1       4.972   6.138  16.271  0.00  0.00    +0.000 A 
BRANCH  17  20
ATOM     20  N   UNL     1       6.464   3.997  13.642  0.00  0.00    +0.000 N 
ATOM     21  H   UNL     1       7.396   3.603  13.713  0.00  0.00    +0.000 HD
ATOM     22  H   UNL     1       6.394   4.700  12.912  0.00  0.00    +0.000 HD
ENDBRANCH  17  20
ENDBRANCH   9  14
BRANCH   1  23
ATOM     23  C   UNL     1      -0.346  11.559  20.133  0.00  0.00    +0.000 C 
BRANCH  23  24
ATOM     24  N   UNL     1       0.536  12.621  20.615  0.00  0.00    +0.000 NA
ATOM     25  H   UNL     1       1.484  12.245  20.646  0.00  0.00    +0.000 HD
BRANCH  24  30
ATOM     26  C   UNL     1       3.408  15.386  17.795  0.00  0.00    +0.000 C 
ATOM     27  C   UNL     1       3.362  14.207  18.773  0.00  0.00    +0.000 C 
ATOM     28  C   UNL     1       2.935  14.661  20.176  0.00  0.00    +0.000 C 
ATOM     29  C   UNL     1       1.438  14.960  20.287  0.00  0.00    +0.000 C 
ATOM     30  C   UNL     1       0.533  13.825  19.771  0.00  0.00    +0.000 C 
ATOM     31  C   UNL     1       0.966  13.425  18.351  0.00  0.00    +0.000 C 
ATOM     32  C   UNL     1       2.455  13.080  18.259  0.00  0.00    +0.000 C 
ENDBRANCH  24  30
ENDBRANCH  23  24
ENDBRANCH   1  23
TORSDOF 5
ENDMDL
MODEL 8
REMARK VINA RESULT:      -8.4      2.800      9.323
REMARK  Name = 
REMARK  6 active torsions:
REMARK  status: ('A' for Active; 'I' for Inactive)
REMARK    1  A    between atoms: C_1  and  C_2
REMARK    2  A    between atoms: C_5  and  N_6
REMARK    3  A    between atoms: N_6  and  C_7
REMARK    4  A    between atoms: C_7  and  C_8
REMARK    5  A    between atoms: C_16  and  C_17
REMARK    6  A    between atoms: C_20  and  N_21
REMARK                            x       y       z     vdW  Elec       q    Type
REMARK                         _______ _______ _______ _____ _____    ______ ____
ROOT
ATOM      1  C   UNL     1       2.691   7.564  18.975  0.00  0.00    +0.000 A 
ATOM      2  C   UNL     1       2.693   8.329  17.778  0.00  0.00    +0.000 A 
ATOM      3  C   UNL     1       1.857   9.436  17.610  0.00  0.00    +0.000 A 
ATOM      4  C   UNL     1       1.027   9.752  18.657  0.00  0.00    +0.000 A 
ATOM      5  C   UNL     1       1.001   9.008  19.869  0.00  0.00    +0.000 A 
ATOM      6  C   UNL     1       1.829   7.910  20.031  0.00  0.00    +0.000 A 
ATOM      7  C   UNL     1       0.008   9.569  20.902  0.00  0.00    +0.000 C 
ATOM      8  C   UNL     1      -0.499  10.704  20.080  0.00  0.00    +0.000 A 
ATOM      9  C   UNL     1      -1.418  11.767  20.136  0.00  0.00    +0.000 A 
ATOM     10  N   UNL     1      -1.411  12.445  18.961  0.00  0.00    +0.000 NA
ATOM     11  N   UNL     1      -0.474  11.825  18.200  0.00  0.00    +0.000 N 
ATOM     12  C   UNL     1       0.074  10.783  18.844  0.00  0.00    +0.000 A 
ATOM     13  H   UNL     1      -0.290  12.179  17.268  0.00  0.00    +0.000 HD
ENDROOT
BRANCH   9  14
ATOM     14  C   UNL     1      -2.285  12.151  21.246  0.00  0.00    +0.000 A 
ATOM     15  C   UNL     1      -1.875  11.961  22.572  0.00  0.00    +0.000 A 
ATOM     16  C   UNL     1      -2.693  12.358  23.633  0.00  0.00    +0.000 A 
ATOM     17  C   UNL     1      -3.951  12.916  23.394  0.00  0.00    +0.000 A 
ATOM     18  C   UNL     1      -4.341  13.143  22.073  0.00  0.00    +0.000 A 
ATOM     19  C   UNL     1      -3.527  12.747  21.007  0.00  0.00    +0.000 A 
BRANCH  17  20
ATOM     20  N   UNL     1      -4.687  13.453  24.453  0.00  0.00    +0.000 N 
ATOM     21  H   UNL     1      -5.219  14.282  24.209  0.00  0.00    +0.000 HD
ATOM     22  H   UNL     1      -4.150  13.574  25.308  0.00  0.00    +0.000 HD
ENDBRANCH  17  20
ENDBRANCH   9  14
BRANCH   1  23
ATOM     23  C   UNL     1       3.632   6.384  19.103  0.00  0.00    +0.000 C 
BRANCH  23  24
ATOM     24  N   UNL     1       3.247   5.551  20.242  0.00  0.00    +0.000 NA
ATOM     25  H   UNL     1       2.272   5.759  20.460  0.00  0.00    +0.000 HD
BRANCH  24  30
ATOM     26  C   UNL     1       0.741   1.626  18.773  0.00  0.00    +0.000 C 
ATOM     27  C   UNL     1       0.651   3.108  19.154  0.00  0.00    +0.000 C 
ATOM     28  C   UNL     1       1.008   3.328  20.631  0.00  0.00    +0.000 C 
ATOM     29  C   UNL     1       2.509   3.228  20.913  0.00  0.00    +0.000 C 
ATOM     30  C   UNL     1       3.378   4.108  19.995  0.00  0.00    +0.000 C 
ATOM     31  C   UNL     1       3.019   3.832  18.525  0.00  0.00    +0.000 C 
ATOM     32  C   UNL     1       1.522   3.981  18.241  0.00  0.00    +0.000 C 
ENDBRANCH  24  30
ENDBRANCH  23  24
ENDBRANCH   1  23
TORSDOF 5
ENDMDL
MODEL 9
REMARK VINA RESULT:      -8.4      2.357      3.585
REMARK  Name = 
REMARK  6 active torsions:
REMARK  status: ('A' for Active; 'I' for Inactive)
REMARK    1  A    between atoms: C_1  and  C_2
REMARK    2  A    between atoms: C_5  and  N_6
REMARK    3  A    between atoms: N_6  and  C_7
REMARK    4  A    between atoms: C_7  and  C_8
REMARK    5  A    between atoms: C_16  and  C_17
REMARK    6  A    between atoms: C_20  and  N_21
REMARK                            x       y       z     vdW  Elec       q    Type
REMARK                         _______ _______ _______ _____ _____    ______ ____
ROOT
ATOM      1  C   UNL     1       0.053  10.719  19.812  0.00  0.00    +0.000 A 
ATOM      2  C   UNL     1       0.045   9.985  21.028  0.00  0.00    +0.000 A 
ATOM      3  C   UNL     1       0.740   8.781  21.167  0.00  0.00    +0.000 A 
ATOM      4  C   UNL     1       1.435   8.335  20.068  0.00  0.00    +0.000 A 
ATOM      5  C   UNL     1       1.466   9.047  18.838  0.00  0.00    +0.000 A 
ATOM      6  C   UNL     1       0.772  10.239  18.704  0.00  0.00    +0.000 A 
ATOM      7  C   UNL     1       2.330   8.362  17.764  0.00  0.00    +0.000 C 
ATOM      8  C   UNL     1       2.749   7.188  18.580  0.00  0.00    +0.000 A 
ATOM      9  C   UNL     1       3.515   6.012  18.488  0.00  0.00    +0.000 A 
ATOM     10  N   UNL     1       3.447   5.325  19.655  0.00  0.00    +0.000 NA
ATOM     11  N   UNL     1       2.671   6.084  20.469  0.00  0.00    +0.000 N 
ATOM     12  C   UNL     1       2.241   7.192  19.847  0.00  0.00    +0.000 A 
ATOM     13  H   UNL     1       2.493   5.761  21.414  0.00  0.00    +0.000 HD
ENDROOT
BRANCH   9  14
ATOM     14  C   UNL     1       4.294   5.532  17.350  0.00  0.00    +0.000 A 
ATOM     15  C   UNL     1       4.472   4.160  17.133  0.00  0.00    +0.000 A 
ATOM     16  C   UNL     1       5.191   3.702  16.026  0.00  0.00    +0.000 A 
ATOM     17  C   UNL     1       5.780   4.603  15.135  0.00  0.00    +0.000 A 
ATOM     18  C   UNL     1       5.567   5.970  15.329  0.00  0.00    +0.000 A 
ATOM     19  C   UNL     1       4.849   6.433  16.436  0.00  0.00    +0.000 A 
BRANCH  17  20
ATOM     20  N   UNL     1       6.357   4.136  13.952  0.00  0.00    +0.000 N 
ATOM     21  H   UNL     1       6.840   4.851  13.417  0.00  0.00    +0.000 HD
ATOM     22  H   UNL     1       5.727   3.581  13.378  0.00  0.00    +0.000 HD
ENDBRANCH  17  20
ENDBRANCH   9  14
BRANCH   1  23
ATOM     23  C   UNL     1      -0.707  12.027  19.730  0.00  0.00    +0.000 C 
BRANCH  23  24
ATOM     24  N   UNL     1       0.109  13.045  19.068  0.00  0.00    +0.000 NA
ATOM     25  H   UNL     1      -0.523  13.757  18.703  0.00  0.00    +0.000 HD
BRANCH  24  30
ATOM     26  C   UNL     1       3.605  16.453  19.156  0.00  0.00    +0.000 C 
ATOM     27  C   UNL     1       2.638  15.663  18.267  0.00  0.00    +0.000 C 
ATOM     28  C   UNL     1       2.975  14.165  18.269  0.00  0.00    +0.000 C 
ATOM     29  C   UNL     1       2.556  13.452  19.557  0.00  0.00    +0.000 C 
ATOM     30  C   UNL     1       1.087  13.691  19.956  0.00  0.00    +0.000 C 
ATOM     31  C   UNL     1       0.799  15.202  19.980  0.00  0.00    +0.000 C 
ATOM     32  C   UNL     1       1.176  15.899  18.670  0.00  0.00    +0.000 C 
ENDBRANCH  24  30
ENDBRANCH  23  24
ENDBRANCH   1  23
TORSDOF 5
ENDMDL
