MODEL 1
REMARK VINA RESULT:      -6.9      0.000      0.000
REMARK  Name = 
REMARK  8 active torsions:
REMARK  status: ('A' for Active; 'I' for Inactive)
REMARK    1  A    between atoms: C_1  and  O_2
REMARK    2  A    between atoms: O_2  and  C_3
REMARK    3  A    between atoms: C_5  and  C_6
REMARK    4  A    between atoms: C_7  and  C_8
REMARK    5  A    between atoms: C_16  and  O_17
REMARK    6  A    between atoms: O_17  and  C_18
REMARK    7  A    between atoms: C_19  and  O_20
REMARK    8  A    between atoms: O_20  and  C_21
REMARK                            x       y       z     vdW  Elec       q    Type
REMARK                         _______ _______ _______ _____ _____    ______ ____
ROOT
ATOM      1  C   UNL     1      10.205  12.830  18.328  0.00  0.00    +0.000 A 
ATOM      2  C   UNL     1       9.930  11.471  18.096  0.00  0.00    +0.000 A 
ATOM      3  C   UNL     1       9.502  10.629  19.120  0.00  0.00    +0.000 A 
ATOM      4  C   UNL     1       9.447  11.152  20.411  0.00  0.00    +0.000 A 
ATOM      5  C   UNL     1       9.807  12.483  20.690  0.00  0.00    +0.000 A 
ATOM      6  C   UNL     1      10.186  13.348  19.640  0.00  0.00    +0.000 A 
ENDROOT
BRANCH   1   8
ATOM      7  C   UNL     1      11.821  13.466  16.708  0.00  0.00    +0.000 C 
ATOM      8  O   UNL     1      10.518  13.646  17.269  0.00  0.00    +0.000 OA
ENDBRANCH   1   8
BRANCH   3   9
ATOM      9  C   UNL     1       8.995   9.268  18.871  0.00  0.00    +0.000 C 
ATOM     10  C   UNL     1       8.114   8.939  17.914  0.00  0.00    +0.000 C 
BRANCH  10  11
ATOM     11  C   UNL     1       7.572   7.563  17.688  0.00  0.00    +0.000 C 
ATOM     12  N   UNL     1       6.909   7.365  16.587  0.00  0.00    +0.000 NA
ATOM     13  N   UNL     1       6.447   6.116  16.328  0.00  0.00    +0.000 N 
ATOM     14  C   UNL     1       6.431   5.053  17.184  0.00  0.00    +0.000 C 
ATOM     15  O   UNL     1       6.013   3.951  16.843  0.00  0.00    +0.000 OA
ATOM     16  C   UNL     1       6.853   5.343  18.596  0.00  0.00    +0.000 C 
ATOM     17  C   UNL     1       7.867   6.461  18.677  0.00  0.00    +0.000 C 
ATOM     18  H   UNL     1       6.069   5.960  15.396  0.00  0.00    +0.000 HD
ENDBRANCH  10  11
ENDBRANCH   3   9
BRANCH   5  19
ATOM     19  O   UNL     1       9.691  12.754  22.032  0.00  0.00    +0.000 OA
ATOM     20  C   UNL     1       8.425  13.096  22.575  0.00  0.00    +0.000 C 
ENDBRANCH   5  19
BRANCH   6  21
ATOM     21  O   UNL     1      10.508  14.627  20.004  0.00  0.00    +0.000 OA
ATOM     22  C   UNL     1       9.535  15.659  19.995  0.00  0.00    +0.000 C 
ENDBRANCH   6  21
TORSDOF 5
ENDMDL
MODEL 2
REMARK VINA RESULT:      -6.7      7.597     10.530
REMARK  Name = 
REMARK  8 active torsions:
REMARK  status: ('A' for Active; 'I' for Inactive)
REMARK    1  A    between atoms: C_1  and  O_2
REMARK    2  A    between atoms: O_2  and  C_3
REMARK    3  A    between atoms: C_5  and  C_6
REMARK    4  A    between atoms: C_7  and  C_8
REMARK    5  A    between atoms: C_16  and  O_17
REMARK    6  A    between atoms: O_17  and  C_18
REMARK    7  A    between atoms: C_19  and  O_20
REMARK    8  A    between atoms: O_20  and  C_21
REMARK                            x       y       z     vdW  Elec       q    Type
REMARK                         _______ _______ _______ _____ _____    ______ ____
ROOT
ATOM      1  C   UNL     1       3.723   5.468  18.096  0.00  0.00    +0.000 A 
ATOM      2  C   UNL     1       3.009   6.624  18.458  0.00  0.00    +0.000 A 
ATOM      3  C   UNL     1       2.315   6.705  19.664  0.00  0.00    +0.000 A 
ATOM      4  C   UNL     1       2.265   5.563  20.463  0.00  0.00    +0.000 A 
ATOM      5  C   UNL     1       2.890   4.361  20.082  0.00  0.00    +0.000 A 
ATOM      6  C   UNL     1       3.640   4.302  18.887  0.00  0.00    +0.000 A 
ENDROOT
BRANCH   1   8
ATOM      7  C   UNL     1       5.791   6.031  17.074  0.00  0.00    +0.000 C 
ATOM      8  O   UNL     1       4.480   5.472  16.952  0.00  0.00    +0.000 OA
ENDBRANCH   1   8
BRANCH   3   9
ATOM      9  C   UNL     1       1.750   7.966  20.173  0.00  0.00    +0.000 C 
ATOM     10  C   UNL     1       0.969   8.076  21.259  0.00  0.00    +0.000 C 
BRANCH  10  11
ATOM     11  C   UNL     1       0.364   9.353  21.752  0.00  0.00    +0.000 C 
ATOM     12  N   UNL     1      -0.447   9.268  22.764  0.00  0.00    +0.000 NA
ATOM     13  N   UNL     1      -0.973  10.412  23.267  0.00  0.00    +0.000 N 
ATOM     14  C   UNL     1      -0.901  11.660  22.717  0.00  0.00    +0.000 C 
ATOM     15  O   UNL     1      -1.391  12.642  23.267  0.00  0.00    +0.000 OA
ATOM     16  C   UNL     1      -0.283  11.738  21.350  0.00  0.00    +0.000 C 
ATOM     17  C   UNL     1       0.762  10.669  21.127  0.00  0.00    +0.000 C 
ATOM     18  H   UNL     1      -1.478  10.328  24.146  0.00  0.00    +0.000 HD
ENDBRANCH  10  11
ENDBRANCH   3   9
BRANCH   5  19
ATOM     19  O   UNL     1       2.681   3.379  21.019  0.00  0.00    +0.000 OA
ATOM     20  C   UNL     1       1.372   2.866  21.222  0.00  0.00    +0.000 C 
ENDBRANCH   5  19
BRANCH   6  21
ATOM     21  O   UNL     1       4.220   3.096  18.603  0.00  0.00    +0.000 OA
ATOM     22  C   UNL     1       3.478   2.050  17.996  0.00  0.00    +0.000 C 
ENDBRANCH   6  21
TORSDOF 5
ENDMDL
MODEL 3
REMARK VINA RESULT:      -6.7      7.187     10.724
REMARK  Name = 
REMARK  8 active torsions:
REMARK  status: ('A' for Active; 'I' for Inactive)
REMARK    1  A    between atoms: C_1  and  O_2
REMARK    2  A    between atoms: O_2  and  C_3
REMARK    3  A    between atoms: C_5  and  C_6
REMARK    4  A    between atoms: C_7  and  C_8
REMARK    5  A    between atoms: C_16  and  O_17
REMARK    6  A    between atoms: O_17  and  C_18
REMARK    7  A    between atoms: C_19  and  O_20
REMARK    8  A    between atoms: O_20  and  C_21
REMARK                            x       y       z     vdW  Elec       q    Type
REMARK                         _______ _______ _______ _____ _____    ______ ____
ROOT
ATOM      1  C   UNL     1       1.872   3.920  19.508  0.00  0.00    +0.000 A 
ATOM      2  C   UNL     1       1.886   5.300  19.778  0.00  0.00    +0.000 A 
ATOM      3  C   UNL     1       2.490   6.206  18.908  0.00  0.00    +0.000 A 
ATOM      4  C   UNL     1       3.172   5.693  17.805  0.00  0.00    +0.000 A 
ATOM      5  C   UNL     1       3.256   4.310  17.561  0.00  0.00    +0.000 A 
ATOM      6  C   UNL     1       2.594   3.399  18.413  0.00  0.00    +0.000 A 
ENDROOT
BRANCH   1   8
ATOM      7  C   UNL     1       1.808   2.750  21.574  0.00  0.00    +0.000 C 
ATOM      8  O   UNL     1       1.172   3.078  20.336  0.00  0.00    +0.000 OA
ENDBRANCH   1   8
BRANCH   3   9
ATOM      9  C   UNL     1       2.331   7.664  19.042  0.00  0.00    +0.000 C 
ATOM     10  C   UNL     1       1.855   8.477  18.087  0.00  0.00    +0.000 C 
BRANCH  10  11
ATOM     11  C   UNL     1       1.730   9.963  18.212  0.00  0.00    +0.000 C 
ATOM     12  N   UNL     1       2.614  10.683  17.588  0.00  0.00    +0.000 NA
ATOM     13  N   UNL     1       2.500  12.033  17.638  0.00  0.00    +0.000 N 
ATOM     14  C   UNL     1       1.658  12.756  18.434  0.00  0.00    +0.000 C 
ATOM     15  O   UNL     1       1.612  13.981  18.387  0.00  0.00    +0.000 OA
ATOM     16  C   UNL     1       0.874  11.967  19.444  0.00  0.00    +0.000 C 
ATOM     17  C   UNL     1       0.572  10.564  18.972  0.00  0.00    +0.000 C 
ATOM     18  H   UNL     1       3.111  12.561  17.020  0.00  0.00    +0.000 HD
ENDBRANCH  10  11
ENDBRANCH   3   9
BRANCH   5  19
ATOM     19  O   UNL     1       3.995   4.053  16.432  0.00  0.00    +0.000 OA
ATOM     20  C   UNL     1       5.200   4.768  16.201  0.00  0.00    +0.000 C 
ENDBRANCH   5  19
BRANCH   6  21
ATOM     21  O   UNL     1       2.722   2.076  18.092  0.00  0.00    +0.000 OA
ATOM     22  C   UNL     1       3.749   1.280  18.661  0.00  0.00    +0.000 C 
ENDBRANCH   6  21
TORSDOF 5
ENDMDL
MODEL 4
REMARK VINA RESULT:      -6.7      0.672      2.852
REMARK  Name = 
REMARK  8 active torsions:
REMARK  status: ('A' for Active; 'I' for Inactive)
REMARK    1  A    between atoms: C_1  and  O_2
REMARK    2  A    between atoms: O_2  and  C_3
REMARK    3  A    between atoms: C_5  and  C_6
REMARK    4  A    between atoms: C_7  and  C_8
REMARK    5  A    between atoms: C_16  and  O_17
REMARK    6  A    between atoms: O_17  and  C_18
REMARK    7  A    between atoms: C_19  and  O_20
REMARK    8  A    between atoms: O_20  and  C_21
REMARK                            x       y       z     vdW  Elec       q    Type
REMARK                         _______ _______ _______ _____ _____    ______ ____
ROOT
ATOM      1  C   UNL     1       9.827  12.576  20.604  0.00  0.00    +0.000 A 
ATOM      2  C   UNL     1       9.295  11.300  20.346  0.00  0.00    +0.000 A 
ATOM      3  C   UNL     1       9.316  10.748  19.067  0.00  0.00    +0.000 A 
ATOM      4  C   UNL     1       9.792  11.540  18.024  0.00  0.00    +0.000 A 
ATOM      5  C   UNL     1      10.243  12.856  18.236  0.00  0.00    +0.000 A 
ATOM      6  C   UNL     1      10.273  13.392  19.543  0.00  0.00    +0.000 A 
ENDROOT
BRANCH   1   8
ATOM      7  C   UNL     1       8.717  13.717  22.367  0.00  0.00    +0.000 C 
ATOM      8  O   UNL     1       9.883  13.035  21.897  0.00  0.00    +0.000 OA
ENDBRANCH   1   8
BRANCH   3   9
ATOM      9  C   UNL     1       8.976   9.338  18.804  0.00  0.00    +0.000 C 
ATOM     10  C   UNL     1       8.122   8.917  17.860  0.00  0.00    +0.000 C 
BRANCH  10  11
ATOM     11  C   UNL     1       7.748   7.488  17.621  0.00  0.00    +0.000 C 
ATOM     12  N   UNL     1       7.470   7.148  16.397  0.00  0.00    +0.000 NA
ATOM     13  N   UNL     1       7.177   5.850  16.138  0.00  0.00    +0.000 N 
ATOM     14  C   UNL     1       6.953   4.861  17.053  0.00  0.00    +0.000 C 
ATOM     15  O   UNL     1       6.719   3.705  16.715  0.00  0.00    +0.000 OA
ATOM     16  C   UNL     1       6.902   5.297  18.489  0.00  0.00    +0.000 C 
ATOM     17  C   UNL     1       7.781   6.497  18.760  0.00  0.00    +0.000 C 
ATOM     18  H   UNL     1       7.114   5.589  15.156  0.00  0.00    +0.000 HD
ENDBRANCH  10  11
ENDBRANCH   3   9
BRANCH   5  19
ATOM     19  O   UNL     1      10.640  13.437  17.057  0.00  0.00    +0.000 OA
ATOM     20  C   UNL     1      11.982  13.293  16.617  0.00  0.00    +0.000 C 
ENDBRANCH   5  19
BRANCH   6  21
ATOM     21  O   UNL     1      10.736  14.674  19.654  0.00  0.00    +0.000 OA
ATOM     22  C   UNL     1      12.107  14.940  19.898  0.00  0.00    +0.000 C 
ENDBRANCH   6  21
TORSDOF 5
ENDMDL
MODEL 5
REMARK VINA RESULT:      -6.6      5.892      9.673
REMARK  Name = 
REMARK  8 active torsions:
REMARK  status: ('A' for Active; 'I' for Inactive)
REMARK    1  A    between atoms: C_1  and  O_2
REMARK    2  A    between atoms: O_2  and  C_3
REMARK    3  A    between atoms: C_5  and  C_6
REMARK    4  A    between atoms: C_7  and  C_8
REMARK    5  A    between atoms: C_16  and  O_17
REMARK    6  A    between atoms: O_17  and  C_18
REMARK    7  A    between atoms: C_19  and  O_20
REMARK    8  A    between atoms: O_20  and  C_21
REMARK                            x       y       z     vdW  Elec       q    Type
REMARK                         _______ _______ _______ _____ _____    ______ ____
ROOT
ATOM      1  C   UNL     1       3.943   4.474  17.554  0.00  0.00    +0.000 A 
ATOM      2  C   UNL     1       3.018   5.395  18.076  0.00  0.00    +0.000 A 
ATOM      3  C   UNL     1       3.213   6.770  17.959  0.00  0.00    +0.000 A 
ATOM      4  C   UNL     1       4.408   7.212  17.393  0.00  0.00    +0.000 A 
ATOM      5  C   UNL     1       5.396   6.314  16.947  0.00  0.00    +0.000 A 
ATOM      6  C   UNL     1       5.169   4.922  17.016  0.00  0.00    +0.000 A 
ENDROOT
BRANCH   1   8
ATOM      7  C   UNL     1       2.272   2.793  17.698  0.00  0.00    +0.000 C 
ATOM      8  O   UNL     1       3.658   3.132  17.596  0.00  0.00    +0.000 OA
ENDBRANCH   1   8
BRANCH   3   9
ATOM      9  C   UNL     1       2.166   7.753  18.291  0.00  0.00    +0.000 C 
ATOM     10  C   UNL     1       2.141   9.024  17.863  0.00  0.00    +0.000 C 
BRANCH  10  11
ATOM     11  C   UNL     1       1.098  10.031  18.234  0.00  0.00    +0.000 C 
ATOM     12  N   UNL     1       1.516  11.149  18.748  0.00  0.00    +0.000 NA
ATOM     13  N   UNL     1       0.600  12.104  19.048  0.00  0.00    +0.000 N 
ATOM     14  C   UNL     1      -0.759  11.966  19.048  0.00  0.00    +0.000 C 
ATOM     15  O   UNL     1      -1.506  12.903  19.310  0.00  0.00    +0.000 OA
ATOM     16  C   UNL     1      -1.275  10.575  18.814  0.00  0.00    +0.000 C 
ATOM     17  C   UNL     1      -0.357   9.758  17.936  0.00  0.00    +0.000 C 
ATOM     18  H   UNL     1       0.968  13.017  19.304  0.00  0.00    +0.000 HD
ENDBRANCH  10  11
ENDBRANCH   3   9
BRANCH   5  19
ATOM     19  O   UNL     1       6.485   6.987  16.451  0.00  0.00    +0.000 OA
ATOM     20  C   UNL     1       7.439   7.540  17.346  0.00  0.00    +0.000 C 
ENDBRANCH   5  19
BRANCH   6  21
ATOM     21  O   UNL     1       6.180   4.126  16.550  0.00  0.00    +0.000 OA
ATOM     22  C   UNL     1       6.277   3.795  15.175  0.00  0.00    +0.000 C 
ENDBRANCH   6  21
TORSDOF 5
ENDMDL
MODEL 6
REMARK VINA RESULT:      -6.6      7.131     10.270
REMARK  Name = 
REMARK  8 active torsions:
REMARK  status: ('A' for Active; 'I' for Inactive)
REMARK    1  A    between atoms: C_1  and  O_2
REMARK    2  A    between atoms: O_2  and  C_3
REMARK    3  A    between atoms: C_5  and  C_6
REMARK    4  A    between atoms: C_7  and  C_8
REMARK    5  A    between atoms: C_16  and  O_17
REMARK    6  A    between atoms: O_17  and  C_18
REMARK    7  A    between atoms: C_19  and  O_20
REMARK    8  A    between atoms: O_20  and  C_21
REMARK                            x       y       z     vdW  Elec       q    Type
REMARK                         _______ _______ _______ _____ _____    ______ ____
ROOT
ATOM      1  C   UNL     1       4.328   4.472  17.367  0.00  0.00    +0.000 A 
ATOM      2  C   UNL     1       4.054   5.843  17.517  0.00  0.00    +0.000 A 
ATOM      3  C   UNL     1       2.865   6.290  18.092  0.00  0.00    +0.000 A 
ATOM      4  C   UNL     1       1.906   5.336  18.426  0.00  0.00    +0.000 A 
ATOM      5  C   UNL     1       2.113   3.962  18.201  0.00  0.00    +0.000 A 
ATOM      6  C   UNL     1       3.342   3.510  17.671  0.00  0.00    +0.000 A 
ENDROOT
BRANCH   1   8
ATOM      7  C   UNL     1       5.715   4.100  15.476  0.00  0.00    +0.000 C 
ATOM      8  O   UNL     1       5.556   4.077  16.897  0.00  0.00    +0.000 OA
ENDBRANCH   1   8
BRANCH   3   9
ATOM      9  C   UNL     1       2.643   7.698  18.466  0.00  0.00    +0.000 C 
ATOM     10  C   UNL     1       2.030   8.610  17.697  0.00  0.00    +0.000 C 
BRANCH  10  11
ATOM     11  C   UNL     1       1.841  10.049  18.063  0.00  0.00    +0.000 C 
ATOM     12  N   UNL     1       2.597  10.915  17.458  0.00  0.00    +0.000 NA
ATOM     13  N   UNL     1       2.416  12.231  17.729  0.00  0.00    +0.000 N 
ATOM     14  C   UNL     1       1.642  12.766  18.719  0.00  0.00    +0.000 C 
ATOM     15  O   UNL     1       1.523  13.978  18.867  0.00  0.00    +0.000 OA
ATOM     16  C   UNL     1       1.037  11.783  19.680  0.00  0.00    +0.000 C 
ATOM     17  C   UNL     1       0.756  10.445  19.036  0.00  0.00    +0.000 C 
ATOM     18  H   UNL     1       2.914  12.888  17.132  0.00  0.00    +0.000 HD
ENDBRANCH  10  11
ENDBRANCH   3   9
BRANCH   5  19
ATOM     19  O   UNL     1       1.020   3.228  18.591  0.00  0.00    +0.000 OA
ATOM     20  C   UNL     1       0.786   2.993  19.972  0.00  0.00    +0.000 C 
ENDBRANCH   5  19
BRANCH   6  21
ATOM     21  O   UNL     1       3.458   2.158  17.495  0.00  0.00    +0.000 OA
ATOM     22  C   UNL     1       3.837   1.310  18.566  0.00  0.00    +0.000 C 
ENDBRANCH   6  21
TORSDOF 5
ENDMDL
MODEL 7
REMARK VINA RESULT:      -6.6      6.974     10.248
REMARK  Name = 
REMARK  8 active torsions:
REMARK  status: ('A' for Active; 'I' for Inactive)
REMARK    1  A    between atoms: C_1  and  O_2
REMARK    2  A    between atoms: O_2  and  C_3
REMARK    3  A    between atoms: C_5  and  C_6
REMARK    4  A    between atoms: C_7  and  C_8
REMARK    5  A    between atoms: C_16  and  O_17
REMARK    6  A    between atoms: O_17  and  C_18
REMARK    7  A    between atoms: C_19  and  O_20
REMARK    8  A    between atoms: O_20  and  C_21
REMARK                            x       y       z     vdW  Elec       q    Type
REMARK                         _______ _______ _______ _____ _____    ______ ____
ROOT
ATOM      1  C   UNL     1       4.681   4.642  18.523  0.00  0.00    +0.000 A 
ATOM      2  C   UNL     1       4.287   5.991  18.570  0.00  0.00    +0.000 A 
ATOM      3  C   UNL     1       2.951   6.365  18.437  0.00  0.00    +0.000 A 
ATOM      4  C   UNL     1       2.021   5.365  18.154  0.00  0.00    +0.000 A 
ATOM      5  C   UNL     1       2.400   4.018  18.006  0.00  0.00    +0.000 A 
ATOM      6  C   UNL     1       3.746   3.636  18.199  0.00  0.00    +0.000 A 
ENDROOT
BRANCH   1   8
ATOM      7  C   UNL     1       6.924   5.395  18.728  0.00  0.00    +0.000 C 
ATOM      8  O   UNL     1       5.991   4.312  18.767  0.00  0.00    +0.000 OA
ENDBRANCH   1   8
BRANCH   3   9
ATOM      9  C   UNL     1       2.479   7.735  18.703  0.00  0.00    +0.000 C 
ATOM     10  C   UNL     1       1.745   8.473  17.856  0.00  0.00    +0.000 C 
BRANCH  10  11
ATOM     11  C   UNL     1       1.299   9.878  18.113  0.00  0.00    +0.000 C 
ATOM     12  N   UNL     1       2.202  10.809  18.017  0.00  0.00    +0.000 NA
ATOM     13  N   UNL     1       1.820  12.098  18.194  0.00  0.00    +0.000 N 
ATOM     14  C   UNL     1       0.612  12.541  18.650  0.00  0.00    +0.000 C 
ATOM     15  O   UNL     1       0.355  13.737  18.751  0.00  0.00    +0.000 OA
ATOM     16  C   UNL     1      -0.338  11.479  19.124  0.00  0.00    +0.000 C 
ATOM     17  C   UNL     1      -0.156  10.172  18.388  0.00  0.00    +0.000 C 
ATOM     18  H   UNL     1       2.512  12.809  17.964  0.00  0.00    +0.000 HD
ENDBRANCH  10  11
ENDBRANCH   3   9
BRANCH   5  19
ATOM     19  O   UNL     1       1.314   3.231  17.710  0.00  0.00    +0.000 OA
ATOM     20  C   UNL     1       0.620   2.565  18.754  0.00  0.00    +0.000 C 
ENDBRANCH   5  19
BRANCH   6  21
ATOM     21  O   UNL     1       4.019   2.304  18.046  0.00  0.00    +0.000 OA
ATOM     22  C   UNL     1       4.036   1.427  19.159  0.00  0.00    +0.000 C 
ENDBRANCH   6  21
TORSDOF 5
ENDMDL
MODEL 8
REMARK VINA RESULT:      -6.5      7.320     10.067
REMARK  Name = 
REMARK  8 active torsions:
REMARK  status: ('A' for Active; 'I' for Inactive)
REMARK    1  A    between atoms: C_1  and  O_2
REMARK    2  A    between atoms: O_2  and  C_3
REMARK    3  A    between atoms: C_5  and  C_6
REMARK    4  A    between atoms: C_7  and  C_8
REMARK    5  A    between atoms: C_16  and  O_17
REMARK    6  A    between atoms: O_17  and  C_18
REMARK    7  A    between atoms: C_19  and  O_20
REMARK    8  A    between atoms: O_20  and  C_21
REMARK                            x       y       z     vdW  Elec       q    Type
REMARK                         _______ _______ _______ _____ _____    ______ ____
ROOT
ATOM      1  C   UNL     1       3.875   4.727  17.882  0.00  0.00    +0.000 A 
ATOM      2  C   UNL     1       3.290   6.006  17.870  0.00  0.00    +0.000 A 
ATOM      3  C   UNL     1       2.586   6.496  18.969  0.00  0.00    +0.000 A 
ATOM      4  C   UNL     1       2.391   5.638  20.051  0.00  0.00    +0.000 A 
ATOM      5  C   UNL     1       2.883   4.320  20.053  0.00  0.00    +0.000 A 
ATOM      6  C   UNL     1       3.645   3.848  18.962  0.00  0.00    +0.000 A 
ENDROOT
BRANCH   1   8
ATOM      7  C   UNL     1       6.052   4.587  16.944  0.00  0.00    +0.000 C 
ATOM      8  O   UNL     1       4.651   4.330  16.822  0.00  0.00    +0.000 OA
ENDBRANCH   1   8
BRANCH   3   9
ATOM      9  C   UNL     1       2.156   7.901  19.076  0.00  0.00    +0.000 C 
ATOM     10  C   UNL     1       2.149   8.782  18.064  0.00  0.00    +0.000 C 
BRANCH  10  11
ATOM     11  C   UNL     1       1.749  10.219  18.183  0.00  0.00    +0.000 C 
ATOM     12  N   UNL     1       2.564  11.100  17.684  0.00  0.00    +0.000 NA
ATOM     13  N   UNL     1       2.208  12.408  17.730  0.00  0.00    +0.000 N 
ATOM     14  C   UNL     1       1.158  12.948  18.416  0.00  0.00    +0.000 C 
ATOM     15  O   UNL     1       0.903  14.148  18.373  0.00  0.00    +0.000 OA
ATOM     16  C   UNL     1       0.404  12.005  19.309  0.00  0.00    +0.000 C 
ATOM     17  C   UNL     1       0.417  10.585  18.791  0.00  0.00    +0.000 C 
ATOM     18  H   UNL     1       2.789  13.053  17.200  0.00  0.00    +0.000 HD
ENDBRANCH  10  11
ENDBRANCH   3   9
BRANCH   5  19
ATOM     19  O   UNL     1       2.546   3.670  21.215  0.00  0.00    +0.000 OA
ATOM     20  C   UNL     1       1.376   2.866  21.258  0.00  0.00    +0.000 C 
ENDBRANCH   5  19
BRANCH   6  21
ATOM     21  O   UNL     1       4.091   2.558  19.056  0.00  0.00    +0.000 OA
ATOM     22  C   UNL     1       3.405   1.497  18.411  0.00  0.00    +0.000 C 
ENDBRANCH   6  21
TORSDOF 5
ENDMDL
MODEL 9
REMARK VINA RESULT:      -6.5      7.625     10.518
REMARK  Name = 
REMARK  8 active torsions:
REMARK  status: ('A' for Active; 'I' for Inactive)
REMARK    1  A    between atoms: C_1  and  O_2
REMARK    2  A    between atoms: O_2  and  C_3
REMARK    3  A    between atoms: C_5  and  C_6
REMARK    4  A    between atoms: C_7  and  C_8
REMARK    5  A    between atoms: C_16  and  O_17
REMARK    6  A    between atoms: O_17  and  C_18
REMARK    7  A    between atoms: C_19  and  O_20
REMARK    8  A    between atoms: O_20  and  C_21
REMARK                            x       y       z     vdW  Elec       q    Type
REMARK                         _______ _______ _______ _____ _____    ______ ____
ROOT
ATOM      1  C   UNL     1       2.850   4.379  20.116  0.00  0.00    +0.000 A 
ATOM      2  C   UNL     1       2.392   5.700  20.272  0.00  0.00    +0.000 A 
ATOM      3  C   UNL     1       2.511   6.638  19.249  0.00  0.00    +0.000 A 
ATOM      4  C   UNL     1       3.191   6.257  18.093  0.00  0.00    +0.000 A 
ATOM      5  C   UNL     1       3.744   4.972  17.945  0.00  0.00    +0.000 A 
ATOM      6  C   UNL     1       3.571   4.006  18.962  0.00  0.00    +0.000 A 
ENDROOT
BRANCH   1   8
ATOM      7  C   UNL     1       1.306   2.884  21.125  0.00  0.00    +0.000 C 
ATOM      8  O   UNL     1       2.614   3.461  21.108  0.00  0.00    +0.000 OA
ENDBRANCH   1   8
BRANCH   3   9
ATOM      9  C   UNL     1       1.848   7.953  19.294  0.00  0.00    +0.000 C 
ATOM     10  C   UNL     1       1.846   8.849  18.296  0.00  0.00    +0.000 C 
BRANCH  10  11
ATOM     11  C   UNL     1       1.205  10.199  18.358  0.00  0.00    +0.000 C 
ATOM     12  N   UNL     1       1.989  11.229  18.243  0.00  0.00    +0.000 NA
ATOM     13  N   UNL     1       1.433  12.466  18.244  0.00  0.00    +0.000 N 
ATOM     14  C   UNL     1       0.139  12.785  18.543  0.00  0.00    +0.000 C 
ATOM     15  O   UNL     1      -0.274  13.939  18.491  0.00  0.00    +0.000 OA
ATOM     16  C   UNL     1      -0.713  11.655  19.044  0.00  0.00    +0.000 C 
ATOM     17  C   UNL     1      -0.296  10.319  18.472  0.00  0.00    +0.000 C 
ATOM     18  H   UNL     1       2.050  13.238  18.001  0.00  0.00    +0.000 HD
ENDBRANCH  10  11
ENDBRANCH   3   9
BRANCH   5  19
ATOM     19  O   UNL     1       4.380   4.845  16.735  0.00  0.00    +0.000 OA
ATOM     20  C   UNL     1       5.339   5.814  16.339  0.00  0.00    +0.000 C 
ENDBRANCH   5  19
BRANCH   6  21
ATOM     21  O   UNL     1       4.133   2.782  18.727  0.00  0.00    +0.000 OA
ATOM     22  C   UNL     1       3.394   1.742  18.108  0.00  0.00    +0.000 C 
ENDBRANCH   6  21
TORSDOF 5
ENDMDL
