MODEL 1
REMARK VINA RESULT:      -8.0      0.000      0.000
REMARK  Name = 
REMARK  6 active torsions:
REMARK  status: ('A' for Active; 'I' for Inactive)
REMARK    1  A    between atoms: C_1  and  O_2
REMARK    2  A    between atoms: O_2  and  C_3
REMARK    3  A    between atoms: C_6  and  N_7
REMARK    4  A    between atoms: C_11  and  C_12
REMARK    5  A    between atoms: C_15  and  C_16
REMARK    6  A    between atoms: C_21  and  O_22
REMARK                            x       y       z     vdW  Elec       q    Type
REMARK                         _______ _______ _______ _____ _____    ______ ____
ROOT
ATOM      1  C   UNL     1       5.246   5.566  17.959  0.00  0.00    +0.000 C 
ATOM      2  N   UNL     1       5.274   6.721  17.066  0.00  0.00    +0.000 N 
ATOM      3  N   UNL     1       5.492   6.463  15.749  0.00  0.00    +0.000 NA
ATOM      4  C   UNL     1       5.695   5.195  15.531  0.00  0.00    +0.000 C 
ATOM      5  S   UNL     1       5.539   4.119  16.913  0.00  0.00    +0.000 S 
ATOM      6  H   UNL     1       4.506   7.374  17.214  0.00  0.00    +0.000 HD
ENDROOT
BRANCH   1  12
ATOM      7  C   UNL     1       3.001   6.463  18.877  0.00  0.00    +0.000 A 
ATOM      8  C   UNL     1       1.913   6.298  19.757  0.00  0.00    +0.000 A 
ATOM      9  C   UNL     1       1.780   5.164  20.559  0.00  0.00    +0.000 A 
ATOM     10  C   UNL     1       2.751   4.170  20.488  0.00  0.00    +0.000 A 
ATOM     11  C   UNL     1       3.831   4.304  19.605  0.00  0.00    +0.000 A 
ATOM     12  C   UNL     1       3.987   5.459  18.792  0.00  0.00    +0.000 A 
BRANCH  10  13
ATOM     13  N   UNL     1       2.665   2.997  21.370  0.00  0.00    +0.000 N 
ATOM     14  O   UNL     1       1.624   2.848  22.025  0.00  0.00    +0.000 OA
ATOM     15  O   UNL     1       3.637   2.231  21.411  0.00  0.00    +0.000 OA
ENDBRANCH  10  13
BRANCH   7  17
ATOM     16  C   UNL     1       1.903   8.583  18.526  0.00  0.00    +0.000 C 
ATOM     17  O   UNL     1       2.986   7.697  18.289  0.00  0.00    +0.000 OA
ENDBRANCH   7  17
ENDBRANCH   1  12
BRANCH   4  18
ATOM     18  C   UNL     1       6.012   4.610  14.211  0.00  0.00    +0.000 A 
ATOM     19  C   UNL     1       5.073   3.788  13.562  0.00  0.00    +0.000 A 
ATOM     20  C   UNL     1       5.360   3.235  12.313  0.00  0.00    +0.000 A 
ATOM     21  C   UNL     1       6.590   3.482  11.708  0.00  0.00    +0.000 A 
ATOM     22  C   UNL     1       7.535   4.285  12.349  0.00  0.00    +0.000 A 
ATOM     23  C   UNL     1       7.246   4.850  13.593  0.00  0.00    +0.000 A 
BRANCH  23  24
ATOM     24  O   UNL     1       8.164   5.678  14.175  0.00  0.00    +0.000 OA
ATOM     25  H   UNL     1       9.057   5.435  13.885  0.00  0.00    +0.000 HD
ENDBRANCH  23  24
ENDBRANCH   4  18
TORSDOF 5
ENDMDL
MODEL 2
REMARK VINA RESULT:      -7.9      1.627      3.423
REMARK  Name = 
REMARK  6 active torsions:
REMARK  status: ('A' for Active; 'I' for Inactive)
REMARK    1  A    between atoms: C_1  and  O_2
REMARK    2  A    between atoms: O_2  and  C_3
REMARK    3  A    between atoms: C_6  and  N_7
REMARK    4  A    between atoms: C_11  and  C_12
REMARK    5  A    between atoms: C_15  and  C_16
REMARK    6  A    between atoms: C_21  and  O_22
REMARK                            x       y       z     vdW  Elec       q    Type
REMARK                         _______ _______ _______ _____ _____    ______ ____
ROOT
ATOM      1  C   UNL     1       4.535   3.701  18.421  0.00  0.00    +0.000 C 
ATOM      2  N   UNL     1       5.936   4.105  18.504  0.00  0.00    +0.000 N 
ATOM      3  N   UNL     1       6.573   4.327  17.323  0.00  0.00    +0.000 NA
ATOM      4  C   UNL     1       5.803   4.077  16.303  0.00  0.00    +0.000 C 
ATOM      5  S   UNL     1       4.139   3.633  16.656  0.00  0.00    +0.000 S 
ATOM      6  H   UNL     1       6.111   4.840  19.187  0.00  0.00    +0.000 HD
ENDROOT
BRANCH   1  12
ATOM      7  C   UNL     1       2.834   4.137  20.318  0.00  0.00    +0.000 A 
ATOM      8  C   UNL     1       1.913   5.014  20.927  0.00  0.00    +0.000 A 
ATOM      9  C   UNL     1       1.720   6.317  20.463  0.00  0.00    +0.000 A 
ATOM     10  C   UNL     1       2.457   6.759  19.369  0.00  0.00    +0.000 A 
ATOM     11  C   UNL     1       3.392   5.910  18.761  0.00  0.00    +0.000 A 
ATOM     12  C   UNL     1       3.590   4.578  19.214  0.00  0.00    +0.000 A 
BRANCH  10  13
ATOM     13  N   UNL     1       2.224   8.104  18.825  0.00  0.00    +0.000 N 
ATOM     14  O   UNL     1       2.764   8.389  17.747  0.00  0.00    +0.000 OA
ATOM     15  O   UNL     1       1.506   8.875  19.477  0.00  0.00    +0.000 OA
ENDBRANCH  10  13
BRANCH   7  17
ATOM     16  C   UNL     1       1.687   2.542  21.720  0.00  0.00    +0.000 C 
ATOM     17  O   UNL     1       2.763   2.884  20.861  0.00  0.00    +0.000 OA
ENDBRANCH   7  17
ENDBRANCH   1  12
BRANCH   4  18
ATOM     18  C   UNL     1       6.225   4.173  14.890  0.00  0.00    +0.000 A 
ATOM     19  C   UNL     1       5.646   3.331  13.924  0.00  0.00    +0.000 A 
ATOM     20  C   UNL     1       6.033   3.417  12.585  0.00  0.00    +0.000 A 
ATOM     21  C   UNL     1       7.012   4.330  12.202  0.00  0.00    +0.000 A 
ATOM     22  C   UNL     1       7.604   5.162  13.153  0.00  0.00    +0.000 A 
ATOM     23  C   UNL     1       7.209   5.087  14.492  0.00  0.00    +0.000 A 
BRANCH  23  24
ATOM     24  O   UNL     1       7.762   5.950  15.395  0.00  0.00    +0.000 OA
ATOM     25  H   UNL     1       7.304   6.803  15.358  0.00  0.00    +0.000 HD
ENDBRANCH  23  24
ENDBRANCH   4  18
TORSDOF 5
ENDMDL
MODEL 3
REMARK VINA RESULT:      -7.4      1.664      3.300
REMARK  Name = 
REMARK  6 active torsions:
REMARK  status: ('A' for Active; 'I' for Inactive)
REMARK    1  A    between atoms: C_1  and  O_2
REMARK    2  A    between atoms: O_2  and  C_3
REMARK    3  A    between atoms: C_6  and  N_7
REMARK    4  A    between atoms: C_11  and  C_12
REMARK    5  A    between atoms: C_15  and  C_16
REMARK    6  A    between atoms: C_21  and  O_22
REMARK                            x       y       z     vdW  Elec       q    Type
REMARK                         _______ _______ _______ _____ _____    ______ ____
ROOT
ATOM      1  C   UNL     1       5.497   5.165  18.016  0.00  0.00    +0.000 C 
ATOM      2  N   UNL     1       6.230   6.258  17.383  0.00  0.00    +0.000 N 
ATOM      3  N   UNL     1       6.484   6.127  16.054  0.00  0.00    +0.000 NA
ATOM      4  C   UNL     1       6.058   4.987  15.589  0.00  0.00    +0.000 C 
ATOM      5  S   UNL     1       5.182   3.954  16.709  0.00  0.00    +0.000 S 
ATOM      6  H   UNL     1       5.877   7.183  17.625  0.00  0.00    +0.000 HD
ENDROOT
BRANCH   1  12
ATOM      7  C   UNL     1       3.541   4.799  19.666  0.00  0.00    +0.000 A 
ATOM      8  C   UNL     1       2.332   5.269  20.217  0.00  0.00    +0.000 A 
ATOM      9  C   UNL     1       1.799   6.512  19.872  0.00  0.00    +0.000 A 
ATOM     10  C   UNL     1       2.483   7.308  18.958  0.00  0.00    +0.000 A 
ATOM     11  C   UNL     1       3.697   6.869  18.413  0.00  0.00    +0.000 A 
ATOM     12  C   UNL     1       4.244   5.601  18.745  0.00  0.00    +0.000 A 
BRANCH  10  13
ATOM     13  N   UNL     1       1.908   8.592  18.532  0.00  0.00    +0.000 N 
ATOM     14  O   UNL     1       2.147   8.973  17.377  0.00  0.00    +0.000 OA
ATOM     15  O   UNL     1       1.225   9.220  19.352  0.00  0.00    +0.000 OA
ENDBRANCH  10  13
BRANCH   7  17
ATOM     16  C   UNL     1       2.991   2.451  19.574  0.00  0.00    +0.000 C 
ATOM     17  O   UNL     1       3.801   3.514  20.053  0.00  0.00    +0.000 OA
ENDBRANCH   7  17
ENDBRANCH   1  12
BRANCH   4  18
ATOM     18  C   UNL     1       6.234   4.531  14.194  0.00  0.00    +0.000 A 
ATOM     19  C   UNL     1       5.261   3.712  13.594  0.00  0.00    +0.000 A 
ATOM     20  C   UNL     1       5.415   3.280  12.276  0.00  0.00    +0.000 A 
ATOM     21  C   UNL     1       6.546   3.645  11.551  0.00  0.00    +0.000 A 
ATOM     22  C   UNL     1       7.525   4.446  12.140  0.00  0.00    +0.000 A 
ATOM     23  C   UNL     1       7.368   4.892  13.455  0.00  0.00    +0.000 A 
BRANCH  23  24
ATOM     24  O   UNL     1       8.312   5.721  13.991  0.00  0.00    +0.000 OA
ATOM     25  H   UNL     1       7.890   6.360  14.586  0.00  0.00    +0.000 HD
ENDBRANCH  23  24
ENDBRANCH   4  18
TORSDOF 5
ENDMDL
MODEL 4
REMARK VINA RESULT:      -7.2      3.372      7.394
REMARK  Name = 
REMARK  6 active torsions:
REMARK  status: ('A' for Active; 'I' for Inactive)
REMARK    1  A    between atoms: C_1  and  O_2
REMARK    2  A    between atoms: O_2  and  C_3
REMARK    3  A    between atoms: C_6  and  N_7
REMARK    4  A    between atoms: C_11  and  C_12
REMARK    5  A    between atoms: C_15  and  C_16
REMARK    6  A    between atoms: C_21  and  O_22
REMARK                            x       y       z     vdW  Elec       q    Type
REMARK                         _______ _______ _______ _____ _____    ______ ____
ROOT
ATOM      1  C   UNL     1       2.936   7.308  19.238  0.00  0.00    +0.000 C 
ATOM      2  N   UNL     1       2.283   7.420  20.540  0.00  0.00    +0.000 N 
ATOM      3  N   UNL     1       1.287   8.339  20.641  0.00  0.00    +0.000 NA
ATOM      4  C   UNL     1       1.132   9.009  19.535  0.00  0.00    +0.000 C 
ATOM      5  S   UNL     1       2.126   8.523  18.169  0.00  0.00    +0.000 S 
ATOM      6  H   UNL     1       2.030   6.522  20.951  0.00  0.00    +0.000 HD
ENDROOT
BRANCH   1  12
ATOM      7  C   UNL     1       3.700   5.504  17.551  0.00  0.00    +0.000 A 
ATOM      8  C   UNL     1       3.551   4.200  17.040  0.00  0.00    +0.000 A 
ATOM      9  C   UNL     1       2.657   3.286  17.601  0.00  0.00    +0.000 A 
ATOM     10  C   UNL     1       1.891   3.678  18.695  0.00  0.00    +0.000 A 
ATOM     11  C   UNL     1       2.037   4.964  19.232  0.00  0.00    +0.000 A 
ATOM     12  C   UNL     1       2.934   5.908  18.663  0.00  0.00    +0.000 A 
BRANCH  10  13
ATOM     13  N   UNL     1       0.898   2.754  19.262  0.00  0.00    +0.000 N 
ATOM     14  O   UNL     1       0.811   2.692  20.496  0.00  0.00    +0.000 OA
ATOM     15  O   UNL     1       0.211   2.089  18.474  0.00  0.00    +0.000 OA
ENDBRANCH  10  13
BRANCH   7  17
ATOM     16  C   UNL     1       5.397   5.619  15.839  0.00  0.00    +0.000 C 
ATOM     17  O   UNL     1       4.535   6.255  16.770  0.00  0.00    +0.000 OA
ENDBRANCH   7  17
ENDBRANCH   1  12
BRANCH   4  18
ATOM     18  C   UNL     1       0.165  10.112  19.350  0.00  0.00    +0.000 A 
ATOM     19  C   UNL     1      -0.680  10.125  18.226  0.00  0.00    +0.000 A 
ATOM     20  C   UNL     1      -1.601  11.159  18.044  0.00  0.00    +0.000 A 
ATOM     21  C   UNL     1      -1.675  12.195  18.971  0.00  0.00    +0.000 A 
ATOM     22  C   UNL     1      -0.832  12.200  20.083  0.00  0.00    +0.000 A 
ATOM     23  C   UNL     1       0.081  11.160  20.275  0.00  0.00    +0.000 A 
BRANCH  23  24
ATOM     24  O   UNL     1       0.856  11.157  21.400  0.00  0.00    +0.000 OA
ATOM     25  H   UNL     1       0.437  11.695  22.090  0.00  0.00    +0.000 HD
ENDBRANCH  23  24
ENDBRANCH   4  18
TORSDOF 5
ENDMDL
MODEL 5
REMARK VINA RESULT:      -7.1      3.363      7.779
REMARK  Name = 
REMARK  6 active torsions:
REMARK  status: ('A' for Active; 'I' for Inactive)
REMARK    1  A    between atoms: C_1  and  O_2
REMARK    2  A    between atoms: O_2  and  C_3
REMARK    3  A    between atoms: C_6  and  N_7
REMARK    4  A    between atoms: C_11  and  C_12
REMARK    5  A    between atoms: C_15  and  C_16
REMARK    6  A    between atoms: C_21  and  O_22
REMARK                            x       y       z     vdW  Elec       q    Type
REMARK                         _______ _______ _______ _____ _____    ______ ____
ROOT
ATOM      1  C   UNL     1       3.023   7.237  19.104  0.00  0.00    +0.000 C 
ATOM      2  N   UNL     1       2.329   7.195  20.388  0.00  0.00    +0.000 N 
ATOM      3  N   UNL     1       1.316   8.085  20.559  0.00  0.00    +0.000 NA
ATOM      4  C   UNL     1       1.185   8.872  19.529  0.00  0.00    +0.000 C 
ATOM      5  S   UNL     1       2.229   8.554  18.151  0.00  0.00    +0.000 S 
ATOM      6  H   UNL     1       2.078   6.254  20.688  0.00  0.00    +0.000 HD
ENDROOT
BRANCH   1  12
ATOM      7  C   UNL     1       2.181   4.838  18.633  0.00  0.00    +0.000 A 
ATOM      8  C   UNL     1       2.365   3.612  17.963  0.00  0.00    +0.000 A 
ATOM      9  C   UNL     1       3.403   3.420  17.050  0.00  0.00    +0.000 A 
ATOM     10  C   UNL     1       4.280   4.469  16.796  0.00  0.00    +0.000 A 
ATOM     11  C   UNL     1       4.104   5.704  17.436  0.00  0.00    +0.000 A 
ATOM     12  C   UNL     1       3.061   5.910  18.377  0.00  0.00    +0.000 A 
BRANCH  10  13
ATOM     13  N   UNL     1       5.417   4.269  15.886  0.00  0.00    +0.000 N 
ATOM     14  O   UNL     1       6.538   4.117  16.393  0.00  0.00    +0.000 OA
ATOM     15  O   UNL     1       5.191   4.268  14.668  0.00  0.00    +0.000 OA
ENDBRANCH  10  13
BRANCH   7  17
ATOM     16  C   UNL     1       1.095   3.617  20.409  0.00  0.00    +0.000 C 
ATOM     17  O   UNL     1       1.184   4.755  19.565  0.00  0.00    +0.000 OA
ENDBRANCH   7  17
ENDBRANCH   1  12
BRANCH   4  18
ATOM     18  C   UNL     1       0.207   9.977  19.436  0.00  0.00    +0.000 A 
ATOM     19  C   UNL     1      -0.624  10.087  18.307  0.00  0.00    +0.000 A 
ATOM     20  C   UNL     1      -1.555  11.124  18.212  0.00  0.00    +0.000 A 
ATOM     21  C   UNL     1      -1.652  12.068  19.231  0.00  0.00    +0.000 A 
ATOM     22  C   UNL     1      -0.822  11.976  20.350  0.00  0.00    +0.000 A 
ATOM     23  C   UNL     1       0.100  10.933  20.454  0.00  0.00    +0.000 A 
BRANCH  23  24
ATOM     24  O   UNL     1       0.862  10.832  21.584  0.00  0.00    +0.000 OA
ATOM     25  H   UNL     1       1.408  10.033  21.543  0.00  0.00    +0.000 HD
ENDBRANCH  23  24
ENDBRANCH   4  18
TORSDOF 5
ENDMDL
MODEL 6
REMARK VINA RESULT:      -6.8      3.117      7.739
REMARK  Name = 
REMARK  6 active torsions:
REMARK  status: ('A' for Active; 'I' for Inactive)
REMARK    1  A    between atoms: C_1  and  O_2
REMARK    2  A    between atoms: O_2  and  C_3
REMARK    3  A    between atoms: C_6  and  N_7
REMARK    4  A    between atoms: C_11  and  C_12
REMARK    5  A    between atoms: C_15  and  C_16
REMARK    6  A    between atoms: C_21  and  O_22
REMARK                            x       y       z     vdW  Elec       q    Type
REMARK                         _______ _______ _______ _____ _____    ______ ____
ROOT
ATOM      1  C   UNL     1       3.415   7.475  18.659  0.00  0.00    +0.000 C 
ATOM      2  N   UNL     1       2.703   7.273  19.918  0.00  0.00    +0.000 N 
ATOM      3  N   UNL     1       1.571   8.003  20.098  0.00  0.00    +0.000 NA
ATOM      4  C   UNL     1       1.353   8.813  19.102  0.00  0.00    +0.000 C 
ATOM      5  S   UNL     1       2.464   8.713  17.743  0.00  0.00    +0.000 S 
ATOM      6  H   UNL     1       2.581   6.292  20.168  0.00  0.00    +0.000 HD
ENDROOT
BRANCH   1  12
ATOM      7  C   UNL     1       2.887   5.030  18.004  0.00  0.00    +0.000 A 
ATOM      8  C   UNL     1       3.259   3.872  17.293  0.00  0.00    +0.000 A 
ATOM      9  C   UNL     1       4.379   3.846  16.459  0.00  0.00    +0.000 A 
ATOM     10  C   UNL     1       5.149   4.998  16.330  0.00  0.00    +0.000 A 
ATOM     11  C   UNL     1       4.786   6.167  17.013  0.00  0.00    +0.000 A 
ATOM     12  C   UNL     1       3.657   6.204  17.874  0.00  0.00    +0.000 A 
BRANCH  10  13
ATOM     13  N   UNL     1       6.367   4.975  15.509  0.00  0.00    +0.000 N 
ATOM     14  O   UNL     1       6.418   4.156  14.580  0.00  0.00    +0.000 OA
ATOM     15  O   UNL     1       7.273   5.770  15.794  0.00  0.00    +0.000 OA
ENDBRANCH  10  13
BRANCH   7  17
ATOM     16  C   UNL     1       1.247   3.496  18.885  0.00  0.00    +0.000 C 
ATOM     17  O   UNL     1       1.838   4.785  18.845  0.00  0.00    +0.000 OA
ENDBRANCH   7  17
ENDBRANCH   1  12
BRANCH   4  18
ATOM     18  C   UNL     1       0.231   9.773  19.029  0.00  0.00    +0.000 A 
ATOM     19  C   UNL     1      -0.605   9.793  17.900  0.00  0.00    +0.000 A 
ATOM     20  C   UNL     1      -1.671  10.692  17.824  0.00  0.00    +0.000 A 
ATOM     21  C   UNL     1      -1.901  11.588  18.864  0.00  0.00    +0.000 A 
ATOM     22  C   UNL     1      -1.069  11.587  19.985  0.00  0.00    +0.000 A 
ATOM     23  C   UNL     1      -0.010  10.679  20.069  0.00  0.00    +0.000 A 
BRANCH  23  24
ATOM     24  O   UNL     1       0.756  10.659  21.201  0.00  0.00    +0.000 OA
ATOM     25  H   UNL     1       0.189  10.730  21.984  0.00  0.00    +0.000 HD
ENDBRANCH  23  24
ENDBRANCH   4  18
TORSDOF 5
ENDMDL
MODEL 7
REMARK VINA RESULT:      -6.7      3.621      8.140
REMARK  Name = 
REMARK  6 active torsions:
REMARK  status: ('A' for Active; 'I' for Inactive)
REMARK    1  A    between atoms: C_1  and  O_2
REMARK    2  A    between atoms: O_2  and  C_3
REMARK    3  A    between atoms: C_6  and  N_7
REMARK    4  A    between atoms: C_11  and  C_12
REMARK    5  A    between atoms: C_15  and  C_16
REMARK    6  A    between atoms: C_21  and  O_22
REMARK                            x       y       z     vdW  Elec       q    Type
REMARK                         _______ _______ _______ _____ _____    ______ ____
ROOT
ATOM      1  C   UNL     1       2.462   6.566  18.347  0.00  0.00    +0.000 C 
ATOM      2  N   UNL     1       2.418   7.919  17.799  0.00  0.00    +0.000 N 
ATOM      3  N   UNL     1       1.880   8.879  18.597  0.00  0.00    +0.000 NA
ATOM      4  C   UNL     1       1.440   8.385  19.719  0.00  0.00    +0.000 C 
ATOM      5  S   UNL     1       1.726   6.673  19.997  0.00  0.00    +0.000 S 
ATOM      6  H   UNL     1       3.292   8.215  17.366  0.00  0.00    +0.000 HD
ENDROOT
BRANCH   1  12
ATOM      7  C   UNL     1       4.201   4.808  19.100  0.00  0.00    +0.000 A 
ATOM      8  C   UNL     1       5.539   4.365  19.096  0.00  0.00    +0.000 A 
ATOM      9  C   UNL     1       6.530   5.022  18.365  0.00  0.00    +0.000 A 
ATOM     10  C   UNL     1       6.185   6.147  17.621  0.00  0.00    +0.000 A 
ATOM     11  C   UNL     1       4.857   6.593  17.596  0.00  0.00    +0.000 A 
ATOM     12  C   UNL     1       3.840   5.942  18.345  0.00  0.00    +0.000 A 
BRANCH  10  13
ATOM     13  N   UNL     1       7.224   6.891  16.896  0.00  0.00    +0.000 N 
ATOM     14  O   UNL     1       7.799   6.313  15.963  0.00  0.00    +0.000 OA
ATOM     15  O   UNL     1       7.468   8.049  17.262  0.00  0.00    +0.000 OA
ENDBRANCH  10  13
BRANCH   7  17
ATOM     16  C   UNL     1       2.801   2.895  19.551  0.00  0.00    +0.000 C 
ATOM     17  O   UNL     1       3.439   4.088  19.979  0.00  0.00    +0.000 OA
ENDBRANCH   7  17
ENDBRANCH   1  12
BRANCH   4  18
ATOM     18  C   UNL     1       0.756   9.168  20.769  0.00  0.00    +0.000 A 
ATOM     19  C   UNL     1       0.915   8.821  22.122  0.00  0.00    +0.000 A 
ATOM     20  C   UNL     1       0.277   9.557  23.123  0.00  0.00    +0.000 A 
ATOM     21  C   UNL     1      -0.537  10.633  22.782  0.00  0.00    +0.000 A 
ATOM     22  C   UNL     1      -0.714  10.980  21.442  0.00  0.00    +0.000 A 
ATOM     23  C   UNL     1      -0.067  10.253  20.439  0.00  0.00    +0.000 A 
BRANCH  23  24
ATOM     24  O   UNL     1      -0.210  10.646  19.139  0.00  0.00    +0.000 OA
ATOM     25  H   UNL     1       0.293  11.460  18.983  0.00  0.00    +0.000 HD
ENDBRANCH  23  24
ENDBRANCH   4  18
TORSDOF 5
ENDMDL
MODEL 8
REMARK VINA RESULT:      -6.6      5.221      7.463
REMARK  Name = 
REMARK  6 active torsions:
REMARK  status: ('A' for Active; 'I' for Inactive)
REMARK    1  A    between atoms: C_1  and  O_2
REMARK    2  A    between atoms: O_2  and  C_3
REMARK    3  A    between atoms: C_6  and  N_7
REMARK    4  A    between atoms: C_11  and  C_12
REMARK    5  A    between atoms: C_15  and  C_16
REMARK    6  A    between atoms: C_21  and  O_22
REMARK                            x       y       z     vdW  Elec       q    Type
REMARK                         _______ _______ _______ _____ _____    ______ ____
ROOT
ATOM      1  C   UNL     1       1.892   9.060  19.336  0.00  0.00    +0.000 C 
ATOM      2  N   UNL     1       2.317   8.355  18.130  0.00  0.00    +0.000 N 
ATOM      3  N   UNL     1       2.306   6.997  18.187  0.00  0.00    +0.000 NA
ATOM      4  C   UNL     1       1.957   6.564  19.365  0.00  0.00    +0.000 C 
ATOM      5  S   UNL     1       1.486   7.778  20.546  0.00  0.00    +0.000 S 
ATOM      6  H   UNL     1       1.896   8.714  17.274  0.00  0.00    +0.000 HD
ENDROOT
BRANCH   1  12
ATOM      7  C   UNL     1       0.617  11.256  19.824  0.00  0.00    +0.000 A 
ATOM      8  C   UNL     1      -0.519  12.059  19.599  0.00  0.00    +0.000 A 
ATOM      9  C   UNL     1      -1.511  11.693  18.687  0.00  0.00    +0.000 A 
ATOM     10  C   UNL     1      -1.373  10.501  17.983  0.00  0.00    +0.000 A 
ATOM     11  C   UNL     1      -0.242   9.696  18.177  0.00  0.00    +0.000 A 
ATOM     12  C   UNL     1       0.769  10.049  19.111  0.00  0.00    +0.000 A 
BRANCH  10  13
ATOM     13  N   UNL     1      -2.435  10.065  17.066  0.00  0.00    +0.000 N 
ATOM     14  O   UNL     1      -2.326  10.375  15.871  0.00  0.00    +0.000 OA
ATOM     15  O   UNL     1      -3.380   9.419  17.540  0.00  0.00    +0.000 OA
ENDBRANCH  10  13
BRANCH   7  17
ATOM     16  C   UNL     1       2.005  13.019  20.711  0.00  0.00    +0.000 C 
ATOM     17  O   UNL     1       1.384  11.749  20.842  0.00  0.00    +0.000 OA
ENDBRANCH   7  17
ENDBRANCH   1  12
BRANCH   4  18
ATOM     18  C   UNL     1       1.902   5.139  19.754  0.00  0.00    +0.000 A 
ATOM     19  C   UNL     1       2.184   4.760  21.078  0.00  0.00    +0.000 A 
ATOM     20  C   UNL     1       2.129   3.418  21.458  0.00  0.00    +0.000 A 
ATOM     21  C   UNL     1       1.810   2.441  20.517  0.00  0.00    +0.000 A 
ATOM     22  C   UNL     1       1.541   2.804  19.197  0.00  0.00    +0.000 A 
ATOM     23  C   UNL     1       1.582   4.148  18.817  0.00  0.00    +0.000 A 
BRANCH  23  24
ATOM     24  O   UNL     1       1.260   4.484  17.533  0.00  0.00    +0.000 OA
ATOM     25  H   UNL     1       0.380   4.892  17.510  0.00  0.00    +0.000 HD
ENDBRANCH  23  24
ENDBRANCH   4  18
TORSDOF 5
ENDMDL
MODEL 9
REMARK VINA RESULT:      -6.6      4.893      7.547
REMARK  Name = 
REMARK  6 active torsions:
REMARK  status: ('A' for Active; 'I' for Inactive)
REMARK    1  A    between atoms: C_1  and  O_2
REMARK    2  A    between atoms: O_2  and  C_3
REMARK    3  A    between atoms: C_6  and  N_7
REMARK    4  A    between atoms: C_11  and  C_12
REMARK    5  A    between atoms: C_15  and  C_16
REMARK    6  A    between atoms: C_21  and  O_22
REMARK                            x       y       z     vdW  Elec       q    Type
REMARK                         _______ _______ _______ _____ _____    ______ ____
ROOT
ATOM      1  C   UNL     1       1.492   9.598  19.476  0.00  0.00    +0.000 C 
ATOM      2  N   UNL     1       1.992   8.999  18.242  0.00  0.00    +0.000 N 
ATOM      3  N   UNL     1       2.255   7.665  18.278  0.00  0.00    +0.000 NA
ATOM      4  C   UNL     1       2.055   7.165  19.464  0.00  0.00    +0.000 C 
ATOM      5  S   UNL     1       1.407   8.253  20.683  0.00  0.00    +0.000 S 
ATOM      6  H   UNL     1       1.468   9.272  17.411  0.00  0.00    +0.000 HD
ENDROOT
BRANCH   1  12
ATOM      7  C   UNL     1      -0.384  11.171  20.306  0.00  0.00    +0.000 A 
ATOM      8  C   UNL     1      -1.653  11.744  20.088  0.00  0.00    +0.000 A 
ATOM      9  C   UNL     1      -2.374  11.513  18.916  0.00  0.00    +0.000 A 
ATOM     10  C   UNL     1      -1.824  10.692  17.937  0.00  0.00    +0.000 A 
ATOM     11  C   UNL     1      -0.555  10.128  18.124  0.00  0.00    +0.000 A 
ATOM     12  C   UNL     1       0.185  10.344  19.317  0.00  0.00    +0.000 A 
BRANCH  10  13
ATOM     13  N   UNL     1      -2.593  10.384  16.723  0.00  0.00    +0.000 N 
ATOM     14  O   UNL     1      -3.325   9.384  16.746  0.00  0.00    +0.000 OA
ATOM     15  O   UNL     1      -2.462  11.136  15.748  0.00  0.00    +0.000 OA
ENDBRANCH  10  13
BRANCH   7  17
ATOM     16  C   UNL     1      -0.730  11.126  22.694  0.00  0.00    +0.000 C 
ATOM     17  O   UNL     1       0.075  11.436  21.566  0.00  0.00    +0.000 OA
ENDBRANCH   7  17
ENDBRANCH   1  12
BRANCH   4  18
ATOM     18  C   UNL     1       2.303   5.755  19.833  0.00  0.00    +0.000 A 
ATOM     19  C   UNL     1       1.345   5.043  20.576  0.00  0.00    +0.000 A 
ATOM     20  C   UNL     1       1.567   3.710  20.925  0.00  0.00    +0.000 A 
ATOM     21  C   UNL     1       2.752   3.081  20.551  0.00  0.00    +0.000 A 
ATOM     22  C   UNL     1       3.717   3.781  19.825  0.00  0.00    +0.000 A 
ATOM     23  C   UNL     1       3.491   5.112  19.463  0.00  0.00    +0.000 A 
BRANCH  23  24
ATOM     24  O   UNL     1       4.425   5.759  18.704  0.00  0.00    +0.000 OA
ATOM     25  H   UNL     1       4.750   5.168  18.008  0.00  0.00    +0.000 HD
ENDBRANCH  23  24
ENDBRANCH   4  18
TORSDOF 5
ENDMDL
