MODEL 1
REMARK VINA RESULT:      -7.7      0.000      0.000
REMARK  Name = 
REMARK  7 active torsions:
REMARK  status: ('A' for Active; 'I' for Inactive)
REMARK    1  A    between atoms: C_1  and  N_2
REMARK    2  A    between atoms: N_2  and  C_3
REMARK    3  A    between atoms: C_7  and  C_8
REMARK    4  A    between atoms: C_8  and  N_9
REMARK    5  A    between atoms: N_9  and  S_10
REMARK    6  A    between atoms: S_10  and  C_13
REMARK    7  A    between atoms: N_23  and  C_24
REMARK                            x       y       z     vdW  Elec       q    Type
REMARK                         _______ _______ _______ _____ _____    ______ ____
ROOT
ATOM      1  S   UNL     1       3.334   4.036  18.565  0.00  0.00    +0.000 S 
ATOM      2  O   UNL     1       3.167   3.928  19.998  0.00  0.00    +0.000 OA
ATOM      3  O   UNL     1       3.030   2.921  17.694  0.00  0.00    +0.000 OA
ENDROOT
BRANCH   1   4
ATOM      4  C   UNL     1       5.006   4.575  18.245  0.00  0.00    +0.000 A 
ATOM      5  C   UNL     1       5.732   5.060  19.348  0.00  0.00    +0.000 A 
ATOM      6  C   UNL     1       7.007   5.577  19.171  0.00  0.00    +0.000 A 
ATOM      7  C   UNL     1       7.563   5.624  17.893  0.00  0.00    +0.000 A 
ATOM      8  C   UNL     1       6.860   5.144  16.779  0.00  0.00    +0.000 A 
ATOM      9  C   UNL     1       7.457   5.215  15.509  0.00  0.00    +0.000 A 
ATOM     10  C   UNL     1       6.796   4.744  14.378  0.00  0.00    +0.000 A 
ATOM     11  C   UNL     1       5.528   4.200  14.502  0.00  0.00    +0.000 A 
ATOM     12  C   UNL     1       4.917   4.130  15.758  0.00  0.00    +0.000 A 
ATOM     13  C   UNL     1       5.555   4.600  16.932  0.00  0.00    +0.000 A 
ENDBRANCH   1   4
BRANCH   1  14
ATOM     14  N   UNL     1       2.381   5.337  18.068  0.00  0.00    +0.000 NA
ATOM     15  H   UNL     1       1.927   5.130  17.177  0.00  0.00    +0.000 HD
BRANCH  14  16
ATOM     16  C   UNL     1       2.980   6.663  18.190  0.00  0.00    +0.000 C 
BRANCH  16  23
ATOM     17  C   UNL     1      -0.258  11.033  19.540  0.00  0.00    +0.000 C 
ATOM     18  N   UNL     1       0.504  10.283  20.524  0.00  0.00    +0.000 N 
ATOM     19  C   UNL     1       0.090  10.469  21.918  0.00  0.00    +0.000 C 
ATOM     20  C   UNL     1       1.073   9.071  20.244  0.00  0.00    +0.000 A 
ATOM     21  N   UNL     1       1.196   8.086  21.112  0.00  0.00    +0.000 NA
ATOM     22  C   UNL     1       1.878   7.087  20.486  0.00  0.00    +0.000 A 
ATOM     23  C   UNL     1       2.225   7.448  19.203  0.00  0.00    +0.000 A 
ATOM     24  N   UNL     1       1.672   8.707  19.043  0.00  0.00    +0.000 N 
ATOM     25  C   UNL     1       1.768   9.515  17.852  0.00  0.00    +0.000 C 
ENDBRANCH  16  23
ENDBRANCH  14  16
ENDBRANCH   1  14
TORSDOF 4
ENDMDL
MODEL 2
REMARK VINA RESULT:      -7.5      0.807      1.544
REMARK  Name = 
REMARK  7 active torsions:
REMARK  status: ('A' for Active; 'I' for Inactive)
REMARK    1  A    between atoms: C_1  and  N_2
REMARK    2  A    between atoms: N_2  and  C_3
REMARK    3  A    between atoms: C_7  and  C_8
REMARK    4  A    between atoms: C_8  and  N_9
REMARK    5  A    between atoms: N_9  and  S_10
REMARK    6  A    between atoms: S_10  and  C_13
REMARK    7  A    between atoms: N_23  and  C_24
REMARK                            x       y       z     vdW  Elec       q    Type
REMARK                         _______ _______ _______ _____ _____    ______ ____
ROOT
ATOM      1  S   UNL     1       3.381   4.105  18.666  0.00  0.00    +0.000 S 
ATOM      2  O   UNL     1       3.344   3.732  20.063  0.00  0.00    +0.000 OA
ATOM      3  O   UNL     1       2.925   3.191  17.640  0.00  0.00    +0.000 OA
ENDROOT
BRANCH   1   4
ATOM      4  C   UNL     1       5.045   4.620  18.278  0.00  0.00    +0.000 A 
ATOM      5  C   UNL     1       5.812   5.123  19.344  0.00  0.00    +0.000 A 
ATOM      6  C   UNL     1       7.086   5.624  19.112  0.00  0.00    +0.000 A 
ATOM      7  C   UNL     1       7.598   5.636  17.816  0.00  0.00    +0.000 A 
ATOM      8  C   UNL     1       6.854   5.137  16.737  0.00  0.00    +0.000 A 
ATOM      9  C   UNL     1       7.408   5.172  15.447  0.00  0.00    +0.000 A 
ATOM     10  C   UNL     1       6.705   4.682  14.350  0.00  0.00    +0.000 A 
ATOM     11  C   UNL     1       5.437   4.153  14.529  0.00  0.00    +0.000 A 
ATOM     12  C   UNL     1       4.869   4.118  15.806  0.00  0.00    +0.000 A 
ATOM     13  C   UNL     1       5.550   4.609  16.947  0.00  0.00    +0.000 A 
ENDBRANCH   1   4
BRANCH   1  14
ATOM     14  N   UNL     1       2.469   5.518  18.522  0.00  0.00    +0.000 NA
ATOM     15  H   UNL     1       2.660   5.980  17.632  0.00  0.00    +0.000 HD
BRANCH  14  16
ATOM     16  C   UNL     1       2.426   6.383  19.698  0.00  0.00    +0.000 C 
BRANCH  16  23
ATOM     17  C   UNL     1       0.626  11.526  21.005  0.00  0.00    +0.000 C 
ATOM     18  N   UNL     1       0.481  10.955  19.677  0.00  0.00    +0.000 N 
ATOM     19  C   UNL     1       0.200  11.913  18.604  0.00  0.00    +0.000 C 
ATOM     20  C   UNL     1       1.148   9.825  19.287  0.00  0.00    +0.000 A 
ATOM     21  N   UNL     1       1.588   9.603  18.065  0.00  0.00    +0.000 NA
ATOM     22  C   UNL     1       2.121   8.351  18.054  0.00  0.00    +0.000 A 
ATOM     23  C   UNL     1       1.994   7.746  19.285  0.00  0.00    +0.000 A 
ATOM     24  N   UNL     1       1.402   8.712  20.080  0.00  0.00    +0.000 N 
ATOM     25  C   UNL     1       1.057   8.551  21.471  0.00  0.00    +0.000 C 
ENDBRANCH  16  23
ENDBRANCH  14  16
ENDBRANCH   1  14
TORSDOF 4
ENDMDL
MODEL 3
REMARK VINA RESULT:      -7.1      3.196      8.482
REMARK  Name = 
REMARK  7 active torsions:
REMARK  status: ('A' for Active; 'I' for Inactive)
REMARK    1  A    between atoms: C_1  and  N_2
REMARK    2  A    between atoms: N_2  and  C_3
REMARK    3  A    between atoms: C_7  and  C_8
REMARK    4  A    between atoms: C_8  and  N_9
REMARK    5  A    between atoms: N_9  and  S_10
REMARK    6  A    between atoms: S_10  and  C_13
REMARK    7  A    between atoms: N_23  and  C_24
REMARK                            x       y       z     vdW  Elec       q    Type
REMARK                         _______ _______ _______ _____ _____    ______ ____
ROOT
ATOM      1  S   UNL     1       0.839  10.537  18.874  0.00  0.00    +0.000 S 
ATOM      2  O   UNL     1       1.322  11.878  18.627  0.00  0.00    +0.000 OA
ATOM      3  O   UNL     1      -0.198   9.955  18.049  0.00  0.00    +0.000 OA
ENDROOT
BRANCH   1   4
ATOM      4  C   UNL     1       0.334  10.440  20.584  0.00  0.00    +0.000 A 
ATOM      5  C   UNL     1       0.960   9.457  21.370  0.00  0.00    +0.000 A 
ATOM      6  C   UNL     1       0.566   9.259  22.685  0.00  0.00    +0.000 A 
ATOM      7  C   UNL     1      -0.462  10.033  23.223  0.00  0.00    +0.000 A 
ATOM      8  C   UNL     1      -1.100  11.021  22.460  0.00  0.00    +0.000 A 
ATOM      9  C   UNL     1      -2.133  11.776  23.040  0.00  0.00    +0.000 A 
ATOM     10  C   UNL     1      -2.788  12.771  22.320  0.00  0.00    +0.000 A 
ATOM     11  C   UNL     1      -2.419  13.022  21.008  0.00  0.00    +0.000 A 
ATOM     12  C   UNL     1      -1.398  12.275  20.413  0.00  0.00    +0.000 A 
ATOM     13  C   UNL     1      -0.709  11.252  21.111  0.00  0.00    +0.000 A 
ENDBRANCH   1   4
BRANCH   1  14
ATOM     14  N   UNL     1       2.182   9.519  18.785  0.00  0.00    +0.000 NA
ATOM     15  H   UNL     1       3.047  10.063  18.807  0.00  0.00    +0.000 HD
BRANCH  14  16
ATOM     16  C   UNL     1       2.122   8.451  17.791  0.00  0.00    +0.000 C 
BRANCH  16  23
ATOM     17  C   UNL     1       6.166   4.588  18.125  0.00  0.00    +0.000 C 
ATOM     18  N   UNL     1       4.816   4.358  18.609  0.00  0.00    +0.000 N 
ATOM     19  C   UNL     1       4.659   3.230  19.531  0.00  0.00    +0.000 C 
ATOM     20  C   UNL     1       3.913   5.373  18.773  0.00  0.00    +0.000 A 
ATOM     21  N   UNL     1       2.998   5.410  19.721  0.00  0.00    +0.000 NA
ATOM     22  C   UNL     1       2.248   6.527  19.507  0.00  0.00    +0.000 A 
ATOM     23  C   UNL     1       2.670   7.202  18.384  0.00  0.00    +0.000 A 
ATOM     24  N   UNL     1       3.762   6.476  17.940  0.00  0.00    +0.000 N 
ATOM     25  C   UNL     1       4.554   6.787  16.776  0.00  0.00    +0.000 C 
ENDBRANCH  16  23
ENDBRANCH  14  16
ENDBRANCH   1  14
TORSDOF 4
ENDMDL
MODEL 4
REMARK VINA RESULT:      -7.0      3.472      8.526
REMARK  Name = 
REMARK  7 active torsions:
REMARK  status: ('A' for Active; 'I' for Inactive)
REMARK    1  A    between atoms: C_1  and  N_2
REMARK    2  A    between atoms: N_2  and  C_3
REMARK    3  A    between atoms: C_7  and  C_8
REMARK    4  A    between atoms: C_8  and  N_9
REMARK    5  A    between atoms: N_9  and  S_10
REMARK    6  A    between atoms: S_10  and  C_13
REMARK    7  A    between atoms: N_23  and  C_24
REMARK                            x       y       z     vdW  Elec       q    Type
REMARK                         _______ _______ _______ _____ _____    ______ ____
ROOT
ATOM      1  S   UNL     1       0.708  10.765  20.122  0.00  0.00    +0.000 S 
ATOM      2  O   UNL     1       1.157  11.095  21.457  0.00  0.00    +0.000 OA
ATOM      3  O   UNL     1       1.513  11.088  18.964  0.00  0.00    +0.000 OA
ENDROOT
BRANCH   1   4
ATOM      4  C   UNL     1      -0.921  11.464  19.903  0.00  0.00    +0.000 A 
ATOM      5  C   UNL     1      -1.381  12.319  20.920  0.00  0.00    +0.000 A 
ATOM      6  C   UNL     1      -2.667  12.836  20.868  0.00  0.00    +0.000 A 
ATOM      7  C   UNL     1      -3.507  12.496  19.808  0.00  0.00    +0.000 A 
ATOM      8  C   UNL     1      -3.070  11.648  18.780  0.00  0.00    +0.000 A 
ATOM      9  C   UNL     1      -3.950  11.330  17.733  0.00  0.00    +0.000 A 
ATOM     10  C   UNL     1      -3.554  10.497  16.690  0.00  0.00    +0.000 A 
ATOM     11  C   UNL     1      -2.273   9.969  16.684  0.00  0.00    +0.000 A 
ATOM     12  C   UNL     1      -1.387  10.270  17.722  0.00  0.00    +0.000 A 
ATOM     13  C   UNL     1      -1.753  11.111  18.803  0.00  0.00    +0.000 A 
ENDBRANCH   1   4
BRANCH   1  14
ATOM     14  N   UNL     1       0.445   9.098  20.104  0.00  0.00    +0.000 NA
ATOM     15  H   UNL     1      -0.519   8.883  20.363  0.00  0.00    +0.000 HD
BRANCH  14  16
ATOM     16  C   UNL     1       1.476   8.273  20.727  0.00  0.00    +0.000 C 
BRANCH  16  23
ATOM     17  C   UNL     1       2.667   3.215  18.630  0.00  0.00    +0.000 C 
ATOM     18  N   UNL     1       3.400   4.413  18.260  0.00  0.00    +0.000 N 
ATOM     19  C   UNL     1       4.201   4.312  17.037  0.00  0.00    +0.000 C 
ATOM     20  C   UNL     1       2.950   5.671  18.557  0.00  0.00    +0.000 A 
ATOM     21  N   UNL     1       3.135   6.729  17.793  0.00  0.00    +0.000 NA
ATOM     22  C   UNL     1       2.615   7.797  18.459  0.00  0.00    +0.000 A 
ATOM     23  C   UNL     1       2.114   7.422  19.686  0.00  0.00    +0.000 A 
ATOM     24  N   UNL     1       2.299   6.051  19.725  0.00  0.00    +0.000 N 
ATOM     25  C   UNL     1       1.933   5.191  20.823  0.00  0.00    +0.000 C 
ENDBRANCH  16  23
ENDBRANCH  14  16
ENDBRANCH   1  14
TORSDOF 4
ENDMDL
MODEL 5
REMARK VINA RESULT:      -7.0      3.103      8.845
REMARK  Name = 
REMARK  7 active torsions:
REMARK  status: ('A' for Active; 'I' for Inactive)
REMARK    1  A    between atoms: C_1  and  N_2
REMARK    2  A    between atoms: N_2  and  C_3
REMARK    3  A    between atoms: C_7  and  C_8
REMARK    4  A    between atoms: C_8  and  N_9
REMARK    5  A    between atoms: N_9  and  S_10
REMARK    6  A    between atoms: S_10  and  C_13
REMARK    7  A    between atoms: N_23  and  C_24
REMARK                            x       y       z     vdW  Elec       q    Type
REMARK                         _______ _______ _______ _____ _____    ______ ____
ROOT
ATOM      1  S   UNL     1       0.389   9.195  22.224  0.00  0.00    +0.000 S 
ATOM      2  O   UNL     1      -0.689   8.236  22.117  0.00  0.00    +0.000 OA
ATOM      3  O   UNL     1       0.881   9.620  23.516  0.00  0.00    +0.000 OA
ENDROOT
BRANCH   1   4
ATOM      4  C   UNL     1      -0.063  10.640  21.278  0.00  0.00    +0.000 A 
ATOM      5  C   UNL     1       0.629  10.844  20.071  0.00  0.00    +0.000 A 
ATOM      6  C   UNL     1       0.399  11.986  19.318  0.00  0.00    +0.000 A 
ATOM      7  C   UNL     1      -0.516  12.937  19.768  0.00  0.00    +0.000 A 
ATOM      8  C   UNL     1      -1.222  12.755  20.966  0.00  0.00    +0.000 A 
ATOM      9  C   UNL     1      -2.132  13.740  21.383  0.00  0.00    +0.000 A 
ATOM     10  C   UNL     1      -2.857  13.595  22.562  0.00  0.00    +0.000 A 
ATOM     11  C   UNL     1      -2.678  12.464  23.341  0.00  0.00    +0.000 A 
ATOM     12  C   UNL     1      -1.771  11.477  22.944  0.00  0.00    +0.000 A 
ATOM     13  C   UNL     1      -1.012  11.589  21.753  0.00  0.00    +0.000 A 
ENDBRANCH   1   4
BRANCH   1  14
ATOM     14  N   UNL     1       1.695   8.542  21.377  0.00  0.00    +0.000 NA
ATOM     15  H   UNL     1       2.124   9.249  20.778  0.00  0.00    +0.000 HD
BRANCH  14  16
ATOM     16  C   UNL     1       1.485   7.230  20.772  0.00  0.00    +0.000 C 
BRANCH  16  23
ATOM     17  C   UNL     1       4.453   4.191  17.119  0.00  0.00    +0.000 C 
ATOM     18  N   UNL     1       4.555   5.637  17.205  0.00  0.00    +0.000 N 
ATOM     19  C   UNL     1       5.166   6.298  16.048  0.00  0.00    +0.000 C 
ATOM     20  C   UNL     1       3.650   6.396  17.897  0.00  0.00    +0.000 A 
ATOM     21  N   UNL     1       3.272   7.609  17.547  0.00  0.00    +0.000 NA
ATOM     22  C   UNL     1       2.432   8.061  18.519  0.00  0.00    +0.000 A 
ATOM     23  C   UNL     1       2.292   7.133  19.526  0.00  0.00    +0.000 A 
ATOM     24  N   UNL     1       3.047   6.053  19.102  0.00  0.00    +0.000 N 
ATOM     25  C   UNL     1       3.221   4.819  19.827  0.00  0.00    +0.000 C 
ENDBRANCH  16  23
ENDBRANCH  14  16
ENDBRANCH   1  14
TORSDOF 4
ENDMDL
MODEL 6
REMARK VINA RESULT:      -6.9      3.323      8.823
REMARK  Name = 
REMARK  7 active torsions:
REMARK  status: ('A' for Active; 'I' for Inactive)
REMARK    1  A    between atoms: C_1  and  N_2
REMARK    2  A    between atoms: N_2  and  C_3
REMARK    3  A    between atoms: C_7  and  C_8
REMARK    4  A    between atoms: C_8  and  N_9
REMARK    5  A    between atoms: N_9  and  S_10
REMARK    6  A    between atoms: S_10  and  C_13
REMARK    7  A    between atoms: N_23  and  C_24
REMARK                            x       y       z     vdW  Elec       q    Type
REMARK                         _______ _______ _______ _____ _____    ______ ____
ROOT
ATOM      1  S   UNL     1       0.778  10.198  18.972  0.00  0.00    +0.000 S 
ATOM      2  O   UNL     1       0.842   9.683  20.322  0.00  0.00    +0.000 OA
ATOM      3  O   UNL     1       1.578  11.335  18.570  0.00  0.00    +0.000 OA
ENDROOT
BRANCH   1   4
ATOM      4  C   UNL     1      -0.934  10.538  18.594  0.00  0.00    +0.000 A 
ATOM      5  C   UNL     1      -1.445   9.959  17.420  0.00  0.00    +0.000 A 
ATOM      6  C   UNL     1      -2.740  10.241  17.009  0.00  0.00    +0.000 A 
ATOM      7  C   UNL     1      -3.530  11.110  17.761  0.00  0.00    +0.000 A 
ATOM      8  C   UNL     1      -3.044  11.697  18.937  0.00  0.00    +0.000 A 
ATOM      9  C   UNL     1      -3.873  12.569  19.662  0.00  0.00    +0.000 A 
ATOM     10  C   UNL     1      -3.431  13.168  20.839  0.00  0.00    +0.000 A 
ATOM     11  C   UNL     1      -2.152  12.904  21.303  0.00  0.00    +0.000 A 
ATOM     12  C   UNL     1      -1.312  12.045  20.590  0.00  0.00    +0.000 A 
ATOM     13  C   UNL     1      -1.723  11.418  19.387  0.00  0.00    +0.000 A 
ENDBRANCH   1   4
BRANCH   1  14
ATOM     14  N   UNL     1       1.177   8.916  17.951  0.00  0.00    +0.000 NA
ATOM     15  H   UNL     1       0.629   8.086  18.184  0.00  0.00    +0.000 HD
BRANCH  14  16
ATOM     16  C   UNL     1       2.601   8.698  17.710  0.00  0.00    +0.000 C 
BRANCH  16  23
ATOM     17  C   UNL     1       6.179   4.399  18.042  0.00  0.00    +0.000 C 
ATOM     18  N   UNL     1       4.808   4.320  18.516  0.00  0.00    +0.000 N 
ATOM     19  C   UNL     1       4.517   3.211  19.429  0.00  0.00    +0.000 C 
ATOM     20  C   UNL     1       4.024   5.430  18.681  0.00  0.00    +0.000 A 
ATOM     21  N   UNL     1       3.112   5.564  19.623  0.00  0.00    +0.000 NA
ATOM     22  C   UNL     1       2.495   6.760  19.413  0.00  0.00    +0.000 A 
ATOM     23  C   UNL     1       3.000   7.390  18.297  0.00  0.00    +0.000 A 
ATOM     24  N   UNL     1       4.006   6.548  17.856  0.00  0.00    +0.000 N 
ATOM     25  C   UNL     1       4.837   6.775  16.699  0.00  0.00    +0.000 C 
ENDBRANCH  16  23
ENDBRANCH  14  16
ENDBRANCH   1  14
TORSDOF 4
ENDMDL
MODEL 7
REMARK VINA RESULT:      -6.9      3.048      8.904
REMARK  Name = 
REMARK  7 active torsions:
REMARK  status: ('A' for Active; 'I' for Inactive)
REMARK    1  A    between atoms: C_1  and  N_2
REMARK    2  A    between atoms: N_2  and  C_3
REMARK    3  A    between atoms: C_7  and  C_8
REMARK    4  A    between atoms: C_8  and  N_9
REMARK    5  A    between atoms: N_9  and  S_10
REMARK    6  A    between atoms: S_10  and  C_13
REMARK    7  A    between atoms: N_23  and  C_24
REMARK                            x       y       z     vdW  Elec       q    Type
REMARK                         _______ _______ _______ _____ _____    ______ ____
ROOT
ATOM      1  S   UNL     1       0.414   9.076  21.729  0.00  0.00    +0.000 S 
ATOM      2  O   UNL     1      -0.644   8.135  22.025  0.00  0.00    +0.000 OA
ATOM      3  O   UNL     1       1.229   9.635  22.786  0.00  0.00    +0.000 OA
ENDROOT
BRANCH   1   4
ATOM      4  C   UNL     1      -0.289  10.413  20.778  0.00  0.00    +0.000 A 
ATOM      5  C   UNL     1       0.040  10.453  19.412  0.00  0.00    +0.000 A 
ATOM      6  C   UNL     1      -0.395  11.507  18.619  0.00  0.00    +0.000 A 
ATOM      7  C   UNL     1      -1.152  12.531  19.186  0.00  0.00    +0.000 A 
ATOM      8  C   UNL     1      -1.496  12.511  20.545  0.00  0.00    +0.000 A 
ATOM      9  C   UNL     1      -2.258  13.566  21.076  0.00  0.00    +0.000 A 
ATOM     10  C   UNL     1      -2.626  13.582  22.418  0.00  0.00    +0.000 A 
ATOM     11  C   UNL     1      -2.233  12.544  23.248  0.00  0.00    +0.000 A 
ATOM     12  C   UNL     1      -1.469  11.491  22.738  0.00  0.00    +0.000 A 
ATOM     13  C   UNL     1      -1.071  11.439  21.379  0.00  0.00    +0.000 A 
ENDBRANCH   1   4
BRANCH   1  14
ATOM     14  N   UNL     1       1.453   8.304  20.647  0.00  0.00    +0.000 NA
ATOM     15  H   UNL     1       1.305   8.650  19.697  0.00  0.00    +0.000 HD
BRANCH  14  16
ATOM     16  C   UNL     1       1.579   6.856  20.789  0.00  0.00    +0.000 C 
BRANCH  16  23
ATOM     17  C   UNL     1       3.656   2.515  17.919  0.00  0.00    +0.000 C 
ATOM     18  N   UNL     1       4.168   3.867  17.781  0.00  0.00    +0.000 N 
ATOM     19  C   UNL     1       4.980   4.117  16.587  0.00  0.00    +0.000 C 
ATOM     20  C   UNL     1       3.500   4.958  18.268  0.00  0.00    +0.000 A 
ATOM     21  N   UNL     1       3.500   6.147  17.699  0.00  0.00    +0.000 NA
ATOM     22  C   UNL     1       2.795   6.979  18.516  0.00  0.00    +0.000 A 
ATOM     23  C   UNL     1       2.362   6.319  19.644  0.00  0.00    +0.000 A 
ATOM     24  N   UNL     1       2.786   5.015  19.460  0.00  0.00    +0.000 N 
ATOM     25  C   UNL     1       2.572   3.929  20.385  0.00  0.00    +0.000 C 
ENDBRANCH  16  23
ENDBRANCH  14  16
ENDBRANCH   1  14
TORSDOF 4
ENDMDL
MODEL 8
REMARK VINA RESULT:      -6.9      1.705      2.849
REMARK  Name = 
REMARK  7 active torsions:
REMARK  status: ('A' for Active; 'I' for Inactive)
REMARK    1  A    between atoms: C_1  and  N_2
REMARK    2  A    between atoms: N_2  and  C_3
REMARK    3  A    between atoms: C_7  and  C_8
REMARK    4  A    between atoms: C_8  and  N_9
REMARK    5  A    between atoms: N_9  and  S_10
REMARK    6  A    between atoms: S_10  and  C_13
REMARK    7  A    between atoms: N_23  and  C_24
REMARK                            x       y       z     vdW  Elec       q    Type
REMARK                         _______ _______ _______ _____ _____    ______ ____
ROOT
ATOM      1  S   UNL     1       2.147   4.446  20.505  0.00  0.00    +0.000 S 
ATOM      2  O   UNL     1       2.933   3.747  21.498  0.00  0.00    +0.000 OA
ATOM      3  O   UNL     1       0.727   4.199  20.371  0.00  0.00    +0.000 OA
ENDROOT
BRANCH   1   4
ATOM      4  C   UNL     1       2.924   4.201  18.916  0.00  0.00    +0.000 A 
ATOM      5  C   UNL     1       2.139   3.598  17.918  0.00  0.00    +0.000 A 
ATOM      6  C   UNL     1       2.692   3.295  16.682  0.00  0.00    +0.000 A 
ATOM      7  C   UNL     1       4.034   3.582  16.437  0.00  0.00    +0.000 A 
ATOM      8  C   UNL     1       4.837   4.186  17.415  0.00  0.00    +0.000 A 
ATOM      9  C   UNL     1       6.185   4.454  17.126  0.00  0.00    +0.000 A 
ATOM     10  C   UNL     1       7.015   5.058  18.067  0.00  0.00    +0.000 A 
ATOM     11  C   UNL     1       6.507   5.399  19.310  0.00  0.00    +0.000 A 
ATOM     12  C   UNL     1       5.169   5.132  19.615  0.00  0.00    +0.000 A 
ATOM     13  C   UNL     1       4.294   4.516  18.687  0.00  0.00    +0.000 A 
ENDBRANCH   1   4
BRANCH   1  14
ATOM     14  N   UNL     1       2.345   6.094  20.809  0.00  0.00    +0.000 NA
ATOM     15  H   UNL     1       1.924   6.347  21.704  0.00  0.00    +0.000 HD
BRANCH  14  16
ATOM     16  C   UNL     1       2.074   6.996  19.693  0.00  0.00    +0.000 C 
BRANCH  16  23
ATOM     17  C   UNL     1      -0.381  11.962  18.851  0.00  0.00    +0.000 C 
ATOM     18  N   UNL     1       0.353  11.642  20.063  0.00  0.00    +0.000 N 
ATOM     19  C   UNL     1       0.097  12.521  21.208  0.00  0.00    +0.000 C 
ATOM     20  C   UNL     1       0.718  10.363  20.384  0.00  0.00    +0.000 A 
ATOM     21  N   UNL     1       0.779   9.890  21.613  0.00  0.00    +0.000 NA
ATOM     22  C   UNL     1       1.254   8.617  21.528  0.00  0.00    +0.000 A 
ATOM     23  C   UNL     1       1.531   8.276  20.223  0.00  0.00    +0.000 A 
ATOM     24  N   UNL     1       1.149   9.388  19.492  0.00  0.00    +0.000 N 
ATOM     25  C   UNL     1       1.250   9.520  18.059  0.00  0.00    +0.000 C 
ENDBRANCH  16  23
ENDBRANCH  14  16
ENDBRANCH   1  14
TORSDOF 4
ENDMDL
MODEL 9
REMARK VINA RESULT:      -6.9      2.524      4.443
REMARK  Name = 
REMARK  7 active torsions:
REMARK  status: ('A' for Active; 'I' for Inactive)
REMARK    1  A    between atoms: C_1  and  N_2
REMARK    2  A    between atoms: N_2  and  C_3
REMARK    3  A    between atoms: C_7  and  C_8
REMARK    4  A    between atoms: C_8  and  N_9
REMARK    5  A    between atoms: N_9  and  S_10
REMARK    6  A    between atoms: S_10  and  C_13
REMARK    7  A    between atoms: N_23  and  C_24
REMARK                            x       y       z     vdW  Elec       q    Type
REMARK                         _______ _______ _______ _____ _____    ______ ____
ROOT
ATOM      1  S   UNL     1       5.007   5.625  18.511  0.00  0.00    +0.000 S 
ATOM      2  O   UNL     1       5.563   5.915  17.207  0.00  0.00    +0.000 OA
ATOM      3  O   UNL     1       5.867   5.388  19.650  0.00  0.00    +0.000 OA
ENDROOT
BRANCH   1   4
ATOM      4  C   UNL     1       3.889   4.244  18.337  0.00  0.00    +0.000 A 
ATOM      5  C   UNL     1       3.798   3.665  17.059  0.00  0.00    +0.000 A 
ATOM      6  C   UNL     1       2.891   2.643  16.819  0.00  0.00    +0.000 A 
ATOM      7  C   UNL     1       2.063   2.198  17.848  0.00  0.00    +0.000 A 
ATOM      8  C   UNL     1       2.137   2.757  19.132  0.00  0.00    +0.000 A 
ATOM      9  C   UNL     1       1.281   2.280  20.138  0.00  0.00    +0.000 A 
ATOM     10  C   UNL     1       1.326   2.804  21.427  0.00  0.00    +0.000 A 
ATOM     11  C   UNL     1       2.228   3.813  21.725  0.00  0.00    +0.000 A 
ATOM     12  C   UNL     1       3.082   4.303  20.733  0.00  0.00    +0.000 A 
ATOM     13  C   UNL     1       3.064   3.800  19.409  0.00  0.00    +0.000 A 
ENDBRANCH   1   4
BRANCH   1  14
ATOM     14  N   UNL     1       4.000   6.922  18.901  0.00  0.00    +0.000 NA
ATOM     15  H   UNL     1       3.888   6.998  19.913  0.00  0.00    +0.000 HD
BRANCH  14  16
ATOM     16  C   UNL     1       2.780   7.056  18.108  0.00  0.00    +0.000 C 
BRANCH  16  23
ATOM     17  C   UNL     1       0.333  10.168  22.073  0.00  0.00    +0.000 C 
ATOM     18  N   UNL     1       0.095  10.371  20.654  0.00  0.00    +0.000 N 
ATOM     19  C   UNL     1      -0.501  11.660  20.291  0.00  0.00    +0.000 C 
ATOM     20  C   UNL     1       0.882   9.803  19.690  0.00  0.00    +0.000 A 
ATOM     21  N   UNL     1       1.169  10.367  18.534  0.00  0.00    +0.000 NA
ATOM     22  C   UNL     1       1.903   9.468  17.822  0.00  0.00    +0.000 A 
ATOM     23  C   UNL     1       2.064   8.293  18.522  0.00  0.00    +0.000 A 
ATOM     24  N   UNL     1       1.438   8.529  19.734  0.00  0.00    +0.000 N 
ATOM     25  C   UNL     1       1.333   7.585  20.818  0.00  0.00    +0.000 C 
ENDBRANCH  16  23
ENDBRANCH  14  16
ENDBRANCH   1  14
TORSDOF 4
ENDMDL
