MODEL 1
REMARK VINA RESULT:      -7.6      0.000      0.000
REMARK  Name = 
REMARK  9 active torsions:
REMARK  status: ('A' for Active; 'I' for Inactive)
REMARK    1  A    between atoms: C_2  and  O_3
REMARK    2  A    between atoms: C_2  and  C_4
REMARK    3  A    between atoms: C_4  and  C_5
REMARK    4  A    between atoms: C_5  and  C_6
REMARK    5  A    between atoms: C_6  and  C_7
REMARK    6  A    between atoms: C_10  and  N_11
REMARK    7  A    between atoms: C_12  and  C_14
REMARK    8  A    between atoms: C_14  and  C_15
REMARK    9  A    between atoms: C_15  and  C_16
REMARK                            x       y       z     vdW  Elec       q    Type
REMARK                         _______ _______ _______ _____ _____    ______ ____
ROOT
ATOM      1  C   UNL     1       3.393   4.179  17.376  0.00  0.00    +0.000 A 
ATOM      2  C   UNL     1       4.663   3.984  16.832  0.00  0.00    +0.000 A 
ATOM      3  C   UNL     1       5.581   5.032  16.784  0.00  0.00    +0.000 A 
ATOM      4  C   UNL     1       5.257   6.302  17.262  0.00  0.00    +0.000 A 
ATOM      5  C   UNL     1       3.976   6.504  17.796  0.00  0.00    +0.000 A 
ATOM      6  C   UNL     1       3.054   5.450  17.853  0.00  0.00    +0.000 A 
ENDROOT
BRANCH   4   7
ATOM      7  N   UNL     1       6.146   7.400  17.215  0.00  0.00    +0.000 N 
ATOM      8  C   UNL     1       7.399   7.451  17.803  0.00  0.00    +0.000 C 
ATOM      9  O   UNL     1       7.881   6.598  18.541  0.00  0.00    +0.000 OA
ATOM     10  H   UNL     1       5.843   8.208  16.686  0.00  0.00    +0.000 HD
BRANCH   8  11
ATOM     11  C   UNL     1       8.180   8.710  17.486  0.00  0.00    +0.000 C 
BRANCH  11  12
ATOM     12  C   UNL     1       8.876   9.186  18.763  0.00  0.00    +0.000 C 
BRANCH  12  13
ATOM     13  C   UNL     1       9.283  10.632  18.710  0.00  0.00    +0.000 A 
ATOM     14  C   UNL     1      10.264  11.121  19.584  0.00  0.00    +0.000 A 
ATOM     15  C   UNL     1      10.659  12.456  19.522  0.00  0.00    +0.000 A 
ATOM     16  C   UNL     1      10.076  13.313  18.590  0.00  0.00    +0.000 A 
ATOM     17  C   UNL     1       9.098  12.835  17.718  0.00  0.00    +0.000 A 
ATOM     18  C   UNL     1       8.701  11.499  17.779  0.00  0.00    +0.000 A 
ENDBRANCH  12  13
ENDBRANCH  11  12
ENDBRANCH   8  11
ENDBRANCH   4   7
BRANCH   1  19
ATOM     19  C   UNL     1       2.426   3.024  17.454  0.00  0.00    +0.000 C 
BRANCH  19  20
ATOM     20  C   UNL     1       2.601   2.170  18.720  0.00  0.00    +0.000 C 
BRANCH  20  21
ATOM     21  C   UNL     1       2.776   2.982  20.005  0.00  0.00    +0.000 C 
BRANCH  21  23
ATOM     22  O   UNL     1       1.645   2.394  22.065  0.00  0.00    +0.000 OA
ATOM     23  C   UNL     1       1.593   2.849  20.932  0.00  0.00    +0.000 C 
BRANCH  23  24
ATOM     24  O   UNL     1       0.444   3.320  20.398  0.00  0.00    +0.000 OA
ATOM     25  H   UNL     1       0.304   4.275  20.542  0.00  0.00    +0.000 HD
ENDBRANCH  23  24
ENDBRANCH  21  23
ENDBRANCH  20  21
ENDBRANCH  19  20
ENDBRANCH   1  19
TORSDOF 9
ENDMDL
MODEL 2
REMARK VINA RESULT:      -7.5      0.954      1.232
REMARK  Name = 
REMARK  9 active torsions:
REMARK  status: ('A' for Active; 'I' for Inactive)
REMARK    1  A    between atoms: C_2  and  O_3
REMARK    2  A    between atoms: C_2  and  C_4
REMARK    3  A    between atoms: C_4  and  C_5
REMARK    4  A    between atoms: C_5  and  C_6
REMARK    5  A    between atoms: C_6  and  C_7
REMARK    6  A    between atoms: C_10  and  N_11
REMARK    7  A    between atoms: C_12  and  C_14
REMARK    8  A    between atoms: C_14  and  C_15
REMARK    9  A    between atoms: C_15  and  C_16
REMARK                            x       y       z     vdW  Elec       q    Type
REMARK                         _______ _______ _______ _____ _____    ______ ____
ROOT
ATOM      1  C   UNL     1       3.847   4.199  17.398  0.00  0.00    +0.000 A 
ATOM      2  C   UNL     1       5.194   3.959  17.129  0.00  0.00    +0.000 A 
ATOM      3  C   UNL     1       6.098   5.016  17.031  0.00  0.00    +0.000 A 
ATOM      4  C   UNL     1       5.681   6.340  17.184  0.00  0.00    +0.000 A 
ATOM      5  C   UNL     1       4.325   6.585  17.440  0.00  0.00    +0.000 A 
ATOM      6  C   UNL     1       3.417   5.522  17.547  0.00  0.00    +0.000 A 
ENDROOT
BRANCH   4   7
ATOM      7  N   UNL     1       6.555   7.446  17.072  0.00  0.00    +0.000 N 
ATOM      8  C   UNL     1       7.719   7.634  17.799  0.00  0.00    +0.000 C 
ATOM      9  O   UNL     1       8.110   6.927  18.723  0.00  0.00    +0.000 OA
ATOM     10  H   UNL     1       6.314   8.147  16.383  0.00  0.00    +0.000 HD
BRANCH   8  11
ATOM     11  C   UNL     1       8.519   8.851  17.382  0.00  0.00    +0.000 C 
BRANCH  11  12
ATOM     12  C   UNL     1       8.188  10.001  18.337  0.00  0.00    +0.000 C 
BRANCH  12  13
ATOM     13  C   UNL     1       9.403  10.765  18.785  0.00  0.00    +0.000 A 
ATOM     14  C   UNL     1       9.630  10.993  20.148  0.00  0.00    +0.000 A 
ATOM     15  C   UNL     1      10.767  11.682  20.567  0.00  0.00    +0.000 A 
ATOM     16  C   UNL     1      11.684  12.151  19.627  0.00  0.00    +0.000 A 
ATOM     17  C   UNL     1      11.464  11.930  18.268  0.00  0.00    +0.000 A 
ATOM     18  C   UNL     1      10.326  11.241  17.847  0.00  0.00    +0.000 A 
ENDBRANCH  12  13
ENDBRANCH  11  12
ENDBRANCH   8  11
ENDBRANCH   4   7
BRANCH   1  19
ATOM     19  C   UNL     1       2.892   3.040  17.538  0.00  0.00    +0.000 C 
BRANCH  19  20
ATOM     20  C   UNL     1       3.053   2.277  18.863  0.00  0.00    +0.000 C 
BRANCH  20  21
ATOM     21  C   UNL     1       1.789   2.247  19.725  0.00  0.00    +0.000 C 
BRANCH  21  23
ATOM     22  O   UNL     1       1.346   4.219  21.060  0.00  0.00    +0.000 OA
ATOM     23  C   UNL     1       1.901   3.138  20.938  0.00  0.00    +0.000 C 
BRANCH  23  24
ATOM     24  O   UNL     1       2.664   2.605  21.918  0.00  0.00    +0.000 OA
ATOM     25  H   UNL     1       2.173   2.023  22.528  0.00  0.00    +0.000 HD
ENDBRANCH  23  24
ENDBRANCH  21  23
ENDBRANCH  20  21
ENDBRANCH  19  20
ENDBRANCH   1  19
TORSDOF 9
ENDMDL
MODEL 3
REMARK VINA RESULT:      -7.5      1.045      1.495
REMARK  Name = 
REMARK  9 active torsions:
REMARK  status: ('A' for Active; 'I' for Inactive)
REMARK    1  A    between atoms: C_2  and  O_3
REMARK    2  A    between atoms: C_2  and  C_4
REMARK    3  A    between atoms: C_4  and  C_5
REMARK    4  A    between atoms: C_5  and  C_6
REMARK    5  A    between atoms: C_6  and  C_7
REMARK    6  A    between atoms: C_10  and  N_11
REMARK    7  A    between atoms: C_12  and  C_14
REMARK    8  A    between atoms: C_14  and  C_15
REMARK    9  A    between atoms: C_15  and  C_16
REMARK                            x       y       z     vdW  Elec       q    Type
REMARK                         _______ _______ _______ _____ _____    ______ ____
ROOT
ATOM      1  C   UNL     1       4.052   4.340  17.114  0.00  0.00    +0.000 A 
ATOM      2  C   UNL     1       5.345   4.239  16.600  0.00  0.00    +0.000 A 
ATOM      3  C   UNL     1       6.206   5.334  16.626  0.00  0.00    +0.000 A 
ATOM      4  C   UNL     1       5.799   6.562  17.151  0.00  0.00    +0.000 A 
ATOM      5  C   UNL     1       4.496   6.671  17.655  0.00  0.00    +0.000 A 
ATOM      6  C   UNL     1       3.631   5.567  17.637  0.00  0.00    +0.000 A 
ENDROOT
BRANCH   4   7
ATOM      7  N   UNL     1       6.629   7.707  17.180  0.00  0.00    +0.000 N 
ATOM      8  C   UNL     1       7.790   7.845  17.922  0.00  0.00    +0.000 C 
ATOM      9  O   UNL     1       8.216   7.041  18.745  0.00  0.00    +0.000 OA
ATOM     10  H   UNL     1       6.355   8.481  16.588  0.00  0.00    +0.000 HD
BRANCH   8  11
ATOM     11  C   UNL     1       8.539   9.137  17.663  0.00  0.00    +0.000 C 
BRANCH  11  12
ATOM     12  C   UNL     1       8.842   9.801  19.008  0.00  0.00    +0.000 C 
BRANCH  12  13
ATOM     13  C   UNL     1       9.924  10.842  18.923  0.00  0.00    +0.000 A 
ATOM     14  C   UNL     1      10.264  11.406  17.686  0.00  0.00    +0.000 A 
ATOM     15  C   UNL     1      11.251  12.387  17.609  0.00  0.00    +0.000 A 
ATOM     16  C   UNL     1      11.908  12.808  18.764  0.00  0.00    +0.000 A 
ATOM     17  C   UNL     1      11.576  12.250  19.998  0.00  0.00    +0.000 A 
ATOM     18  C   UNL     1      10.589  11.268  20.078  0.00  0.00    +0.000 A 
ENDBRANCH  12  13
ENDBRANCH  11  12
ENDBRANCH   8  11
ENDBRANCH   4   7
BRANCH   1  19
ATOM     19  C   UNL     1       3.148   3.133  17.111  0.00  0.00    +0.000 C 
BRANCH  19  20
ATOM     20  C   UNL     1       3.585   2.044  18.104  0.00  0.00    +0.000 C 
BRANCH  20  21
ATOM     21  C   UNL     1       3.770   2.543  19.539  0.00  0.00    +0.000 C 
BRANCH  21  23
ATOM     22  O   UNL     1       1.402   2.398  20.030  0.00  0.00    +0.000 OA
ATOM     23  C   UNL     1       2.468   2.978  20.166  0.00  0.00    +0.000 C 
BRANCH  23  24
ATOM     24  O   UNL     1       2.594   4.079  20.941  0.00  0.00    +0.000 OA
ATOM     25  H   UNL     1       2.320   4.906  20.500  0.00  0.00    +0.000 HD
ENDBRANCH  23  24
ENDBRANCH  21  23
ENDBRANCH  20  21
ENDBRANCH  19  20
ENDBRANCH   1  19
TORSDOF 9
ENDMDL
MODEL 4
REMARK VINA RESULT:      -7.4      1.408      2.012
REMARK  Name = 
REMARK  9 active torsions:
REMARK  status: ('A' for Active; 'I' for Inactive)
REMARK    1  A    between atoms: C_2  and  O_3
REMARK    2  A    between atoms: C_2  and  C_4
REMARK    3  A    between atoms: C_4  and  C_5
REMARK    4  A    between atoms: C_5  and  C_6
REMARK    5  A    between atoms: C_6  and  C_7
REMARK    6  A    between atoms: C_10  and  N_11
REMARK    7  A    between atoms: C_12  and  C_14
REMARK    8  A    between atoms: C_14  and  C_15
REMARK    9  A    between atoms: C_15  and  C_16
REMARK                            x       y       z     vdW  Elec       q    Type
REMARK                         _______ _______ _______ _____ _____    ______ ____
ROOT
ATOM      1  C   UNL     1       4.629   4.039  17.012  0.00  0.00    +0.000 A 
ATOM      2  C   UNL     1       4.564   4.783  18.190  0.00  0.00    +0.000 A 
ATOM      3  C   UNL     1       5.227   6.004  18.295  0.00  0.00    +0.000 A 
ATOM      4  C   UNL     1       5.984   6.510  17.237  0.00  0.00    +0.000 A 
ATOM      5  C   UNL     1       6.063   5.757  16.057  0.00  0.00    +0.000 A 
ATOM      6  C   UNL     1       5.390   4.532  15.947  0.00  0.00    +0.000 A 
ENDROOT
BRANCH   4   7
ATOM      7  N   UNL     1       6.692   7.732  17.303  0.00  0.00    +0.000 N 
ATOM      8  C   UNL     1       7.867   7.948  18.004  0.00  0.00    +0.000 C 
ATOM      9  O   UNL     1       8.411   7.147  18.757  0.00  0.00    +0.000 OA
ATOM     10  H   UNL     1       6.313   8.506  16.772  0.00  0.00    +0.000 HD
BRANCH   8  11
ATOM     11  C   UNL     1       8.467   9.324  17.796  0.00  0.00    +0.000 C 
BRANCH  11  12
ATOM     12  C   UNL     1       9.016   9.822  19.135  0.00  0.00    +0.000 C 
BRANCH  12  13
ATOM     13  C   UNL     1      10.009  10.941  18.986  0.00  0.00    +0.000 A 
ATOM     14  C   UNL     1      10.322  11.442  17.715  0.00  0.00    +0.000 A 
ATOM     15  C   UNL     1      11.226  12.495  17.577  0.00  0.00    +0.000 A 
ATOM     16  C   UNL     1      11.825  13.052  18.706  0.00  0.00    +0.000 A 
ATOM     17  C   UNL     1      11.520  12.557  19.973  0.00  0.00    +0.000 A 
ATOM     18  C   UNL     1      10.617  11.504  20.114  0.00  0.00    +0.000 A 
ENDBRANCH  12  13
ENDBRANCH  11  12
ENDBRANCH   8  11
ENDBRANCH   4   7
BRANCH   1  19
ATOM     19  C   UNL     1       3.874   2.738  16.905  0.00  0.00    +0.000 C 
BRANCH  19  20
ATOM     20  C   UNL     1       3.413   2.189  18.265  0.00  0.00    +0.000 C 
BRANCH  20  21
ATOM     21  C   UNL     1       1.893   2.134  18.435  0.00  0.00    +0.000 C 
BRANCH  21  23
ATOM     22  O   UNL     1       1.070   4.083  19.615  0.00  0.00    +0.000 OA
ATOM     23  C   UNL     1       1.281   3.508  18.559  0.00  0.00    +0.000 C 
BRANCH  23  24
ATOM     24  O   UNL     1       1.009   4.076  17.363  0.00  0.00    +0.000 OA
ATOM     25  H   UNL     1       1.492   4.909  17.202  0.00  0.00    +0.000 HD
ENDBRANCH  23  24
ENDBRANCH  21  23
ENDBRANCH  20  21
ENDBRANCH  19  20
ENDBRANCH   1  19
TORSDOF 9
ENDMDL
MODEL 5
REMARK VINA RESULT:      -7.3      0.968      1.484
REMARK  Name = 
REMARK  9 active torsions:
REMARK  status: ('A' for Active; 'I' for Inactive)
REMARK    1  A    between atoms: C_2  and  O_3
REMARK    2  A    between atoms: C_2  and  C_4
REMARK    3  A    between atoms: C_4  and  C_5
REMARK    4  A    between atoms: C_5  and  C_6
REMARK    5  A    between atoms: C_6  and  C_7
REMARK    6  A    between atoms: C_10  and  N_11
REMARK    7  A    between atoms: C_12  and  C_14
REMARK    8  A    between atoms: C_14  and  C_15
REMARK    9  A    between atoms: C_15  and  C_16
REMARK                            x       y       z     vdW  Elec       q    Type
REMARK                         _______ _______ _______ _____ _____    ______ ____
ROOT
ATOM      1  C   UNL     1       4.460   4.062  17.235  0.00  0.00    +0.000 A 
ATOM      2  C   UNL     1       3.937   5.219  17.812  0.00  0.00    +0.000 A 
ATOM      3  C   UNL     1       4.641   6.421  17.755  0.00  0.00    +0.000 A 
ATOM      4  C   UNL     1       5.889   6.499  17.136  0.00  0.00    +0.000 A 
ATOM      5  C   UNL     1       6.424   5.335  16.568  0.00  0.00    +0.000 A 
ATOM      6  C   UNL     1       5.714   4.127  16.617  0.00  0.00    +0.000 A 
ENDROOT
BRANCH   4   7
ATOM      7  N   UNL     1       6.651   7.689  17.073  0.00  0.00    +0.000 N 
ATOM      8  C   UNL     1       7.781   7.966  17.824  0.00  0.00    +0.000 C 
ATOM      9  O   UNL     1       8.229   7.270  18.730  0.00  0.00    +0.000 OA
ATOM     10  H   UNL     1       6.350   8.386  16.404  0.00  0.00    +0.000 HD
BRANCH   8  11
ATOM     11  C   UNL     1       8.462   9.269  17.459  0.00  0.00    +0.000 C 
BRANCH  11  12
ATOM     12  C   UNL     1       8.947   9.942  18.745  0.00  0.00    +0.000 C 
BRANCH  12  13
ATOM     13  C   UNL     1       9.693  11.223  18.497  0.00  0.00    +0.000 A 
ATOM     14  C   UNL     1      11.088  11.263  18.626  0.00  0.00    +0.000 A 
ATOM     15  C   UNL     1      11.785  12.444  18.374  0.00  0.00    +0.000 A 
ATOM     16  C   UNL     1      11.093  13.593  17.996  0.00  0.00    +0.000 A 
ATOM     17  C   UNL     1       9.705  13.563  17.869  0.00  0.00    +0.000 A 
ATOM     18  C   UNL     1       9.006  12.382  18.120  0.00  0.00    +0.000 A 
ENDBRANCH  12  13
ENDBRANCH  11  12
ENDBRANCH   8  11
ENDBRANCH   4   7
BRANCH   1  19
ATOM     19  C   UNL     1       3.667   2.780  17.273  0.00  0.00    +0.000 C 
BRANCH  19  20
ATOM     20  C   UNL     1       2.180   2.996  17.600  0.00  0.00    +0.000 C 
BRANCH  20  21
ATOM     21  C   UNL     1       1.692   2.227  18.830  0.00  0.00    +0.000 C 
BRANCH  21  23
ATOM     22  O   UNL     1       2.904   3.378  20.583  0.00  0.00    +0.000 OA
ATOM     23  C   UNL     1       1.838   3.028  20.101  0.00  0.00    +0.000 C 
BRANCH  23  24
ATOM     24  O   UNL     1       0.652   3.362  20.657  0.00  0.00    +0.000 OA
ATOM     25  H   UNL     1       0.065   3.866  20.062  0.00  0.00    +0.000 HD
ENDBRANCH  23  24
ENDBRANCH  21  23
ENDBRANCH  20  21
ENDBRANCH  19  20
ENDBRANCH   1  19
TORSDOF 9
ENDMDL
MODEL 6
REMARK VINA RESULT:      -7.3      1.073      1.280
REMARK  Name = 
REMARK  9 active torsions:
REMARK  status: ('A' for Active; 'I' for Inactive)
REMARK    1  A    between atoms: C_2  and  O_3
REMARK    2  A    between atoms: C_2  and  C_4
REMARK    3  A    between atoms: C_4  and  C_5
REMARK    4  A    between atoms: C_5  and  C_6
REMARK    5  A    between atoms: C_6  and  C_7
REMARK    6  A    between atoms: C_10  and  N_11
REMARK    7  A    between atoms: C_12  and  C_14
REMARK    8  A    between atoms: C_14  and  C_15
REMARK    9  A    between atoms: C_15  and  C_16
REMARK                            x       y       z     vdW  Elec       q    Type
REMARK                         _______ _______ _______ _____ _____    ______ ____
ROOT
ATOM      1  C   UNL     1       4.473   3.911  17.514  0.00  0.00    +0.000 A 
ATOM      2  C   UNL     1       4.991   4.318  16.284  0.00  0.00    +0.000 A 
ATOM      3  C   UNL     1       5.686   5.521  16.172  0.00  0.00    +0.000 A 
ATOM      4  C   UNL     1       5.872   6.356  17.275  0.00  0.00    +0.000 A 
ATOM      5  C   UNL     1       5.339   5.956  18.508  0.00  0.00    +0.000 A 
ATOM      6  C   UNL     1       4.646   4.742  18.625  0.00  0.00    +0.000 A 
ENDROOT
BRANCH   4   7
ATOM      7  N   UNL     1       6.550   7.594  17.206  0.00  0.00    +0.000 N 
ATOM      8  C   UNL     1       7.739   7.901  17.846  0.00  0.00    +0.000 C 
ATOM      9  O   UNL     1       8.326   7.186  18.652  0.00  0.00    +0.000 OA
ATOM     10  H   UNL     1       6.136   8.307  16.618  0.00  0.00    +0.000 HD
BRANCH   8  11
ATOM     11  C   UNL     1       8.297   9.265  17.493  0.00  0.00    +0.000 C 
BRANCH  11  12
ATOM     12  C   UNL     1       8.965   9.854  18.738  0.00  0.00    +0.000 C 
BRANCH  12  13
ATOM     13  C   UNL     1       9.613  11.187  18.486  0.00  0.00    +0.000 A 
ATOM     14  C   UNL     1       9.107  12.343  19.096  0.00  0.00    +0.000 A 
ATOM     15  C   UNL     1       9.720  13.577  18.882  0.00  0.00    +0.000 A 
ATOM     16  C   UNL     1      10.838  13.666  18.055  0.00  0.00    +0.000 A 
ATOM     17  C   UNL     1      11.346  12.521  17.443  0.00  0.00    +0.000 A 
ATOM     18  C   UNL     1      10.735  11.285  17.656  0.00  0.00    +0.000 A 
ENDBRANCH  12  13
ENDBRANCH  11  12
ENDBRANCH   8  11
ENDBRANCH   4   7
BRANCH   1  19
ATOM     19  C   UNL     1       3.756   2.588  17.624  0.00  0.00    +0.000 C 
BRANCH  19  20
ATOM     20  C   UNL     1       2.229   2.732  17.733  0.00  0.00    +0.000 C 
BRANCH  20  21
ATOM     21  C   UNL     1       1.608   1.948  18.891  0.00  0.00    +0.000 C 
BRANCH  21  23
ATOM     22  O   UNL     1       2.656   2.801  20.901  0.00  0.00    +0.000 OA
ATOM     23  C   UNL     1       1.665   2.708  20.193  0.00  0.00    +0.000 C 
BRANCH  23  24
ATOM     24  O   UNL     1       0.500   3.321  20.501  0.00  0.00    +0.000 OA
ATOM     25  H   UNL     1      -0.256   2.710  20.592  0.00  0.00    +0.000 HD
ENDBRANCH  23  24
ENDBRANCH  21  23
ENDBRANCH  20  21
ENDBRANCH  19  20
ENDBRANCH   1  19
TORSDOF 9
ENDMDL
MODEL 7
REMARK VINA RESULT:      -7.3      1.197      1.697
REMARK  Name = 
REMARK  9 active torsions:
REMARK  status: ('A' for Active; 'I' for Inactive)
REMARK    1  A    between atoms: C_2  and  O_3
REMARK    2  A    between atoms: C_2  and  C_4
REMARK    3  A    between atoms: C_4  and  C_5
REMARK    4  A    between atoms: C_5  and  C_6
REMARK    5  A    between atoms: C_6  and  C_7
REMARK    6  A    between atoms: C_10  and  N_11
REMARK    7  A    between atoms: C_12  and  C_14
REMARK    8  A    between atoms: C_14  and  C_15
REMARK    9  A    between atoms: C_15  and  C_16
REMARK                            x       y       z     vdW  Elec       q    Type
REMARK                         _______ _______ _______ _____ _____    ______ ____
ROOT
ATOM      1  C   UNL     1       3.654   4.269  17.071  0.00  0.00    +0.000 A 
ATOM      2  C   UNL     1       3.361   5.479  17.701  0.00  0.00    +0.000 A 
ATOM      3  C   UNL     1       4.284   6.524  17.692  0.00  0.00    +0.000 A 
ATOM      4  C   UNL     1       5.526   6.388  17.070  0.00  0.00    +0.000 A 
ATOM      5  C   UNL     1       5.829   5.168  16.449  0.00  0.00    +0.000 A 
ATOM      6  C   UNL     1       4.899   4.119  16.450  0.00  0.00    +0.000 A 
ENDROOT
BRANCH   4   7
ATOM      7  N   UNL     1       6.502   7.411  17.054  0.00  0.00    +0.000 N 
ATOM      8  C   UNL     1       7.654   7.441  17.823  0.00  0.00    +0.000 C 
ATOM      9  O   UNL     1       7.948   6.643  18.708  0.00  0.00    +0.000 OA
ATOM     10  H   UNL     1       6.350   8.174  16.407  0.00  0.00    +0.000 HD
BRANCH   8  11
ATOM     11  C   UNL     1       8.577   8.601  17.508  0.00  0.00    +0.000 C 
BRANCH  11  12
ATOM     12  C   UNL     1       7.934   9.888  18.028  0.00  0.00    +0.000 C 
BRANCH  12  13
ATOM     13  C   UNL     1       8.938  10.956  18.364  0.00  0.00    +0.000 A 
ATOM     14  C   UNL     1       9.972  10.691  19.272  0.00  0.00    +0.000 A 
ATOM     15  C   UNL     1      10.917  11.672  19.568  0.00  0.00    +0.000 A 
ATOM     16  C   UNL     1      10.834  12.925  18.963  0.00  0.00    +0.000 A 
ATOM     17  C   UNL     1       9.807  13.197  18.060  0.00  0.00    +0.000 A 
ATOM     18  C   UNL     1       8.860  12.217  17.763  0.00  0.00    +0.000 A 
ENDBRANCH  12  13
ENDBRANCH  11  12
ENDBRANCH   8  11
ENDBRANCH   4   7
BRANCH   1  19
ATOM     19  C   UNL     1       2.629   3.163  17.059  0.00  0.00    +0.000 C 
BRANCH  19  20
ATOM     20  C   UNL     1       2.981   1.998  17.998  0.00  0.00    +0.000 C 
BRANCH  20  21
ATOM     21  C   UNL     1       2.691   2.276  19.475  0.00  0.00    +0.000 C 
BRANCH  21  23
ATOM     22  O   UNL     1       3.970   2.043  21.519  0.00  0.00    +0.000 OA
ATOM     23  C   UNL     1       3.943   2.260  20.318  0.00  0.00    +0.000 C 
BRANCH  23  24
ATOM     24  O   UNL     1       5.068   2.481  19.600  0.00  0.00    +0.000 OA
ATOM     25  H   UNL     1       5.258   3.426  19.446  0.00  0.00    +0.000 HD
ENDBRANCH  23  24
ENDBRANCH  21  23
ENDBRANCH  20  21
ENDBRANCH  19  20
ENDBRANCH   1  19
TORSDOF 9
ENDMDL
MODEL 8
REMARK VINA RESULT:      -7.3      5.247      8.297
REMARK  Name = 
REMARK  9 active torsions:
REMARK  status: ('A' for Active; 'I' for Inactive)
REMARK    1  A    between atoms: C_2  and  O_3
REMARK    2  A    between atoms: C_2  and  C_4
REMARK    3  A    between atoms: C_4  and  C_5
REMARK    4  A    between atoms: C_5  and  C_6
REMARK    5  A    between atoms: C_6  and  C_7
REMARK    6  A    between atoms: C_10  and  N_11
REMARK    7  A    between atoms: C_12  and  C_14
REMARK    8  A    between atoms: C_14  and  C_15
REMARK    9  A    between atoms: C_15  and  C_16
REMARK                            x       y       z     vdW  Elec       q    Type
REMARK                         _______ _______ _______ _____ _____    ______ ____
ROOT
ATOM      1  C   UNL     1       4.833   4.729  16.665  0.00  0.00    +0.000 A 
ATOM      2  C   UNL     1       5.156   6.085  16.622  0.00  0.00    +0.000 A 
ATOM      3  C   UNL     1       4.409   7.016  17.342  0.00  0.00    +0.000 A 
ATOM      4  C   UNL     1       3.314   6.624  18.113  0.00  0.00    +0.000 A 
ATOM      5  C   UNL     1       2.977   5.264  18.147  0.00  0.00    +0.000 A 
ATOM      6  C   UNL     1       3.732   4.325  17.429  0.00  0.00    +0.000 A 
ENDROOT
BRANCH   4   7
ATOM      7  N   UNL     1       2.513   7.533  18.842  0.00  0.00    +0.000 N 
ATOM      8  C   UNL     1       1.914   8.673  18.332  0.00  0.00    +0.000 C 
ATOM      9  O   UNL     1       2.073   9.123  17.202  0.00  0.00    +0.000 OA
ATOM     10  H   UNL     1       2.351   7.314  19.817  0.00  0.00    +0.000 HD
BRANCH   8  11
ATOM     11  C   UNL     1       1.013   9.392  19.316  0.00  0.00    +0.000 C 
BRANCH  11  12
ATOM     12  C   UNL     1       0.550  10.705  18.681  0.00  0.00    +0.000 C 
BRANCH  12  13
ATOM     13  C   UNL     1      -0.922  10.729  18.382  0.00  0.00    +0.000 A 
ATOM     14  C   UNL     1      -1.756  11.660  19.017  0.00  0.00    +0.000 A 
ATOM     15  C   UNL     1      -3.118  11.699  18.723  0.00  0.00    +0.000 A 
ATOM     16  C   UNL     1      -3.658  10.808  17.797  0.00  0.00    +0.000 A 
ATOM     17  C   UNL     1      -2.835   9.878  17.163  0.00  0.00    +0.000 A 
ATOM     18  C   UNL     1      -1.472   9.837  17.455  0.00  0.00    +0.000 A 
ENDBRANCH  12  13
ENDBRANCH  11  12
ENDBRANCH   8  11
ENDBRANCH   4   7
BRANCH   1  19
ATOM     19  C   UNL     1       5.675   3.733  15.909  0.00  0.00    +0.000 C 
BRANCH  19  20
ATOM     20  C   UNL     1       6.240   4.290  14.593  0.00  0.00    +0.000 C 
BRANCH  20  21
ATOM     21  C   UNL     1       5.498   3.813  13.342  0.00  0.00    +0.000 C 
BRANCH  21  23
ATOM     22  O   UNL     1       7.317   4.152  11.778  0.00  0.00    +0.000 OA
ATOM     23  C   UNL     1       6.442   3.430  12.228  0.00  0.00    +0.000 C 
BRANCH  23  24
ATOM     24  O   UNL     1       6.249   2.168  11.781  0.00  0.00    +0.000 OA
ATOM     25  H   UNL     1       7.073   1.656  11.676  0.00  0.00    +0.000 HD
ENDBRANCH  23  24
ENDBRANCH  21  23
ENDBRANCH  20  21
ENDBRANCH  19  20
ENDBRANCH   1  19
TORSDOF 9
ENDMDL
MODEL 9
REMARK VINA RESULT:      -7.3      1.537      1.723
REMARK  Name = 
REMARK  9 active torsions:
REMARK  status: ('A' for Active; 'I' for Inactive)
REMARK    1  A    between atoms: C_2  and  O_3
REMARK    2  A    between atoms: C_2  and  C_4
REMARK    3  A    between atoms: C_4  and  C_5
REMARK    4  A    between atoms: C_5  and  C_6
REMARK    5  A    between atoms: C_6  and  C_7
REMARK    6  A    between atoms: C_10  and  N_11
REMARK    7  A    between atoms: C_12  and  C_14
REMARK    8  A    between atoms: C_14  and  C_15
REMARK    9  A    between atoms: C_15  and  C_16
REMARK                            x       y       z     vdW  Elec       q    Type
REMARK                         _______ _______ _______ _____ _____    ______ ____
ROOT
ATOM      1  C   UNL     1       3.897   4.597  17.076  0.00  0.00    +0.000 A 
ATOM      2  C   UNL     1       5.162   4.438  16.511  0.00  0.00    +0.000 A 
ATOM      3  C   UNL     1       6.067   5.498  16.490  0.00  0.00    +0.000 A 
ATOM      4  C   UNL     1       5.733   6.746  17.017  0.00  0.00    +0.000 A 
ATOM      5  C   UNL     1       4.457   6.913  17.572  0.00  0.00    +0.000 A 
ATOM      6  C   UNL     1       3.548   5.846  17.602  0.00  0.00    +0.000 A 
ENDROOT
BRANCH   4   7
ATOM      7  N   UNL     1       6.608   7.856  16.999  0.00  0.00    +0.000 N 
ATOM      8  C   UNL     1       7.768   7.984  17.747  0.00  0.00    +0.000 C 
ATOM      9  O   UNL     1       8.152   7.206  18.614  0.00  0.00    +0.000 OA
ATOM     10  H   UNL     1       6.373   8.610  16.366  0.00  0.00    +0.000 HD
BRANCH   8  11
ATOM     11  C   UNL     1       8.572   9.229  17.433  0.00  0.00    +0.000 C 
BRANCH  11  12
ATOM     12  C   UNL     1       8.903   9.938  18.748  0.00  0.00    +0.000 C 
BRANCH  12  13
ATOM     13  C   UNL     1       9.642  11.232  18.552  0.00  0.00    +0.000 A 
ATOM     14  C   UNL     1      11.021  11.226  18.304  0.00  0.00    +0.000 A 
ATOM     15  C   UNL     1      11.705  12.424  18.099  0.00  0.00    +0.000 A 
ATOM     16  C   UNL     1      11.017  13.635  18.145  0.00  0.00    +0.000 A 
ATOM     17  C   UNL     1       9.645  13.650  18.394  0.00  0.00    +0.000 A 
ATOM     18  C   UNL     1       8.960  12.453  18.599  0.00  0.00    +0.000 A 
ENDBRANCH  12  13
ENDBRANCH  11  12
ENDBRANCH   8  11
ENDBRANCH   4   7
BRANCH   1  19
ATOM     19  C   UNL     1       2.945   3.429  17.124  0.00  0.00    +0.000 C 
BRANCH  19  20
ATOM     20  C   UNL     1       2.201   3.306  18.464  0.00  0.00    +0.000 C 
BRANCH  20  21
ATOM     21  C   UNL     1       2.512   2.021  19.236  0.00  0.00    +0.000 C 
BRANCH  21  23
ATOM     22  O   UNL     1       4.773   2.442  20.000  0.00  0.00    +0.000 OA
ATOM     23  C   UNL     1       3.995   1.764  19.346  0.00  0.00    +0.000 C 
BRANCH  23  24
ATOM     24  O   UNL     1       4.394   0.667  18.664  0.00  0.00    +0.000 OA
ATOM     25  H   UNL     1       4.646   0.847  17.738  0.00  0.00    +0.000 HD
ENDBRANCH  23  24
ENDBRANCH  21  23
ENDBRANCH  20  21
ENDBRANCH  19  20
ENDBRANCH   1  19
TORSDOF 9
ENDMDL
