MODEL 1
REMARK VINA RESULT:      -7.2      0.000      0.000
REMARK  Name = 
REMARK  5 active torsions:
REMARK  status: ('A' for Active; 'I' for Inactive)
REMARK    1  A    between atoms: C_2  and  C_4
REMARK    2  A    between atoms: C_7  and  N_8
REMARK    3  A    between atoms: N_12  and  C_13
REMARK    4  A    between atoms: C_19  and  C_20
REMARK    5  A    between atoms: C_23  and  N_24
REMARK                            x       y       z     vdW  Elec       q    Type
REMARK                         _______ _______ _______ _____ _____    ______ ____
ROOT
ATOM      1  N   UNL     1       1.360   8.599  19.191  0.00  0.00    +0.000 N 
ATOM      2  C   UNL     1       1.173   9.413  17.977  0.00  0.00    +0.000 C 
ATOM      3  C   UNL     1      -0.295   9.683  17.701  0.00  0.00    +0.000 C 
ATOM      4  C   UNL     1      -1.078  10.296  18.848  0.00  0.00    +0.000 C 
ATOM      5  N   UNL     1      -0.190  11.067  19.726  0.00  0.00    +0.000 N 
ATOM      6  C   UNL     1       0.329  10.270  20.869  0.00  0.00    +0.000 C 
ATOM      7  C   UNL     1       1.492   9.310  20.499  0.00  0.00    +0.000 C 
ENDROOT
BRANCH   5   8
ATOM      8  C   UNL     1      -0.426  12.427  19.978  0.00  0.00    +0.000 A 
ATOM      9  C   UNL     1      -1.550  12.869  20.693  0.00  0.00    +0.000 A 
ATOM     10  C   UNL     1      -1.756  14.223  20.911  0.00  0.00    +0.000 A 
ATOM     11  N   UNL     1      -0.933  15.213  20.523  0.00  0.00    +0.000 NA
ATOM     12  C   UNL     1       0.150  14.781  19.848  0.00  0.00    +0.000 A 
ATOM     13  S   UNL     1       1.332  15.900  19.315  0.00  0.00    +0.000 S 
ATOM     14  C   UNL     1       2.266  14.682  18.571  0.00  0.00    +0.000 A 
ATOM     15  C   UNL     1       1.637  13.463  18.698  0.00  0.00    +0.000 A 
ATOM     16  C   UNL     1       0.453  13.464  19.516  0.00  0.00    +0.000 A 
BRANCH  14  17
ATOM     17  C   UNL     1       3.518  14.928  17.876  0.00  0.00    +0.000 C 
ATOM     18  N   UNL     1       3.518  15.830  16.853  0.00  0.00    +0.000 N 
ATOM     19  O   UNL     1       4.589  14.366  18.141  0.00  0.00    +0.000 OA
ATOM     20  H   UNL     1       2.669  16.282  16.532  0.00  0.00    +0.000 HD
ATOM     21  H   UNL     1       4.387  15.957  16.357  0.00  0.00    +0.000 HD
ENDBRANCH  14  17
BRANCH  15  22
ATOM     22  N   UNL     1       2.101  12.358  18.093  0.00  0.00    +0.000 N 
ATOM     23  H   UNL     1       1.824  11.414  18.364  0.00  0.00    +0.000 HD
ATOM     24  H   UNL     1       2.925  12.433  17.514  0.00  0.00    +0.000 HD
ENDBRANCH  15  22
ENDBRANCH   5   8
BRANCH   1  28
ATOM     25  C   UNL     1       3.776   5.138  18.886  0.00  0.00    +0.000 A 
ATOM     26  C   UNL     1       3.856   6.118  17.900  0.00  0.00    +0.000 A 
ATOM     27  C   UNL     1       3.105   7.291  18.017  0.00  0.00    +0.000 A 
ATOM     28  C   UNL     1       2.217   7.489  19.087  0.00  0.00    +0.000 A 
ATOM     29  C   UNL     1       2.154   6.486  20.066  0.00  0.00    +0.000 A 
ATOM     30  C   UNL     1       2.925   5.325  19.978  0.00  0.00    +0.000 A 
BRANCH  25  32
ATOM     31  N   UNL     1       5.930   4.026  18.842  0.00  0.00    +0.000 N 
ATOM     32  C   UNL     1       4.571   3.887  18.808  0.00  0.00    +0.000 C 
ATOM     33  O   UNL     1       4.046   2.787  18.758  0.00  0.00    +0.000 OA
ATOM     34  H   UNL     1       6.464   3.170  18.898  0.00  0.00    +0.000 HD
ATOM     35  H   UNL     1       6.371   4.878  19.148  0.00  0.00    +0.000 HD
ENDBRANCH  25  32
ENDBRANCH   1  28
TORSDOF 5
ENDMDL
MODEL 2
REMARK VINA RESULT:      -7.2      1.591      1.881
REMARK  Name = 
REMARK  5 active torsions:
REMARK  status: ('A' for Active; 'I' for Inactive)
REMARK    1  A    between atoms: C_2  and  C_4
REMARK    2  A    between atoms: C_7  and  N_8
REMARK    3  A    between atoms: N_12  and  C_13
REMARK    4  A    between atoms: C_19  and  C_20
REMARK    5  A    between atoms: C_23  and  N_24
REMARK                            x       y       z     vdW  Elec       q    Type
REMARK                         _______ _______ _______ _____ _____    ______ ____
ROOT
ATOM      1  N   UNL     1       1.522   8.368  19.410  0.00  0.00    +0.000 N 
ATOM      2  C   UNL     1       1.489   9.608  18.615  0.00  0.00    +0.000 C 
ATOM      3  C   UNL     1       0.068  10.038  18.302  0.00  0.00    +0.000 C 
ATOM      4  C   UNL     1      -0.855  10.179  19.499  0.00  0.00    +0.000 C 
ATOM      5  N   UNL     1      -0.087  10.489  20.711  0.00  0.00    +0.000 N 
ATOM      6  C   UNL     1       0.285   9.276  21.487  0.00  0.00    +0.000 C 
ATOM      7  C   UNL     1       1.486   8.488  20.899  0.00  0.00    +0.000 C 
ENDROOT
BRANCH   5   8
ATOM      8  C   UNL     1      -0.354  11.645  21.460  0.00  0.00    +0.000 A 
ATOM      9  C   UNL     1      -1.378  11.691  22.420  0.00  0.00    +0.000 A 
ATOM     10  C   UNL     1      -1.621  12.855  23.132  0.00  0.00    +0.000 A 
ATOM     11  N   UNL     1      -0.923  13.999  23.025  0.00  0.00    +0.000 NA
ATOM     12  C   UNL     1       0.066  13.945  22.111  0.00  0.00    +0.000 A 
ATOM     13  S   UNL     1       1.089  15.297  21.871  0.00  0.00    +0.000 S 
ATOM     14  C   UNL     1       1.962  14.518  20.629  0.00  0.00    +0.000 A 
ATOM     15  C   UNL     1       1.427  13.271  20.390  0.00  0.00    +0.000 A 
ATOM     16  C   UNL     1       0.385  12.864  21.294  0.00  0.00    +0.000 A 
BRANCH  14  17
ATOM     17  C   UNL     1       3.077  15.120  19.918  0.00  0.00    +0.000 C 
ATOM     18  N   UNL     1       2.937  16.403  19.475  0.00  0.00    +0.000 N 
ATOM     19  O   UNL     1       4.146  14.546  19.676  0.00  0.00    +0.000 OA
ATOM     20  H   UNL     1       2.069  16.917  19.574  0.00  0.00    +0.000 HD
ATOM     21  H   UNL     1       3.707  16.789  18.949  0.00  0.00    +0.000 HD
ENDBRANCH  14  17
BRANCH  15  22
ATOM     22  N   UNL     1       1.852  12.500  19.376  0.00  0.00    +0.000 N 
ATOM     23  H   UNL     1       2.720  12.674  18.868  0.00  0.00    +0.000 HD
ATOM     24  H   UNL     1       1.194  11.873  18.935  0.00  0.00    +0.000 HD
ENDBRANCH  15  22
ENDBRANCH   5   8
BRANCH   1  28
ATOM     25  C   UNL     1       4.281   5.441  18.095  0.00  0.00    +0.000 A 
ATOM     26  C   UNL     1       3.490   5.183  19.211  0.00  0.00    +0.000 A 
ATOM     27  C   UNL     1       2.536   6.118  19.624  0.00  0.00    +0.000 A 
ATOM     28  C   UNL     1       2.388   7.351  18.968  0.00  0.00    +0.000 A 
ATOM     29  C   UNL     1       3.198   7.587  17.847  0.00  0.00    +0.000 A 
ATOM     30  C   UNL     1       4.130   6.647  17.405  0.00  0.00    +0.000 A 
BRANCH  25  32
ATOM     31  N   UNL     1       6.241   4.077  18.517  0.00  0.00    +0.000 N 
ATOM     32  C   UNL     1       5.292   4.466  17.614  0.00  0.00    +0.000 C 
ATOM     33  O   UNL     1       5.260   4.002  16.486  0.00  0.00    +0.000 OA
ATOM     34  H   UNL     1       6.860   3.336  18.221  0.00  0.00    +0.000 HD
ATOM     35  H   UNL     1       6.131   4.234  19.506  0.00  0.00    +0.000 HD
ENDBRANCH  25  32
ENDBRANCH   1  28
TORSDOF 5
ENDMDL
MODEL 3
REMARK VINA RESULT:      -7.2      0.647      1.100
REMARK  Name = 
REMARK  5 active torsions:
REMARK  status: ('A' for Active; 'I' for Inactive)
REMARK    1  A    between atoms: C_2  and  C_4
REMARK    2  A    between atoms: C_7  and  N_8
REMARK    3  A    between atoms: N_12  and  C_13
REMARK    4  A    between atoms: C_19  and  C_20
REMARK    5  A    between atoms: C_23  and  N_24
REMARK                            x       y       z     vdW  Elec       q    Type
REMARK                         _______ _______ _______ _____ _____    ______ ____
ROOT
ATOM      1  N   UNL     1       1.415   8.597  19.101  0.00  0.00    +0.000 N 
ATOM      2  C   UNL     1       1.188   9.452  17.922  0.00  0.00    +0.000 C 
ATOM      3  C   UNL     1      -0.290   9.701  17.683  0.00  0.00    +0.000 C 
ATOM      4  C   UNL     1      -1.063  10.254  18.867  0.00  0.00    +0.000 C 
ATOM      5  N   UNL     1      -0.175  11.011  19.757  0.00  0.00    +0.000 N 
ATOM      6  C   UNL     1       0.383  10.182  20.859  0.00  0.00    +0.000 C 
ATOM      7  C   UNL     1       1.557   9.261  20.432  0.00  0.00    +0.000 C 
ENDROOT
BRANCH   5   8
ATOM      8  C   UNL     1      -0.433  12.354  20.064  0.00  0.00    +0.000 A 
ATOM      9  C   UNL     1      -1.551  12.746  20.819  0.00  0.00    +0.000 A 
ATOM     10  C   UNL     1      -1.781  14.085  21.091  0.00  0.00    +0.000 A 
ATOM     11  N   UNL     1      -0.988  15.106  20.724  0.00  0.00    +0.000 NA
ATOM     12  C   UNL     1       0.090  14.724  20.011  0.00  0.00    +0.000 A 
ATOM     13  S   UNL     1       1.237  15.887  19.496  0.00  0.00    +0.000 S 
ATOM     14  C   UNL     1       2.180  14.718  18.687  0.00  0.00    +0.000 A 
ATOM     15  C   UNL     1       1.579  13.482  18.782  0.00  0.00    +0.000 A 
ATOM     16  C   UNL     1       0.413  13.427  19.623  0.00  0.00    +0.000 A 
BRANCH  14  17
ATOM     17  C   UNL     1       3.411  15.016  17.976  0.00  0.00    +0.000 C 
ATOM     18  N   UNL     1       3.395  16.029  17.063  0.00  0.00    +0.000 N 
ATOM     19  O   UNL     1       4.477  14.407  18.134  0.00  0.00    +0.000 OA
ATOM     20  H   UNL     1       2.546  16.531  16.827  0.00  0.00    +0.000 HD
ATOM     21  H   UNL     1       4.248  16.195  16.550  0.00  0.00    +0.000 HD
ENDBRANCH  14  17
BRANCH  15  22
ATOM     22  N   UNL     1       2.053  12.410  18.126  0.00  0.00    +0.000 N 
ATOM     23  H   UNL     1       1.456  11.658  17.780  0.00  0.00    +0.000 HD
ATOM     24  H   UNL     1       3.041  12.210  18.177  0.00  0.00    +0.000 HD
ENDBRANCH  15  22
ENDBRANCH   5   8
BRANCH   1  28
ATOM     25  C   UNL     1       4.211   5.459  18.611  0.00  0.00    +0.000 A 
ATOM     26  C   UNL     1       3.347   5.442  19.702  0.00  0.00    +0.000 A 
ATOM     27  C   UNL     1       2.381   6.443  19.847  0.00  0.00    +0.000 A 
ATOM     28  C   UNL     1       2.293   7.511  18.939  0.00  0.00    +0.000 A 
ATOM     29  C   UNL     1       3.177   7.506  17.849  0.00  0.00    +0.000 A 
ATOM     30  C   UNL     1       4.122   6.494  17.676  0.00  0.00    +0.000 A 
BRANCH  25  32
ATOM     31  N   UNL     1       5.174   3.328  19.250  0.00  0.00    +0.000 N 
ATOM     32  C   UNL     1       5.238   4.406  18.412  0.00  0.00    +0.000 C 
ATOM     33  O   UNL     1       6.072   4.472  17.524  0.00  0.00    +0.000 OA
ATOM     34  H   UNL     1       5.804   2.566  19.043  0.00  0.00    +0.000 HD
ATOM     35  H   UNL     1       4.353   3.126  19.797  0.00  0.00    +0.000 HD
ENDBRANCH  25  32
ENDBRANCH   1  28
TORSDOF 5
ENDMDL
MODEL 4
REMARK VINA RESULT:      -7.1      1.476      1.497
REMARK  Name = 
REMARK  5 active torsions:
REMARK  status: ('A' for Active; 'I' for Inactive)
REMARK    1  A    between atoms: C_2  and  C_4
REMARK    2  A    between atoms: C_7  and  N_8
REMARK    3  A    between atoms: N_12  and  C_13
REMARK    4  A    between atoms: C_19  and  C_20
REMARK    5  A    between atoms: C_23  and  N_24
REMARK                            x       y       z     vdW  Elec       q    Type
REMARK                         _______ _______ _______ _____ _____    ______ ____
ROOT
ATOM      1  N   UNL     1       1.435   8.396  19.765  0.00  0.00    +0.000 N 
ATOM      2  C   UNL     1       1.458   9.579  18.887  0.00  0.00    +0.000 C 
ATOM      3  C   UNL     1       0.058  10.073  18.572  0.00  0.00    +0.000 C 
ATOM      4  C   UNL     1      -0.827  10.351  19.773  0.00  0.00    +0.000 C 
ATOM      5  N   UNL     1      -0.014  10.695  20.946  0.00  0.00    +0.000 N 
ATOM      6  C   UNL     1       0.303   9.517  21.797  0.00  0.00    +0.000 C 
ATOM      7  C   UNL     1       1.441   8.619  21.243  0.00  0.00    +0.000 C 
ENDROOT
BRANCH   5   8
ATOM      8  C   UNL     1      -0.195  11.912  21.619  0.00  0.00    +0.000 A 
ATOM      9  C   UNL     1      -1.147  12.067  22.638  0.00  0.00    +0.000 A 
ATOM     10  C   UNL     1      -1.306  13.290  23.272  0.00  0.00    +0.000 A 
ATOM     11  N   UNL     1      -0.584  14.397  23.029  0.00  0.00    +0.000 NA
ATOM     12  C   UNL     1       0.337  14.240  22.058  0.00  0.00    +0.000 A 
ATOM     13  S   UNL     1       1.381  15.533  21.645  0.00  0.00    +0.000 S 
ATOM     14  C   UNL     1       2.143  14.632  20.413  0.00  0.00    +0.000 A 
ATOM     15  C   UNL     1       1.555  13.390  20.308  0.00  0.00    +0.000 A 
ATOM     16  C   UNL     1       0.567  13.089  21.309  0.00  0.00    +0.000 A 
BRANCH  14  17
ATOM     17  C   UNL     1       3.223  15.139  19.584  0.00  0.00    +0.000 C 
ATOM     18  N   UNL     1       3.067  16.365  19.007  0.00  0.00    +0.000 N 
ATOM     19  O   UNL     1       4.276  14.530  19.356  0.00  0.00    +0.000 OA
ATOM     20  H   UNL     1       2.208  16.896  19.091  0.00  0.00    +0.000 HD
ATOM     21  H   UNL     1       3.811  16.682  18.403  0.00  0.00    +0.000 HD
ENDBRANCH  14  17
BRANCH  15  22
ATOM     22  N   UNL     1       1.886  12.530  19.331  0.00  0.00    +0.000 N 
ATOM     23  H   UNL     1       2.755  11.994  19.330  0.00  0.00    +0.000 HD
ATOM     24  H   UNL     1       1.390  12.580  18.453  0.00  0.00    +0.000 HD
ENDBRANCH  15  22
ENDBRANCH   5   8
BRANCH   1  28
ATOM     25  C   UNL     1       3.654   4.983  18.608  0.00  0.00    +0.000 A 
ATOM     26  C   UNL     1       3.662   6.112  17.794  0.00  0.00    +0.000 A 
ATOM     27  C   UNL     1       2.978   7.266  18.191  0.00  0.00    +0.000 A 
ATOM     28  C   UNL     1       2.228   7.300  19.378  0.00  0.00    +0.000 A 
ATOM     29  C   UNL     1       2.235   6.148  20.179  0.00  0.00    +0.000 A 
ATOM     30  C   UNL     1       2.942   5.002  19.809  0.00  0.00    +0.000 A 
BRANCH  25  32
ATOM     31  N   UNL     1       5.275   3.262  19.145  0.00  0.00    +0.000 N 
ATOM     32  C   UNL     1       4.382   3.746  18.231  0.00  0.00    +0.000 C 
ATOM     33  O   UNL     1       4.170   3.163  17.181  0.00  0.00    +0.000 OA
ATOM     34  H   UNL     1       5.688   2.365  18.933  0.00  0.00    +0.000 HD
ATOM     35  H   UNL     1       5.270   3.564  20.106  0.00  0.00    +0.000 HD
ENDBRANCH  25  32
ENDBRANCH   1  28
TORSDOF 5
ENDMDL
MODEL 5
REMARK VINA RESULT:      -7.1      2.940      4.367
REMARK  Name = 
REMARK  5 active torsions:
REMARK  status: ('A' for Active; 'I' for Inactive)
REMARK    1  A    between atoms: C_2  and  C_4
REMARK    2  A    between atoms: C_7  and  N_8
REMARK    3  A    between atoms: N_12  and  C_13
REMARK    4  A    between atoms: C_19  and  C_20
REMARK    5  A    between atoms: C_23  and  N_24
REMARK                            x       y       z     vdW  Elec       q    Type
REMARK                         _______ _______ _______ _____ _____    ______ ____
ROOT
ATOM      1  N   UNL     1       1.418   8.406  19.905  0.00  0.00    +0.000 N 
ATOM      2  C   UNL     1       1.479   9.390  18.810  0.00  0.00    +0.000 C 
ATOM      3  C   UNL     1       0.131  10.042  18.562  0.00  0.00    +0.000 C 
ATOM      4  C   UNL     1      -0.526  10.674  19.776  0.00  0.00    +0.000 C 
ATOM      5  N   UNL     1       0.486  11.087  20.756  0.00  0.00    +0.000 N 
ATOM      6  C   UNL     1       0.754  10.047  21.784  0.00  0.00    +0.000 C 
ATOM      7  C   UNL     1       1.665   8.889  21.297  0.00  0.00    +0.000 C 
ENDROOT
BRANCH   5   8
ATOM      8  C   UNL     1       0.575  12.419  21.185  0.00  0.00    +0.000 A 
ATOM      9  C   UNL     1       1.612  13.270  20.770  0.00  0.00    +0.000 A 
ATOM     10  C   UNL     1       1.673  14.578  21.227  0.00  0.00    +0.000 A 
ATOM     11  N   UNL     1       0.779  15.166  22.040  0.00  0.00    +0.000 NA
ATOM     12  C   UNL     1      -0.221  14.348  22.426  0.00  0.00    +0.000 A 
ATOM     13  S   UNL     1      -1.476  14.940  23.428  0.00  0.00    +0.000 S 
ATOM     14  C   UNL     1      -2.247  13.420  23.498  0.00  0.00    +0.000 A 
ATOM     15  C   UNL     1      -1.509  12.487  22.804  0.00  0.00    +0.000 A 
ATOM     16  C   UNL     1      -0.376  13.007  22.087  0.00  0.00    +0.000 A 
BRANCH  14  17
ATOM     17  C   UNL     1      -3.479  13.165  24.226  0.00  0.00    +0.000 C 
ATOM     18  N   UNL     1      -4.023  14.189  24.943  0.00  0.00    +0.000 N 
ATOM     19  O   UNL     1      -4.067  12.076  24.248  0.00  0.00    +0.000 OA
ATOM     20  H   UNL     1      -3.567  15.090  25.030  0.00  0.00    +0.000 HD
ATOM     21  H   UNL     1      -4.856  13.981  25.474  0.00  0.00    +0.000 HD
ENDBRANCH  14  17
BRANCH  15  22
ATOM     22  N   UNL     1      -1.831  11.183  22.806  0.00  0.00    +0.000 N 
ATOM     23  H   UNL     1      -1.488  10.521  22.109  0.00  0.00    +0.000 HD
ATOM     24  H   UNL     1      -2.619  10.880  23.360  0.00  0.00    +0.000 HD
ENDBRANCH  15  22
ENDBRANCH   5   8
BRANCH   1  28
ATOM     25  C   UNL     1       3.312   4.698  19.149  0.00  0.00    +0.000 A 
ATOM     26  C   UNL     1       2.556   4.857  20.306  0.00  0.00    +0.000 A 
ATOM     27  C   UNL     1       1.879   6.058  20.542  0.00  0.00    +0.000 A 
ATOM     28  C   UNL     1       1.987   7.144  19.658  0.00  0.00    +0.000 A 
ATOM     29  C   UNL     1       2.758   6.959  18.500  0.00  0.00    +0.000 A 
ATOM     30  C   UNL     1       3.410   5.753  18.238  0.00  0.00    +0.000 A 
BRANCH  25  32
ATOM     31  N   UNL     1       5.348   3.382  19.214  0.00  0.00    +0.000 N 
ATOM     32  C   UNL     1       4.031   3.433  18.854  0.00  0.00    +0.000 C 
ATOM     33  O   UNL     1       3.471   2.471  18.355  0.00  0.00    +0.000 OA
ATOM     34  H   UNL     1       5.804   2.487  19.111  0.00  0.00    +0.000 HD
ATOM     35  H   UNL     1       5.751   4.046  19.856  0.00  0.00    +0.000 HD
ENDBRANCH  25  32
ENDBRANCH   1  28
TORSDOF 5
ENDMDL
MODEL 6
REMARK VINA RESULT:      -7.1      4.092      8.754
REMARK  Name = 
REMARK  5 active torsions:
REMARK  status: ('A' for Active; 'I' for Inactive)
REMARK    1  A    between atoms: C_2  and  C_4
REMARK    2  A    between atoms: C_7  and  N_8
REMARK    3  A    between atoms: N_12  and  C_13
REMARK    4  A    between atoms: C_19  and  C_20
REMARK    5  A    between atoms: C_23  and  N_24
REMARK                            x       y       z     vdW  Elec       q    Type
REMARK                         _______ _______ _______ _____ _____    ______ ____
ROOT
ATOM      1  N   UNL     1       0.983   9.255  20.218  0.00  0.00    +0.000 N 
ATOM      2  C   UNL     1       0.456   9.114  18.849  0.00  0.00    +0.000 C 
ATOM      3  C   UNL     1       1.561   9.179  17.811  0.00  0.00    +0.000 C 
ATOM      4  C   UNL     1       2.711   8.209  18.014  0.00  0.00    +0.000 C 
ATOM      5  N   UNL     1       2.262   7.021  18.750  0.00  0.00    +0.000 N 
ATOM      6  C   UNL     1       2.465   7.140  20.219  0.00  0.00    +0.000 C 
ATOM      7  C   UNL     1       1.404   8.016  20.939  0.00  0.00    +0.000 C 
ENDROOT
BRANCH   5   8
ATOM      8  C   UNL     1       2.410   5.736  18.208  0.00  0.00    +0.000 A 
ATOM      9  C   UNL     1       1.406   4.760  18.318  0.00  0.00    +0.000 A 
ATOM     10  C   UNL     1       1.593   3.497  17.781  0.00  0.00    +0.000 A 
ATOM     11  N   UNL     1       2.675   3.090  17.095  0.00  0.00    +0.000 NA
ATOM     12  C   UNL     1       3.630   4.034  16.981  0.00  0.00    +0.000 A 
ATOM     13  S   UNL     1       5.061   3.708  16.100  0.00  0.00    +0.000 S 
ATOM     14  C   UNL     1       5.718   5.245  16.440  0.00  0.00    +0.000 A 
ATOM     15  C   UNL     1       4.861   5.952  17.255  0.00  0.00    +0.000 A 
ATOM     16  C   UNL     1       3.595   5.320  17.514  0.00  0.00    +0.000 A 
BRANCH  14  17
ATOM     17  C   UNL     1       7.012   5.701  15.960  0.00  0.00    +0.000 C 
ATOM     18  N   UNL     1       7.490   5.167  14.800  0.00  0.00    +0.000 N 
ATOM     19  O   UNL     1       7.718   6.537  16.539  0.00  0.00    +0.000 OA
ATOM     20  H   UNL     1       7.003   4.430  14.304  0.00  0.00    +0.000 HD
ATOM     21  H   UNL     1       8.408   5.467  14.505  0.00  0.00    +0.000 HD
ENDBRANCH  14  17
BRANCH  15  22
ATOM     22  N   UNL     1       5.197   7.145  17.772  0.00  0.00    +0.000 N 
ATOM     23  H   UNL     1       4.569   7.697  18.357  0.00  0.00    +0.000 HD
ATOM     24  H   UNL     1       5.994   7.632  17.388  0.00  0.00    +0.000 HD
ENDBRANCH  15  22
ENDBRANCH   5   8
BRANCH   1  28
ATOM     25  C   UNL     1      -1.085  12.087  22.587  0.00  0.00    +0.000 A 
ATOM     26  C   UNL     1      -1.055  10.754  22.984  0.00  0.00    +0.000 A 
ATOM     27  C   UNL     1      -0.329   9.817  22.241  0.00  0.00    +0.000 A 
ATOM     28  C   UNL     1       0.335  10.178  21.058  0.00  0.00    +0.000 A 
ATOM     29  C   UNL     1       0.287  11.528  20.677  0.00  0.00    +0.000 A 
ATOM     30  C   UNL     1      -0.405  12.478  21.430  0.00  0.00    +0.000 A 
BRANCH  25  32
ATOM     31  N   UNL     1      -1.146  14.259  23.663  0.00  0.00    +0.000 N 
ATOM     32  C   UNL     1      -1.828  13.115  23.358  0.00  0.00    +0.000 C 
ATOM     33  O   UNL     1      -2.998  12.971  23.671  0.00  0.00    +0.000 OA
ATOM     34  H   UNL     1      -1.684  14.998  24.092  0.00  0.00    +0.000 HD
ATOM     35  H   UNL     1      -0.290  14.510  23.195  0.00  0.00    +0.000 HD
ENDBRANCH  25  32
ENDBRANCH   1  28
TORSDOF 5
ENDMDL
MODEL 7
REMARK VINA RESULT:      -7.1      2.914      4.215
REMARK  Name = 
REMARK  5 active torsions:
REMARK  status: ('A' for Active; 'I' for Inactive)
REMARK    1  A    between atoms: C_2  and  C_4
REMARK    2  A    between atoms: C_7  and  N_8
REMARK    3  A    between atoms: N_12  and  C_13
REMARK    4  A    between atoms: C_19  and  C_20
REMARK    5  A    between atoms: C_23  and  N_24
REMARK                            x       y       z     vdW  Elec       q    Type
REMARK                         _______ _______ _______ _____ _____    ______ ____
ROOT
ATOM      1  N   UNL     1       1.636   8.121  19.892  0.00  0.00    +0.000 N 
ATOM      2  C   UNL     1       1.775   9.074  18.777  0.00  0.00    +0.000 C 
ATOM      3  C   UNL     1       0.455   9.743  18.440  0.00  0.00    +0.000 C 
ATOM      4  C   UNL     1      -0.254  10.418  19.599  0.00  0.00    +0.000 C 
ATOM      5  N   UNL     1       0.711  10.840  20.622  0.00  0.00    +0.000 N 
ATOM      6  C   UNL     1       0.903   9.824  21.690  0.00  0.00    +0.000 C 
ATOM      7  C   UNL     1       1.818   8.637  21.283  0.00  0.00    +0.000 C 
ENDROOT
BRANCH   5   8
ATOM      8  C   UNL     1       0.801  12.181  21.021  0.00  0.00    +0.000 A 
ATOM      9  C   UNL     1       1.846  13.018  20.596  0.00  0.00    +0.000 A 
ATOM     10  C   UNL     1       1.909  14.335  21.022  0.00  0.00    +0.000 A 
ATOM     11  N   UNL     1       1.010  14.946  21.814  0.00  0.00    +0.000 NA
ATOM     12  C   UNL     1       0.003  14.142  22.209  0.00  0.00    +0.000 A 
ATOM     13  S   UNL     1      -1.260  14.762  23.185  0.00  0.00    +0.000 S 
ATOM     14  C   UNL     1      -2.038  13.247  23.283  0.00  0.00    +0.000 A 
ATOM     15  C   UNL     1      -1.297  12.295  22.617  0.00  0.00    +0.000 A 
ATOM     16  C   UNL     1      -0.155  12.794  21.900  0.00  0.00    +0.000 A 
BRANCH  14  17
ATOM     17  C   UNL     1      -3.278  13.015  24.004  0.00  0.00    +0.000 C 
ATOM     18  N   UNL     1      -3.805  14.048  24.722  0.00  0.00    +0.000 N 
ATOM     19  O   UNL     1      -3.887  11.938  24.021  0.00  0.00    +0.000 OA
ATOM     20  H   UNL     1      -3.332  14.940  24.813  0.00  0.00    +0.000 HD
ATOM     21  H   UNL     1      -4.644  13.855  25.248  0.00  0.00    +0.000 HD
ENDBRANCH  14  17
BRANCH  15  22
ATOM     22  N   UNL     1      -1.625  10.993  22.647  0.00  0.00    +0.000 N 
ATOM     23  H   UNL     1      -1.434  10.351  21.877  0.00  0.00    +0.000 HD
ATOM     24  H   UNL     1      -2.290  10.677  23.338  0.00  0.00    +0.000 HD
ENDBRANCH  15  22
ENDBRANCH   5   8
BRANCH   1  28
ATOM     25  C   UNL     1       3.126   4.199  19.341  0.00  0.00    +0.000 A 
ATOM     26  C   UNL     1       3.475   5.197  18.436  0.00  0.00    +0.000 A 
ATOM     27  C   UNL     1       3.036   6.509  18.637  0.00  0.00    +0.000 A 
ATOM     28  C   UNL     1       2.194   6.843  19.710  0.00  0.00    +0.000 A 
ATOM     29  C   UNL     1       1.854   5.818  20.607  0.00  0.00    +0.000 A 
ATOM     30  C   UNL     1       2.316   4.511  20.435  0.00  0.00    +0.000 A 
BRANCH  25  32
ATOM     31  N   UNL     1       4.853   2.518  19.604  0.00  0.00    +0.000 N 
ATOM     32  C   UNL     1       3.587   2.797  19.173  0.00  0.00    +0.000 C 
ATOM     33  O   UNL     1       2.866   1.928  18.714  0.00  0.00    +0.000 OA
ATOM     34  H   UNL     1       5.124   1.545  19.588  0.00  0.00    +0.000 HD
ATOM     35  H   UNL     1       5.356   3.138  20.218  0.00  0.00    +0.000 HD
ENDBRANCH  25  32
ENDBRANCH   1  28
TORSDOF 5
ENDMDL
MODEL 8
REMARK VINA RESULT:      -7.1      0.994      1.334
REMARK  Name = 
REMARK  5 active torsions:
REMARK  status: ('A' for Active; 'I' for Inactive)
REMARK    1  A    between atoms: C_2  and  C_4
REMARK    2  A    between atoms: C_7  and  N_8
REMARK    3  A    between atoms: N_12  and  C_13
REMARK    4  A    between atoms: C_19  and  C_20
REMARK    5  A    between atoms: C_23  and  N_24
REMARK                            x       y       z     vdW  Elec       q    Type
REMARK                         _______ _______ _______ _____ _____    ______ ____
ROOT
ATOM      1  N   UNL     1       1.485   8.433  19.629  0.00  0.00    +0.000 N 
ATOM      2  C   UNL     1       1.475   9.459  18.571  0.00  0.00    +0.000 C 
ATOM      3  C   UNL     1       0.083  10.017  18.339  0.00  0.00    +0.000 C 
ATOM      4  C   UNL     1      -0.624  10.552  19.571  0.00  0.00    +0.000 C 
ATOM      5  N   UNL     1       0.350  11.003  20.572  0.00  0.00    +0.000 N 
ATOM      6  C   UNL     1       0.692   9.948  21.564  0.00  0.00    +0.000 C 
ATOM      7  C   UNL     1       1.690   8.881  21.040  0.00  0.00    +0.000 C 
ENDROOT
BRANCH   5   8
ATOM      8  C   UNL     1       0.336  12.321  21.052  0.00  0.00    +0.000 A 
ATOM      9  C   UNL     1      -0.531  12.732  22.077  0.00  0.00    +0.000 A 
ATOM     10  C   UNL     1      -0.525  14.047  22.516  0.00  0.00    +0.000 A 
ATOM     11  N   UNL     1       0.289  15.019  22.069  0.00  0.00    +0.000 NA
ATOM     12  C   UNL     1       1.127  14.615  21.094  0.00  0.00    +0.000 A 
ATOM     13  S   UNL     1       2.269  15.708  20.435  0.00  0.00    +0.000 S 
ATOM     14  C   UNL     1       2.857  14.552  19.326  0.00  0.00    +0.000 A 
ATOM     15  C   UNL     1       2.142  13.381  19.446  0.00  0.00    +0.000 A 
ATOM     16  C   UNL     1       1.192  13.346  20.526  0.00  0.00    +0.000 A 
BRANCH  14  17
ATOM     17  C   UNL     1       3.929  14.806  18.379  0.00  0.00    +0.000 C 
ATOM     18  N   UNL     1       3.597  15.285  17.147  0.00  0.00    +0.000 N 
ATOM     19  O   UNL     1       5.129  14.607  18.610  0.00  0.00    +0.000 OA
ATOM     20  H   UNL     1       2.633  15.410  16.858  0.00  0.00    +0.000 HD
ATOM     21  H   UNL     1       4.351  15.416  16.490  0.00  0.00    +0.000 HD
ENDBRANCH  14  17
BRANCH  15  22
ATOM     22  N   UNL     1       2.322  12.351  18.603  0.00  0.00    +0.000 N 
ATOM     23  H   UNL     1       2.511  12.470  17.607  0.00  0.00    +0.000 HD
ATOM     24  H   UNL     1       2.031  11.429  18.895  0.00  0.00    +0.000 HD
ENDBRANCH  15  22
ENDBRANCH   5   8
BRANCH   1  28
ATOM     25  C   UNL     1       3.656   4.910  18.746  0.00  0.00    +0.000 A 
ATOM     26  C   UNL     1       2.902   4.974  19.914  0.00  0.00    +0.000 A 
ATOM     27  C   UNL     1       2.135   6.111  20.191  0.00  0.00    +0.000 A 
ATOM     28  C   UNL     1       2.148   7.227  19.340  0.00  0.00    +0.000 A 
ATOM     29  C   UNL     1       2.919   7.138  18.170  0.00  0.00    +0.000 A 
ATOM     30  C   UNL     1       3.660   5.995  17.866  0.00  0.00    +0.000 A 
BRANCH  25  32
ATOM     31  N   UNL     1       5.779   3.740  18.791  0.00  0.00    +0.000 N 
ATOM     32  C   UNL     1       4.468   3.714  18.407  0.00  0.00    +0.000 C 
ATOM     33  O   UNL     1       3.988   2.740  17.852  0.00  0.00    +0.000 OA
ATOM     34  H   UNL     1       6.300   2.885  18.655  0.00  0.00    +0.000 HD
ATOM     35  H   UNL     1       6.122   4.398  19.471  0.00  0.00    +0.000 HD
ENDBRANCH  25  32
ENDBRANCH   1  28
TORSDOF 5
ENDMDL
MODEL 9
REMARK VINA RESULT:      -7.0      4.102      8.748
REMARK  Name = 
REMARK  5 active torsions:
REMARK  status: ('A' for Active; 'I' for Inactive)
REMARK    1  A    between atoms: C_2  and  C_4
REMARK    2  A    between atoms: C_7  and  N_8
REMARK    3  A    between atoms: N_12  and  C_13
REMARK    4  A    between atoms: C_19  and  C_20
REMARK    5  A    between atoms: C_23  and  N_24
REMARK                            x       y       z     vdW  Elec       q    Type
REMARK                         _______ _______ _______ _____ _____    ______ ____
ROOT
ATOM      1  N   UNL     1       0.923   9.239  20.108  0.00  0.00    +0.000 N 
ATOM      2  C   UNL     1       0.542   9.102  18.691  0.00  0.00    +0.000 C 
ATOM      3  C   UNL     1       1.753   9.122  17.777  0.00  0.00    +0.000 C 
ATOM      4  C   UNL     1       2.842   8.118  18.107  0.00  0.00    +0.000 C 
ATOM      5  N   UNL     1       2.279   6.952  18.798  0.00  0.00    +0.000 N 
ATOM      6  C   UNL     1       2.327   7.078  20.279  0.00  0.00    +0.000 C 
ATOM      7  C   UNL     1       1.225   7.993  20.877  0.00  0.00    +0.000 C 
ENDROOT
BRANCH   5   8
ATOM      8  C   UNL     1       2.442   5.658  18.282  0.00  0.00    +0.000 A 
ATOM      9  C   UNL     1       1.458   4.667  18.430  0.00  0.00    +0.000 A 
ATOM     10  C   UNL     1       1.660   3.395  17.917  0.00  0.00    +0.000 A 
ATOM     11  N   UNL     1       2.739   2.992  17.224  0.00  0.00    +0.000 NA
ATOM     12  C   UNL     1       3.675   3.951  17.075  0.00  0.00    +0.000 A 
ATOM     13  S   UNL     1       5.098   3.631  16.179  0.00  0.00    +0.000 S 
ATOM     14  C   UNL     1       5.731   5.187  16.475  0.00  0.00    +0.000 A 
ATOM     15  C   UNL     1       4.874   5.896  17.287  0.00  0.00    +0.000 A 
ATOM     16  C   UNL     1       3.624   5.247  17.579  0.00  0.00    +0.000 A 
BRANCH  14  17
ATOM     17  C   UNL     1       7.009   5.655  15.965  0.00  0.00    +0.000 C 
ATOM     18  N   UNL     1       7.458   5.137  14.786  0.00  0.00    +0.000 N 
ATOM     19  O   UNL     1       7.727   6.488  16.533  0.00  0.00    +0.000 OA
ATOM     20  H   UNL     1       6.962   4.403  14.295  0.00  0.00    +0.000 HD
ATOM     21  H   UNL     1       8.366   5.445  14.470  0.00  0.00    +0.000 HD
ENDBRANCH  14  17
BRANCH  15  22
ATOM     22  N   UNL     1       5.196   7.106  17.772  0.00  0.00    +0.000 N 
ATOM     23  H   UNL     1       4.549   7.896  17.778  0.00  0.00    +0.000 HD
ATOM     24  H   UNL     1       6.170   7.326  17.918  0.00  0.00    +0.000 HD
ENDBRANCH  15  22
ENDBRANCH   5   8
BRANCH   1  28
ATOM     25  C   UNL     1      -1.054  12.082  22.539  0.00  0.00    +0.000 A 
ATOM     26  C   UNL     1      -0.678  12.431  21.246  0.00  0.00    +0.000 A 
ATOM     27  C   UNL     1      -0.074  11.485  20.412  0.00  0.00    +0.000 A 
ATOM     28  C   UNL     1       0.219  10.189  20.868  0.00  0.00    +0.000 A 
ATOM     29  C   UNL     1      -0.168   9.863  22.177  0.00  0.00    +0.000 A 
ATOM     30  C   UNL     1      -0.803  10.789  23.006  0.00  0.00    +0.000 A 
BRANCH  25  32
ATOM     31  N   UNL     1      -3.015  12.792  23.776  0.00  0.00    +0.000 N 
ATOM     32  C   UNL     1      -1.714  13.052  23.449  0.00  0.00    +0.000 C 
ATOM     33  O   UNL     1      -1.122  14.010  23.916  0.00  0.00    +0.000 OA
ATOM     34  H   UNL     1      -3.427  13.391  24.477  0.00  0.00    +0.000 HD
ATOM     35  H   UNL     1      -3.432  11.887  23.626  0.00  0.00    +0.000 HD
ENDBRANCH  25  32
ENDBRANCH   1  28
TORSDOF 5
ENDMDL
