MODEL 1
REMARK VINA RESULT:      -8.3      0.000      0.000
REMARK  Name = 
REMARK  7 active torsions:
REMARK  status: ('A' for Active; 'I' for Inactive)
REMARK    1  A    between atoms: C_1  and  O_2
REMARK    2  A    between atoms: O_2  and  C_3
REMARK    3  A    between atoms: C_3  and  C_5
REMARK    4  A    between atoms: C_5  and  C_6
REMARK    5  A    between atoms: C_7  and  C_8
REMARK    6  A    between atoms: C_12  and  O_13
REMARK    7  A    between atoms: O_13  and  C_14
REMARK                            x       y       z     vdW  Elec       q    Type
REMARK                         _______ _______ _______ _____ _____    ______ ____
ROOT
ATOM      1  C   UNL     1       4.783   5.084  17.729  0.00  0.00    +0.000 A 
ATOM      2  C   UNL     1       4.335   6.292  17.326  0.00  0.00    +0.000 A 
ATOM      3  C   UNL     1       4.778   6.947  16.041  0.00  0.00    +0.000 C 
ATOM      4  C   UNL     1       3.365   7.016  18.180  0.00  0.00    +0.000 A 
ATOM      5  C   UNL     1       2.724   8.215  17.837  0.00  0.00    +0.000 A 
ATOM      6  C   UNL     1       1.753   8.793  18.688  0.00  0.00    +0.000 A 
ATOM      7  C   UNL     1       1.415   8.198  19.909  0.00  0.00    +0.000 A 
ATOM      8  C   UNL     1       2.045   7.007  20.247  0.00  0.00    +0.000 A 
ATOM      9  C   UNL     1       3.005   6.447  19.397  0.00  0.00    +0.000 A 
ATOM     10  O   UNL     1       3.570   5.245  19.848  0.00  0.00    +0.000 OA
ATOM     11  C   UNL     1       4.437   4.524  19.062  0.00  0.00    +0.000 A 
ATOM     12  O   UNL     1       4.901   3.451  19.447  0.00  0.00    +0.000 OA
ENDROOT
BRANCH   1  13
ATOM     13  C   UNL     1       5.661   4.153  16.925  0.00  0.00    +0.000 C 
BRANCH  13  14
ATOM     14  C   UNL     1       7.123   4.515  17.067  0.00  0.00    +0.000 C 
ATOM     15  O   UNL     1       7.750   4.573  18.114  0.00  0.00    +0.000 OA
BRANCH  14  17
ATOM     16  C   UNL     1       6.864   4.322  14.747  0.00  0.00    +0.000 C 
ATOM     17  O   UNL     1       7.625   4.839  15.838  0.00  0.00    +0.000 OA
ENDBRANCH  14  17
ENDBRANCH  13  14
ENDBRANCH   1  13
BRANCH   7  18
ATOM     18  O   UNL     1       0.454   8.812  20.674  0.00  0.00    +0.000 OA
BRANCH  18  19
ATOM     19  C   UNL     1       0.901   9.910  21.482  0.00  0.00    +0.000 C 
ATOM     20  C   UNL     1       0.680  11.226  20.732  0.00  0.00    +0.000 C 
ATOM     21  C   UNL     1      -0.762  11.715  20.741  0.00  0.00    +0.000 C 
ATOM     22  C   UNL     1      -1.303  11.870  22.154  0.00  0.00    +0.000 C 
ATOM     23  C   UNL     1      -1.094  10.649  23.033  0.00  0.00    +0.000 C 
ATOM     24  C   UNL     1       0.254   9.978  22.872  0.00  0.00    +0.000 C 
ATOM     25  O   UNL     1       0.769   9.409  23.841  0.00  0.00    +0.000 OA
ENDBRANCH  18  19
ENDBRANCH   7  18
TORSDOF 5
ENDMDL
MODEL 2
REMARK VINA RESULT:      -8.1      0.674      1.204
REMARK  Name = 
REMARK  7 active torsions:
REMARK  status: ('A' for Active; 'I' for Inactive)
REMARK    1  A    between atoms: C_1  and  O_2
REMARK    2  A    between atoms: O_2  and  C_3
REMARK    3  A    between atoms: C_3  and  C_5
REMARK    4  A    between atoms: C_5  and  C_6
REMARK    5  A    between atoms: C_7  and  C_8
REMARK    6  A    between atoms: C_12  and  O_13
REMARK    7  A    between atoms: O_13  and  C_14
REMARK                            x       y       z     vdW  Elec       q    Type
REMARK                         _______ _______ _______ _____ _____    ______ ____
ROOT
ATOM      1  C   UNL     1       4.504   5.157  17.963  0.00  0.00    +0.000 A 
ATOM      2  C   UNL     1       4.163   6.368  17.473  0.00  0.00    +0.000 A 
ATOM      3  C   UNL     1       4.725   6.924  16.188  0.00  0.00    +0.000 C 
ATOM      4  C   UNL     1       3.193   7.196  18.227  0.00  0.00    +0.000 A 
ATOM      5  C   UNL     1       2.655   8.414  17.786  0.00  0.00    +0.000 A 
ATOM      6  C   UNL     1       1.674   9.097  18.544  0.00  0.00    +0.000 A 
ATOM      7  C   UNL     1       1.225   8.589  19.769  0.00  0.00    +0.000 A 
ATOM      8  C   UNL     1       1.754   7.381  20.204  0.00  0.00    +0.000 A 
ATOM      9  C   UNL     1       2.723   6.717  19.445  0.00  0.00    +0.000 A 
ATOM     10  O   UNL     1       3.179   5.507  19.990  0.00  0.00    +0.000 OA
ATOM     11  C   UNL     1       4.042   4.692  19.297  0.00  0.00    +0.000 A 
ATOM     12  O   UNL     1       4.410   3.614  19.763  0.00  0.00    +0.000 OA
ENDROOT
BRANCH   1  13
ATOM     13  C   UNL     1       5.364   4.131  17.262  0.00  0.00    +0.000 C 
BRANCH  13  14
ATOM     14  C   UNL     1       6.830   4.502  17.331  0.00  0.00    +0.000 C 
ATOM     15  O   UNL     1       7.572   4.679  16.376  0.00  0.00    +0.000 OA
BRANCH  14  17
ATOM     16  C   UNL     1       7.836   5.771  19.023  0.00  0.00    +0.000 C 
ATOM     17  O   UNL     1       7.220   4.542  18.640  0.00  0.00    +0.000 OA
ENDBRANCH  14  17
ENDBRANCH  13  14
ENDBRANCH   1  13
BRANCH   7  18
ATOM     18  O   UNL     1       0.262   9.303  20.441  0.00  0.00    +0.000 OA
BRANCH  18  19
ATOM     19  C   UNL     1       0.742  10.284  21.371  0.00  0.00    +0.000 C 
ATOM     20  C   UNL     1       0.602  11.682  20.765  0.00  0.00    +0.000 C 
ATOM     21  C   UNL     1      -0.816  12.238  20.802  0.00  0.00    +0.000 C 
ATOM     22  C   UNL     1      -1.381  12.266  22.214  0.00  0.00    +0.000 C 
ATOM     23  C   UNL     1      -1.249  10.948  22.958  0.00  0.00    +0.000 C 
ATOM     24  C   UNL     1       0.068  10.233  22.748  0.00  0.00    +0.000 C 
ATOM     25  O   UNL     1       0.534   9.538  23.658  0.00  0.00    +0.000 OA
ENDBRANCH  18  19
ENDBRANCH   7  18
TORSDOF 5
ENDMDL
MODEL 3
REMARK VINA RESULT:      -7.9      1.560      2.667
REMARK  Name = 
REMARK  7 active torsions:
REMARK  status: ('A' for Active; 'I' for Inactive)
REMARK    1  A    between atoms: C_1  and  O_2
REMARK    2  A    between atoms: O_2  and  C_3
REMARK    3  A    between atoms: C_3  and  C_5
REMARK    4  A    between atoms: C_5  and  C_6
REMARK    5  A    between atoms: C_7  and  C_8
REMARK    6  A    between atoms: C_12  and  O_13
REMARK    7  A    between atoms: O_13  and  C_14
REMARK                            x       y       z     vdW  Elec       q    Type
REMARK                         _______ _______ _______ _____ _____    ______ ____
ROOT
ATOM      1  C   UNL     1       4.616   5.003  16.609  0.00  0.00    +0.000 A 
ATOM      2  C   UNL     1       3.850   4.484  17.592  0.00  0.00    +0.000 A 
ATOM      3  C   UNL     1       3.655   3.001  17.788  0.00  0.00    +0.000 C 
ATOM      4  C   UNL     1       3.165   5.408  18.526  0.00  0.00    +0.000 A 
ATOM      5  C   UNL     1       2.439   5.018  19.661  0.00  0.00    +0.000 A 
ATOM      6  C   UNL     1       1.883   5.980  20.538  0.00  0.00    +0.000 A 
ATOM      7  C   UNL     1       2.022   7.351  20.289  0.00  0.00    +0.000 A 
ATOM      8  C   UNL     1       2.745   7.738  19.168  0.00  0.00    +0.000 A 
ATOM      9  C   UNL     1       3.288   6.776  18.309  0.00  0.00    +0.000 A 
ATOM     10  O   UNL     1       3.997   7.291  17.213  0.00  0.00    +0.000 OA
ATOM     11  C   UNL     1       4.682   6.466  16.353  0.00  0.00    +0.000 A 
ATOM     12  O   UNL     1       5.332   6.925  15.415  0.00  0.00    +0.000 OA
ENDROOT
BRANCH   1  13
ATOM     13  C   UNL     1       5.490   4.214  15.660  0.00  0.00    +0.000 C 
BRANCH  13  14
ATOM     14  C   UNL     1       6.958   4.463  15.929  0.00  0.00    +0.000 C 
ATOM     15  O   UNL     1       7.497   4.466  17.025  0.00  0.00    +0.000 OA
BRANCH  14  17
ATOM     16  C   UNL     1       6.826   4.415  13.591  0.00  0.00    +0.000 C 
ATOM     17  O   UNL     1       7.585   4.755  14.750  0.00  0.00    +0.000 OA
ENDBRANCH  14  17
ENDBRANCH  13  14
ENDBRANCH   1  13
BRANCH   7  18
ATOM     18  O   UNL     1       1.464   8.222  21.193  0.00  0.00    +0.000 OA
BRANCH  18  19
ATOM     19  C   UNL     1       0.102   8.598  20.945  0.00  0.00    +0.000 C 
ATOM     20  C   UNL     1      -0.678   8.607  22.262  0.00  0.00    +0.000 C 
ATOM     21  C   UNL     1      -0.424   9.832  23.130  0.00  0.00    +0.000 C 
ATOM     22  C   UNL     1      -0.718  11.127  22.388  0.00  0.00    +0.000 C 
ATOM     23  C   UNL     1      -0.049  11.225  21.027  0.00  0.00    +0.000 C 
ATOM     24  C   UNL     1      -0.062   9.942  20.223  0.00  0.00    +0.000 C 
ATOM     25  O   UNL     1      -0.108   9.998  18.989  0.00  0.00    +0.000 OA
ENDBRANCH  18  19
ENDBRANCH   7  18
TORSDOF 5
ENDMDL
MODEL 4
REMARK VINA RESULT:      -7.9      2.023      8.427
REMARK  Name = 
REMARK  7 active torsions:
REMARK  status: ('A' for Active; 'I' for Inactive)
REMARK    1  A    between atoms: C_1  and  O_2
REMARK    2  A    between atoms: O_2  and  C_3
REMARK    3  A    between atoms: C_3  and  C_5
REMARK    4  A    between atoms: C_5  and  C_6
REMARK    5  A    between atoms: C_7  and  C_8
REMARK    6  A    between atoms: C_12  and  O_13
REMARK    7  A    between atoms: O_13  and  C_14
REMARK                            x       y       z     vdW  Elec       q    Type
REMARK                         _______ _______ _______ _____ _____    ______ ____
ROOT
ATOM      1  C   UNL     1      -0.248  10.863  21.262  0.00  0.00    +0.000 A 
ATOM      2  C   UNL     1      -0.047  10.674  19.940  0.00  0.00    +0.000 A 
ATOM      3  C   UNL     1      -0.640  11.571  18.882  0.00  0.00    +0.000 C 
ATOM      4  C   UNL     1       0.791   9.535  19.501  0.00  0.00    +0.000 A 
ATOM      5  C   UNL     1       1.185   9.284  18.178  0.00  0.00    +0.000 A 
ATOM      6  C   UNL     1       2.052   8.210  17.866  0.00  0.00    +0.000 A 
ATOM      7  C   UNL     1       2.528   7.351  18.863  0.00  0.00    +0.000 A 
ATOM      8  C   UNL     1       2.142   7.602  20.175  0.00  0.00    +0.000 A 
ATOM      9  C   UNL     1       1.284   8.666  20.469  0.00  0.00    +0.000 A 
ATOM     10  O   UNL     1       0.968   8.817  21.828  0.00  0.00    +0.000 OA
ATOM     11  C   UNL     1       0.232   9.888  22.276  0.00  0.00    +0.000 A 
ATOM     12  O   UNL     1      -0.011  10.035  23.473  0.00  0.00    +0.000 OA
ENDROOT
BRANCH   1  13
ATOM     13  C   UNL     1      -0.955  12.043  21.889  0.00  0.00    +0.000 C 
BRANCH  13  14
ATOM     14  C   UNL     1      -0.000  13.192  22.130  0.00  0.00    +0.000 C 
ATOM     15  O   UNL     1       1.094  13.339  21.606  0.00  0.00    +0.000 OA
BRANCH  14  17
ATOM     16  C   UNL     1      -1.811  13.614  23.555  0.00  0.00    +0.000 C 
ATOM     17  O   UNL     1      -0.523  14.014  23.088  0.00  0.00    +0.000 OA
ENDBRANCH  14  17
ENDBRANCH  13  14
ENDBRANCH   1  13
BRANCH   7  18
ATOM     18  O   UNL     1       3.375   6.339  18.483  0.00  0.00    +0.000 OA
BRANCH  18  19
ATOM     19  C   UNL     1       3.265   5.116  19.224  0.00  0.00    +0.000 C 
ATOM     20  C   UNL     1       1.841   4.569  19.110  0.00  0.00    +0.000 C 
ATOM     21  C   UNL     1       1.543   3.877  17.786  0.00  0.00    +0.000 C 
ATOM     22  C   UNL     1       2.517   2.743  17.504  0.00  0.00    +0.000 C 
ATOM     23  C   UNL     1       3.978   3.136  17.643  0.00  0.00    +0.000 C 
ATOM     24  C   UNL     1       4.281   4.038  18.821  0.00  0.00    +0.000 C 
ATOM     25  O   UNL     1       5.380   3.960  19.380  0.00  0.00    +0.000 OA
ENDBRANCH  18  19
ENDBRANCH   7  18
TORSDOF 5
ENDMDL
MODEL 5
REMARK VINA RESULT:      -7.9      2.052      8.549
REMARK  Name = 
REMARK  7 active torsions:
REMARK  status: ('A' for Active; 'I' for Inactive)
REMARK    1  A    between atoms: C_1  and  O_2
REMARK    2  A    between atoms: O_2  and  C_3
REMARK    3  A    between atoms: C_3  and  C_5
REMARK    4  A    between atoms: C_5  and  C_6
REMARK    5  A    between atoms: C_7  and  C_8
REMARK    6  A    between atoms: C_12  and  O_13
REMARK    7  A    between atoms: O_13  and  C_14
REMARK                            x       y       z     vdW  Elec       q    Type
REMARK                         _______ _______ _______ _____ _____    ______ ____
ROOT
ATOM      1  C   UNL     1       0.243  10.841  21.306  0.00  0.00    +0.000 A 
ATOM      2  C   UNL     1       0.462  10.698  19.981  0.00  0.00    +0.000 A 
ATOM      3  C   UNL     1       0.064  11.739  18.964  0.00  0.00    +0.000 C 
ATOM      4  C   UNL     1       1.122   9.464  19.495  0.00  0.00    +0.000 A 
ATOM      5  C   UNL     1       1.522   9.228  18.172  0.00  0.00    +0.000 A 
ATOM      6  C   UNL     1       2.216   8.047  17.817  0.00  0.00    +0.000 A 
ATOM      7  C   UNL     1       2.508   7.066  18.772  0.00  0.00    +0.000 A 
ATOM      8  C   UNL     1       2.117   7.301  20.085  0.00  0.00    +0.000 A 
ATOM      9  C   UNL     1       1.431   8.472  20.421  0.00  0.00    +0.000 A 
ATOM     10  O   UNL     1       1.091   8.594  21.777  0.00  0.00    +0.000 OA
ATOM     11  C   UNL     1       0.520   9.744  22.270  0.00  0.00    +0.000 A 
ATOM     12  O   UNL     1       0.257   9.859  23.466  0.00  0.00    +0.000 OA
ENDROOT
BRANCH   1  13
ATOM     13  C   UNL     1      -0.288  12.082  21.985  0.00  0.00    +0.000 C 
BRANCH  13  14
ATOM     14  C   UNL     1      -1.800  12.075  22.041  0.00  0.00    +0.000 C 
ATOM     15  O   UNL     1      -2.555  12.258  21.097  0.00  0.00    +0.000 OA
BRANCH  14  17
ATOM     16  C   UNL     1      -3.532  12.340  23.595  0.00  0.00    +0.000 C 
ATOM     17  O   UNL     1      -2.199  11.901  23.336  0.00  0.00    +0.000 OA
ENDBRANCH  14  17
ENDBRANCH  13  14
ENDBRANCH   1  13
BRANCH   7  18
ATOM     18  O   UNL     1       3.195   5.953  18.354  0.00  0.00    +0.000 OA
BRANCH  18  19
ATOM     19  C   UNL     1       3.178   4.831  19.248  0.00  0.00    +0.000 C 
ATOM     20  C   UNL     1       1.766   4.244  19.312  0.00  0.00    +0.000 C 
ATOM     21  C   UNL     1       1.393   3.383  18.112  0.00  0.00    +0.000 C 
ATOM     22  C   UNL     1       2.379   2.244  17.899  0.00  0.00    +0.000 C 
ATOM     23  C   UNL     1       3.833   2.683  17.876  0.00  0.00    +0.000 C 
ATOM     24  C   UNL     1       4.194   3.733  18.905  0.00  0.00    +0.000 C 
ATOM     25  O   UNL     1       5.333   3.750  19.383  0.00  0.00    +0.000 OA
ENDBRANCH  18  19
ENDBRANCH   7  18
TORSDOF 5
ENDMDL
MODEL 6
REMARK VINA RESULT:      -7.7      1.759      3.123
REMARK  Name = 
REMARK  7 active torsions:
REMARK  status: ('A' for Active; 'I' for Inactive)
REMARK    1  A    between atoms: C_1  and  O_2
REMARK    2  A    between atoms: O_2  and  C_3
REMARK    3  A    between atoms: C_3  and  C_5
REMARK    4  A    between atoms: C_5  and  C_6
REMARK    5  A    between atoms: C_7  and  C_8
REMARK    6  A    between atoms: C_12  and  O_13
REMARK    7  A    between atoms: O_13  and  C_14
REMARK                            x       y       z     vdW  Elec       q    Type
REMARK                         _______ _______ _______ _____ _____    ______ ____
ROOT
ATOM      1  C   UNL     1       4.673   5.242  17.352  0.00  0.00    +0.000 A 
ATOM      2  C   UNL     1       3.848   5.263  18.421  0.00  0.00    +0.000 A 
ATOM      3  C   UNL     1       3.678   4.089  19.352  0.00  0.00    +0.000 C 
ATOM      4  C   UNL     1       3.069   6.492  18.698  0.00  0.00    +0.000 A 
ATOM      5  C   UNL     1       2.269   6.704  19.830  0.00  0.00    +0.000 A 
ATOM      6  C   UNL     1       1.622   7.944  20.045  0.00  0.00    +0.000 A 
ATOM      7  C   UNL     1       1.743   8.992  19.125  0.00  0.00    +0.000 A 
ATOM      8  C   UNL     1       2.539   8.785  18.005  0.00  0.00    +0.000 A 
ATOM      9  C   UNL     1       3.172   7.553  17.804  0.00  0.00    +0.000 A 
ATOM     10  O   UNL     1       3.948   7.467  16.639  0.00  0.00    +0.000 OA
ATOM     11  C   UNL     1       4.720   6.361  16.374  0.00  0.00    +0.000 A 
ATOM     12  O   UNL     1       5.427   6.305  15.369  0.00  0.00    +0.000 OA
ENDROOT
BRANCH   1  13
ATOM     13  C   UNL     1       5.638   4.132  17.002  0.00  0.00    +0.000 C 
BRANCH  13  14
ATOM     14  C   UNL     1       7.051   4.480  17.416  0.00  0.00    +0.000 C 
ATOM     15  O   UNL     1       8.021   4.546  16.676  0.00  0.00    +0.000 OA
BRANCH  14  17
ATOM     16  C   UNL     1       7.797   5.808  19.195  0.00  0.00    +0.000 C 
ATOM     17  O   UNL     1       7.092   4.641  18.773  0.00  0.00    +0.000 OA
ENDBRANCH  14  17
ENDBRANCH  13  14
ENDBRANCH   1  13
BRANCH   7  18
ATOM     18  O   UNL     1       1.094  10.169  19.409  0.00  0.00    +0.000 OA
BRANCH  18  19
ATOM     19  C   UNL     1      -0.328  10.080  19.569  0.00  0.00    +0.000 C 
ATOM     20  C   UNL     1      -0.748  10.788  20.859  0.00  0.00    +0.000 C 
ATOM     21  C   UNL     1      -0.783  12.307  20.754  0.00  0.00    +0.000 C 
ATOM     22  C   UNL     1      -1.692  12.780  19.628  0.00  0.00    +0.000 C 
ATOM     23  C   UNL     1      -1.422  12.107  18.294  0.00  0.00    +0.000 C 
ATOM     24  C   UNL     1      -1.134  10.623  18.381  0.00  0.00    +0.000 C 
ATOM     25  O   UNL     1      -1.465   9.884  17.448  0.00  0.00    +0.000 OA
ENDBRANCH  18  19
ENDBRANCH   7  18
TORSDOF 5
ENDMDL
MODEL 7
REMARK VINA RESULT:      -7.7      1.084      1.198
REMARK  Name = 
REMARK  7 active torsions:
REMARK  status: ('A' for Active; 'I' for Inactive)
REMARK    1  A    between atoms: C_1  and  O_2
REMARK    2  A    between atoms: O_2  and  C_3
REMARK    3  A    between atoms: C_3  and  C_5
REMARK    4  A    between atoms: C_5  and  C_6
REMARK    5  A    between atoms: C_7  and  C_8
REMARK    6  A    between atoms: C_12  and  O_13
REMARK    7  A    between atoms: O_13  and  C_14
REMARK                            x       y       z     vdW  Elec       q    Type
REMARK                         _______ _______ _______ _____ _____    ______ ____
ROOT
ATOM      1  C   UNL     1       3.813   5.411  18.310  0.00  0.00    +0.000 A 
ATOM      2  C   UNL     1       3.659   6.625  17.739  0.00  0.00    +0.000 A 
ATOM      3  C   UNL     1       4.368   7.033  16.471  0.00  0.00    +0.000 C 
ATOM      4  C   UNL     1       2.756   7.607  18.382  0.00  0.00    +0.000 A 
ATOM      5  C   UNL     1       2.405   8.854  17.845  0.00  0.00    +0.000 A 
ATOM      6  C   UNL     1       1.473   9.694  18.499  0.00  0.00    +0.000 A 
ATOM      7  C   UNL     1       0.886   9.316  19.712  0.00  0.00    +0.000 A 
ATOM      8  C   UNL     1       1.229   8.079  20.243  0.00  0.00    +0.000 A 
ATOM      9  C   UNL     1       2.153   7.259  19.586  0.00  0.00    +0.000 A 
ATOM     10  O   UNL     1       2.417   6.035  20.220  0.00  0.00    +0.000 OA
ATOM     11  C   UNL     1       3.213   5.082  19.630  0.00  0.00    +0.000 A 
ATOM     12  O   UNL     1       3.411   3.996  20.172  0.00  0.00    +0.000 OA
ENDROOT
BRANCH   1  13
ATOM     13  C   UNL     1       4.580   4.248  17.722  0.00  0.00    +0.000 C 
BRANCH  13  14
ATOM     14  C   UNL     1       6.068   4.395  17.958  0.00  0.00    +0.000 C 
ATOM     15  O   UNL     1       6.616   4.498  19.045  0.00  0.00    +0.000 OA
BRANCH  14  17
ATOM     16  C   UNL     1       6.022   3.796  15.694  0.00  0.00    +0.000 C 
ATOM     17  O   UNL     1       6.707   4.466  16.752  0.00  0.00    +0.000 OA
ENDBRANCH  14  17
ENDBRANCH  13  14
ENDBRANCH   1  13
BRANCH   7  18
ATOM     18  O   UNL     1      -0.019  10.180  20.280  0.00  0.00    +0.000 OA
BRANCH  18  19
ATOM     19  C   UNL     1       0.452  10.936  21.404  0.00  0.00    +0.000 C 
ATOM     20  C   UNL     1       0.234  12.429  21.151  0.00  0.00    +0.000 C 
ATOM     21  C   UNL     1      -1.203  12.892  21.352  0.00  0.00    +0.000 C 
ATOM     22  C   UNL     1      -1.719  12.560  22.745  0.00  0.00    +0.000 C 
ATOM     23  C   UNL     1      -1.508  11.111  23.151  0.00  0.00    +0.000 C 
ATOM     24  C   UNL     1      -0.171  10.529  22.746  0.00  0.00    +0.000 C 
ATOM     25  O   UNL     1       0.354   9.663  23.454  0.00  0.00    +0.000 OA
ENDBRANCH  18  19
ENDBRANCH   7  18
TORSDOF 5
ENDMDL
MODEL 8
REMARK VINA RESULT:      -7.7      2.710      8.607
REMARK  Name = 
REMARK  7 active torsions:
REMARK  status: ('A' for Active; 'I' for Inactive)
REMARK    1  A    between atoms: C_1  and  O_2
REMARK    2  A    between atoms: O_2  and  C_3
REMARK    3  A    between atoms: C_3  and  C_5
REMARK    4  A    between atoms: C_5  and  C_6
REMARK    5  A    between atoms: C_7  and  C_8
REMARK    6  A    between atoms: C_12  and  O_13
REMARK    7  A    between atoms: O_13  and  C_14
REMARK                            x       y       z     vdW  Elec       q    Type
REMARK                         _______ _______ _______ _____ _____    ______ ____
ROOT
ATOM      1  C   UNL     1       0.069  11.138  21.236  0.00  0.00    +0.000 A 
ATOM      2  C   UNL     1       0.487  10.818  19.993  0.00  0.00    +0.000 A 
ATOM      3  C   UNL     1       0.403  11.770  18.826  0.00  0.00    +0.000 C 
ATOM      4  C   UNL     1       1.054   9.470  19.755  0.00  0.00    +0.000 A 
ATOM      5  C   UNL     1       1.636   9.039  18.554  0.00  0.00    +0.000 A 
ATOM      6  C   UNL     1       2.221   7.756  18.446  0.00  0.00    +0.000 A 
ATOM      7  C   UNL     1       2.220   6.867  19.527  0.00  0.00    +0.000 A 
ATOM      8  C   UNL     1       1.648   7.295  20.719  0.00  0.00    +0.000 A 
ATOM      9  C   UNL     1       1.072   8.566  20.811  0.00  0.00    +0.000 A 
ATOM     10  O   UNL     1       0.528   8.883  22.066  0.00  0.00    +0.000 OA
ATOM     11  C   UNL     1       0.036  10.138  22.335  0.00  0.00    +0.000 A 
ATOM     12  O   UNL     1      -0.406  10.421  23.448  0.00  0.00    +0.000 OA
ENDROOT
BRANCH   1  13
ATOM     13  C   UNL     1      -0.403  12.502  21.686  0.00  0.00    +0.000 C 
BRANCH  13  14
ATOM     14  C   UNL     1      -1.912  12.607  21.631  0.00  0.00    +0.000 C 
ATOM     15  O   UNL     1      -2.618  12.320  20.676  0.00  0.00    +0.000 OA
BRANCH  14  17
ATOM     16  C   UNL     1      -3.363  12.358  23.453  0.00  0.00    +0.000 C 
ATOM     17  O   UNL     1      -2.366  13.145  22.803  0.00  0.00    +0.000 OA
ENDBRANCH  14  17
ENDBRANCH  13  14
ENDBRANCH   1  13
BRANCH   7  18
ATOM     18  O   UNL     1       2.818   5.643  19.348  0.00  0.00    +0.000 OA
BRANCH  18  19
ATOM     19  C   UNL     1       1.962   4.500  19.481  0.00  0.00    +0.000 C 
ATOM     20  C   UNL     1       1.546   4.004  18.094  0.00  0.00    +0.000 C 
ATOM     21  C   UNL     1       2.620   3.204  17.369  0.00  0.00    +0.000 C 
ATOM     22  C   UNL     1       3.090   2.009  18.186  0.00  0.00    +0.000 C 
ATOM     23  C   UNL     1       3.480   2.353  19.614  0.00  0.00    +0.000 C 
ATOM     24  C   UNL     1       2.565   3.348  20.296  0.00  0.00    +0.000 C 
ATOM     25  O   UNL     1       2.394   3.278  21.518  0.00  0.00    +0.000 OA
ENDBRANCH  18  19
ENDBRANCH   7  18
TORSDOF 5
ENDMDL
MODEL 9
REMARK VINA RESULT:      -7.5      2.562      8.505
REMARK  Name = 
REMARK  7 active torsions:
REMARK  status: ('A' for Active; 'I' for Inactive)
REMARK    1  A    between atoms: C_1  and  O_2
REMARK    2  A    between atoms: O_2  and  C_3
REMARK    3  A    between atoms: C_3  and  C_5
REMARK    4  A    between atoms: C_5  and  C_6
REMARK    5  A    between atoms: C_7  and  C_8
REMARK    6  A    between atoms: C_12  and  O_13
REMARK    7  A    between atoms: O_13  and  C_14
REMARK                            x       y       z     vdW  Elec       q    Type
REMARK                         _______ _______ _______ _____ _____    ______ ____
ROOT
ATOM      1  C   UNL     1      -0.360  11.368  21.117  0.00  0.00    +0.000 A 
ATOM      2  C   UNL     1       0.041  11.059  19.865  0.00  0.00    +0.000 A 
ATOM      3  C   UNL     1      -0.201  11.958  18.678  0.00  0.00    +0.000 C 
ATOM      4  C   UNL     1       0.750   9.779  19.639  0.00  0.00    +0.000 A 
ATOM      5  C   UNL     1       1.329   9.379  18.425  0.00  0.00    +0.000 A 
ATOM      6  C   UNL     1       2.054   8.168  18.326  0.00  0.00    +0.000 A 
ATOM      7  C   UNL     1       2.200   7.320  19.430  0.00  0.00    +0.000 A 
ATOM      8  C   UNL     1       1.632   7.717  20.634  0.00  0.00    +0.000 A 
ATOM      9  C   UNL     1       0.917   8.916  20.717  0.00  0.00    +0.000 A 
ATOM     10  O   UNL     1       0.392   9.208  21.986  0.00  0.00    +0.000 OA
ATOM     11  C   UNL     1      -0.231  10.406  22.243  0.00  0.00    +0.000 A 
ATOM     12  O   UNL     1      -0.658  10.672  23.366  0.00  0.00    +0.000 OA
ENDROOT
BRANCH   1  13
ATOM     13  C   UNL     1      -0.969  12.682  21.551  0.00  0.00    +0.000 C 
BRANCH  13  14
ATOM     14  C   UNL     1       0.099  13.689  21.918  0.00  0.00    +0.000 C 
ATOM     15  O   UNL     1       1.294  13.587  21.683  0.00  0.00    +0.000 OA
BRANCH  14  17
ATOM     16  C   UNL     1      -1.252  14.278  23.739  0.00  0.00    +0.000 C 
ATOM     17  O   UNL     1      -0.472  14.710  22.624  0.00  0.00    +0.000 OA
ENDBRANCH  14  17
ENDBRANCH  13  14
ENDBRANCH   1  13
BRANCH   7  18
ATOM     18  O   UNL     1       2.929   6.168  19.258  0.00  0.00    +0.000 OA
BRANCH  18  19
ATOM     19  C   UNL     1       2.181   4.944  19.271  0.00  0.00    +0.000 C 
ATOM     20  C   UNL     1       1.988   4.442  17.838  0.00  0.00    +0.000 C 
ATOM     21  C   UNL     1       3.217   3.768  17.242  0.00  0.00    +0.000 C 
ATOM     22  C   UNL     1       3.701   2.606  18.097  0.00  0.00    +0.000 C 
ATOM     23  C   UNL     1       3.877   2.953  19.565  0.00  0.00    +0.000 C 
ATOM     24  C   UNL     1       2.792   3.838  20.141  0.00  0.00    +0.000 C 
ATOM     25  O   UNL     1       2.482   3.723  21.332  0.00  0.00    +0.000 OA
ENDBRANCH  18  19
ENDBRANCH   7  18
TORSDOF 5
ENDMDL
