MODEL 1
REMARK VINA RESULT:      -7.1      0.000      0.000
REMARK  Name = 
REMARK  5 active torsions:
REMARK  status: ('A' for Active; 'I' for Inactive)
REMARK    1  A    between atoms: C_1  and  C_2
REMARK    2  A    between atoms: C_2  and  C_3
REMARK    3  A    between atoms: C_2  and  C_4
REMARK    4  A    between atoms: C_4  and  O_5
REMARK    5  A    between atoms: O_5  and  C_6
REMARK                            x       y       z     vdW  Elec       q    Type
REMARK                         _______ _______ _______ _____ _____    ______ ____
ROOT
ATOM      1  C   UNL     1       3.439   5.077  18.724  0.00  0.00    +0.000 A 
ATOM      2  N   UNL     1       3.523   4.763  17.479  0.00  0.00    +0.000 NA
ATOM      3  C   UNL     1       4.794   4.694  16.931  0.00  0.00    +0.000 A 
ATOM      4  C   UNL     1       4.935   4.447  15.565  0.00  0.00    +0.000 A 
ATOM      5  C   UNL     1       6.204   4.344  14.992  0.00  0.00    +0.000 A 
ATOM      6  C   UNL     1       7.339   4.480  15.791  0.00  0.00    +0.000 A 
ATOM      7  C   UNL     1       7.205   4.741  17.156  0.00  0.00    +0.000 A 
ATOM      8  C   UNL     1       5.926   4.859  17.713  0.00  0.00    +0.000 A 
ATOM      9  C   UNL     1       5.727   5.180  19.135  0.00  0.00    +0.000 A 
ATOM     10  O   UNL     1       6.689   5.327  19.880  0.00  0.00    +0.000 OA
ATOM     11  O   UNL     1       4.455   5.329  19.577  0.00  0.00    +0.000 OA
ENDROOT
BRANCH   1  12
ATOM     12  O   UNL     1       2.214   5.143  19.292  0.00  0.00    +0.000 OA
BRANCH  12  13
ATOM     13  C   UNL     1       2.074   5.023  20.717  0.00  0.00    +0.000 C 
BRANCH  13  15
ATOM     14  C   UNL     1       0.778   3.083  19.760  0.00  0.00    +0.000 C 
ATOM     15  C   UNL     1       1.423   3.664  21.014  0.00  0.00    +0.000 C 
ATOM     16  C   UNL     1       2.424   2.667  21.605  0.00  0.00    +0.000 C 
ENDBRANCH  13  15
ENDBRANCH  12  13
ENDBRANCH   1  12
TORSDOF 3
ENDMDL
MODEL 2
REMARK VINA RESULT:      -7.0      1.145      1.525
REMARK  Name = 
REMARK  5 active torsions:
REMARK  status: ('A' for Active; 'I' for Inactive)
REMARK    1  A    between atoms: C_1  and  C_2
REMARK    2  A    between atoms: C_2  and  C_3
REMARK    3  A    between atoms: C_2  and  C_4
REMARK    4  A    between atoms: C_4  and  O_5
REMARK    5  A    between atoms: O_5  and  C_6
REMARK                            x       y       z     vdW  Elec       q    Type
REMARK                         _______ _______ _______ _____ _____    ______ ____
ROOT
ATOM      1  C   UNL     1       3.937   3.270  18.655  0.00  0.00    +0.000 A 
ATOM      2  N   UNL     1       4.051   3.185  17.376  0.00  0.00    +0.000 NA
ATOM      3  C   UNL     1       5.081   3.900  16.787  0.00  0.00    +0.000 A 
ATOM      4  C   UNL     1       5.193   3.915  15.396  0.00  0.00    +0.000 A 
ATOM      5  C   UNL     1       6.238   4.603  14.778  0.00  0.00    +0.000 A 
ATOM      6  C   UNL     1       7.183   5.275  15.554  0.00  0.00    +0.000 A 
ATOM      7  C   UNL     1       7.069   5.275  16.945  0.00  0.00    +0.000 A 
ATOM      8  C   UNL     1       6.006   4.594  17.551  0.00  0.00    +0.000 A 
ATOM      9  C   UNL     1       5.811   4.602  19.009  0.00  0.00    +0.000 A 
ATOM     10  O   UNL     1       6.601   5.190  19.740  0.00  0.00    +0.000 OA
ATOM     11  O   UNL     1       4.723   3.963  19.505  0.00  0.00    +0.000 OA
ENDROOT
BRANCH   1  12
ATOM     12  O   UNL     1       2.948   2.576  19.262  0.00  0.00    +0.000 OA
BRANCH  12  13
ATOM     13  C   UNL     1       1.577   2.964  19.074  0.00  0.00    +0.000 C 
BRANCH  13  15
ATOM     14  C   UNL     1       1.531   2.686  21.581  0.00  0.00    +0.000 C 
ATOM     15  C   UNL     1       1.061   3.536  20.404  0.00  0.00    +0.000 C 
ATOM     16  C   UNL     1       1.485   4.995  20.601  0.00  0.00    +0.000 C 
ENDBRANCH  13  15
ENDBRANCH  12  13
ENDBRANCH   1  12
TORSDOF 3
ENDMDL
MODEL 3
REMARK VINA RESULT:      -6.8      2.113      5.494
REMARK  Name = 
REMARK  5 active torsions:
REMARK  status: ('A' for Active; 'I' for Inactive)
REMARK    1  A    between atoms: C_1  and  C_2
REMARK    2  A    between atoms: C_2  and  C_3
REMARK    3  A    between atoms: C_2  and  C_4
REMARK    4  A    between atoms: C_4  and  O_5
REMARK    5  A    between atoms: O_5  and  C_6
REMARK                            x       y       z     vdW  Elec       q    Type
REMARK                         _______ _______ _______ _____ _____    ______ ____
ROOT
ATOM      1  C   UNL     1       5.079   4.280  18.300  0.00  0.00    +0.000 A 
ATOM      2  N   UNL     1       3.928   4.842  18.427  0.00  0.00    +0.000 NA
ATOM      3  C   UNL     1       3.030   4.248  19.299  0.00  0.00    +0.000 A 
ATOM      4  C   UNL     1       1.738   4.766  19.404  0.00  0.00    +0.000 A 
ATOM      5  C   UNL     1       0.822   4.205  20.296  0.00  0.00    +0.000 A 
ATOM      6  C   UNL     1       1.202   3.126  21.094  0.00  0.00    +0.000 A 
ATOM      7  C   UNL     1       2.488   2.596  20.985  0.00  0.00    +0.000 A 
ATOM      8  C   UNL     1       3.391   3.158  20.074  0.00  0.00    +0.000 A 
ATOM      9  C   UNL     1       4.742   2.609  19.883  0.00  0.00    +0.000 A 
ATOM     10  O   UNL     1       5.124   1.650  20.546  0.00  0.00    +0.000 OA
ATOM     11  O   UNL     1       5.530   3.180  18.940  0.00  0.00    +0.000 OA
ENDROOT
BRANCH   1  12
ATOM     12  O   UNL     1       5.982   4.840  17.464  0.00  0.00    +0.000 OA
BRANCH  12  13
ATOM     13  C   UNL     1       6.070   6.269  17.352  0.00  0.00    +0.000 C 
BRANCH  13  15
ATOM     14  C   UNL     1       7.689   8.192  17.564  0.00  0.00    +0.000 C 
ATOM     15  C   UNL     1       7.520   6.678  17.653  0.00  0.00    +0.000 C 
ATOM     16  C   UNL     1       7.984   6.173  19.022  0.00  0.00    +0.000 C 
ENDBRANCH  13  15
ENDBRANCH  12  13
ENDBRANCH   1  12
TORSDOF 3
ENDMDL
MODEL 4
REMARK VINA RESULT:      -6.8      1.990      5.446
REMARK  Name = 
REMARK  5 active torsions:
REMARK  status: ('A' for Active; 'I' for Inactive)
REMARK    1  A    between atoms: C_1  and  C_2
REMARK    2  A    between atoms: C_2  and  C_3
REMARK    3  A    between atoms: C_2  and  C_4
REMARK    4  A    between atoms: C_4  and  O_5
REMARK    5  A    between atoms: O_5  and  C_6
REMARK                            x       y       z     vdW  Elec       q    Type
REMARK                         _______ _______ _______ _____ _____    ______ ____
ROOT
ATOM      1  C   UNL     1       4.805   4.064  18.017  0.00  0.00    +0.000 A 
ATOM      2  N   UNL     1       3.628   4.563  18.160  0.00  0.00    +0.000 NA
ATOM      3  C   UNL     1       2.844   4.046  19.179  0.00  0.00    +0.000 A 
ATOM      4  C   UNL     1       1.528   4.488  19.319  0.00  0.00    +0.000 A 
ATOM      5  C   UNL     1       0.726   4.006  20.355  0.00  0.00    +0.000 A 
ATOM      6  C   UNL     1       1.245   3.082  21.262  0.00  0.00    +0.000 A 
ATOM      7  C   UNL     1       2.557   2.625  21.120  0.00  0.00    +0.000 A 
ATOM      8  C   UNL     1       3.344   3.106  20.066  0.00  0.00    +0.000 A 
ATOM      9  C   UNL     1       4.715   2.623  19.842  0.00  0.00    +0.000 A 
ATOM     10  O   UNL     1       5.217   1.799  20.598  0.00  0.00    +0.000 OA
ATOM     11  O   UNL     1       5.385   3.101  18.765  0.00  0.00    +0.000 OA
ENDROOT
BRANCH   1  12
ATOM     12  O   UNL     1       5.599   4.552  17.038  0.00  0.00    +0.000 OA
BRANCH  12  13
ATOM     13  C   UNL     1       6.984   4.827  17.304  0.00  0.00    +0.000 C 
BRANCH  13  15
ATOM     14  C   UNL     1       7.926   5.762  19.448  0.00  0.00    +0.000 C 
ATOM     15  C   UNL     1       7.054   6.050  18.230  0.00  0.00    +0.000 C 
ATOM     16  C   UNL     1       7.564   7.295  17.496  0.00  0.00    +0.000 C 
ENDBRANCH  13  15
ENDBRANCH  12  13
ENDBRANCH   1  12
TORSDOF 3
ENDMDL
MODEL 5
REMARK VINA RESULT:      -6.8      1.135      1.542
REMARK  Name = 
REMARK  5 active torsions:
REMARK  status: ('A' for Active; 'I' for Inactive)
REMARK    1  A    between atoms: C_1  and  C_2
REMARK    2  A    between atoms: C_2  and  C_3
REMARK    3  A    between atoms: C_2  and  C_4
REMARK    4  A    between atoms: C_4  and  O_5
REMARK    5  A    between atoms: O_5  and  C_6
REMARK                            x       y       z     vdW  Elec       q    Type
REMARK                         _______ _______ _______ _____ _____    ______ ____
ROOT
ATOM      1  C   UNL     1       4.533   4.176  19.032  0.00  0.00    +0.000 A 
ATOM      2  N   UNL     1       4.182   3.987  17.808  0.00  0.00    +0.000 NA
ATOM      3  C   UNL     1       5.129   4.255  16.833  0.00  0.00    +0.000 A 
ATOM      4  C   UNL     1       4.770   4.153  15.488  0.00  0.00    +0.000 A 
ATOM      5  C   UNL     1       5.712   4.389  14.486  0.00  0.00    +0.000 A 
ATOM      6  C   UNL     1       7.023   4.721  14.828  0.00  0.00    +0.000 A 
ATOM      7  C   UNL     1       7.385   4.837  16.171  0.00  0.00    +0.000 A 
ATOM      8  C   UNL     1       6.425   4.614  17.166  0.00  0.00    +0.000 A 
ATOM      9  C   UNL     1       6.739   4.769  18.595  0.00  0.00    +0.000 A 
ATOM     10  O   UNL     1       7.871   5.076  18.954  0.00  0.00    +0.000 OA
ATOM     11  O   UNL     1       5.735   4.588  19.487  0.00  0.00    +0.000 OA
ENDROOT
BRANCH   1  12
ATOM     12  O   UNL     1       3.635   3.915  20.009  0.00  0.00    +0.000 OA
BRANCH  12  13
ATOM     13  C   UNL     1       3.036   2.613  20.106  0.00  0.00    +0.000 C 
BRANCH  13  15
ATOM     14  C   UNL     1       1.136   4.221  20.515  0.00  0.00    +0.000 C 
ATOM     15  C   UNL     1       1.510   2.795  20.120  0.00  0.00    +0.000 C 
ATOM     16  C   UNL     1       0.879   2.436  18.771  0.00  0.00    +0.000 C 
ENDBRANCH  13  15
ENDBRANCH  12  13
ENDBRANCH   1  12
TORSDOF 3
ENDMDL
MODEL 6
REMARK VINA RESULT:      -6.8      2.003      2.930
REMARK  Name = 
REMARK  5 active torsions:
REMARK  status: ('A' for Active; 'I' for Inactive)
REMARK    1  A    between atoms: C_1  and  C_2
REMARK    2  A    between atoms: C_2  and  C_3
REMARK    3  A    between atoms: C_2  and  C_4
REMARK    4  A    between atoms: C_4  and  O_5
REMARK    5  A    between atoms: O_5  and  C_6
REMARK                            x       y       z     vdW  Elec       q    Type
REMARK                         _______ _______ _______ _____ _____    ______ ____
ROOT
ATOM      1  C   UNL     1       4.234   3.257  18.687  0.00  0.00    +0.000 A 
ATOM      2  N   UNL     1       5.064   3.947  19.389  0.00  0.00    +0.000 NA
ATOM      3  C   UNL     1       5.913   4.799  18.702  0.00  0.00    +0.000 A 
ATOM      4  C   UNL     1       6.891   5.501  19.406  0.00  0.00    +0.000 A 
ATOM      5  C   UNL     1       7.740   6.389  18.744  0.00  0.00    +0.000 A 
ATOM      6  C   UNL     1       7.606   6.583  17.369  0.00  0.00    +0.000 A 
ATOM      7  C   UNL     1       6.638   5.874  16.656  0.00  0.00    +0.000 A 
ATOM      8  C   UNL     1       5.804   4.975  17.331  0.00  0.00    +0.000 A 
ATOM      9  C   UNL     1       4.800   4.167  16.623  0.00  0.00    +0.000 A 
ATOM     10  O   UNL     1       4.649   4.284  15.411  0.00  0.00    +0.000 OA
ATOM     11  O   UNL     1       4.074   3.281  17.347  0.00  0.00    +0.000 OA
ENDROOT
BRANCH   1  12
ATOM     12  O   UNL     1       3.385   2.422  19.328  0.00  0.00    +0.000 OA
BRANCH  12  13
ATOM     13  C   UNL     1       1.967   2.562  19.149  0.00  0.00    +0.000 C 
BRANCH  13  15
ATOM     14  C   UNL     1       2.180   2.652  21.661  0.00  0.00    +0.000 C 
ATOM     15  C   UNL     1       1.380   3.127  20.452  0.00  0.00    +0.000 C 
ATOM     16  C   UNL     1       1.309   4.657  20.430  0.00  0.00    +0.000 C 
ENDBRANCH  13  15
ENDBRANCH  12  13
ENDBRANCH   1  12
TORSDOF 3
ENDMDL
MODEL 7
REMARK VINA RESULT:      -6.7      1.689      5.374
REMARK  Name = 
REMARK  5 active torsions:
REMARK  status: ('A' for Active; 'I' for Inactive)
REMARK    1  A    between atoms: C_1  and  C_2
REMARK    2  A    between atoms: C_2  and  C_3
REMARK    3  A    between atoms: C_2  and  C_4
REMARK    4  A    between atoms: C_4  and  O_5
REMARK    5  A    between atoms: O_5  and  C_6
REMARK                            x       y       z     vdW  Elec       q    Type
REMARK                         _______ _______ _______ _____ _____    ______ ____
ROOT
ATOM      1  C   UNL     1       5.281   4.810  18.977  0.00  0.00    +0.000 A 
ATOM      2  N   UNL     1       4.142   5.375  19.174  0.00  0.00    +0.000 NA
ATOM      3  C   UNL     1       3.148   4.601  19.751  0.00  0.00    +0.000 A 
ATOM      4  C   UNL     1       1.869   5.137  19.904  0.00  0.00    +0.000 A 
ATOM      5  C   UNL     1       0.856   4.391  20.509  0.00  0.00    +0.000 A 
ATOM      6  C   UNL     1       1.125   3.102  20.971  0.00  0.00    +0.000 A 
ATOM      7  C   UNL     1       2.399   2.555  20.810  0.00  0.00    +0.000 A 
ATOM      8  C   UNL     1       3.400   3.310  20.187  0.00  0.00    +0.000 A 
ATOM      9  C   UNL     1       4.746   2.766  19.948  0.00  0.00    +0.000 A 
ATOM     10  O   UNL     1       5.034   1.632  20.319  0.00  0.00    +0.000 OA
ATOM     11  O   UNL     1       5.636   3.546  19.288  0.00  0.00    +0.000 OA
ENDROOT
BRANCH   1  12
ATOM     12  O   UNL     1       6.276   5.540  18.424  0.00  0.00    +0.000 OA
BRANCH  12  13
ATOM     13  C   UNL     1       6.884   5.113  17.195  0.00  0.00    +0.000 C 
BRANCH  13  15
ATOM     14  C   UNL     1       5.276   6.271  15.634  0.00  0.00    +0.000 C 
ATOM     15  C   UNL     1       5.767   4.924  16.156  0.00  0.00    +0.000 C 
ATOM     16  C   UNL     1       6.214   4.035  14.992  0.00  0.00    +0.000 C 
ENDBRANCH  13  15
ENDBRANCH  12  13
ENDBRANCH   1  12
TORSDOF 3
ENDMDL
MODEL 8
REMARK VINA RESULT:      -6.7      1.958      5.702
REMARK  Name = 
REMARK  5 active torsions:
REMARK  status: ('A' for Active; 'I' for Inactive)
REMARK    1  A    between atoms: C_1  and  C_2
REMARK    2  A    between atoms: C_2  and  C_3
REMARK    3  A    between atoms: C_2  and  C_4
REMARK    4  A    between atoms: C_4  and  O_5
REMARK    5  A    between atoms: O_5  and  C_6
REMARK                            x       y       z     vdW  Elec       q    Type
REMARK                         _______ _______ _______ _____ _____    ______ ____
ROOT
ATOM      1  C   UNL     1       4.198   5.629  18.263  0.00  0.00    +0.000 A 
ATOM      2  N   UNL     1       3.920   5.485  19.511  0.00  0.00    +0.000 NA
ATOM      3  C   UNL     1       2.960   4.540  19.838  0.00  0.00    +0.000 A 
ATOM      4  C   UNL     1       2.557   4.409  21.167  0.00  0.00    +0.000 A 
ATOM      5  C   UNL     1       1.614   3.445  21.528  0.00  0.00    +0.000 A 
ATOM      6  C   UNL     1       1.076   2.602  20.555  0.00  0.00    +0.000 A 
ATOM      7  C   UNL     1       1.465   2.737  19.222  0.00  0.00    +0.000 A 
ATOM      8  C   UNL     1       2.400   3.719  18.872  0.00  0.00    +0.000 A 
ATOM      9  C   UNL     1       2.810   3.937  17.476  0.00  0.00    +0.000 A 
ATOM     10  O   UNL     1       2.356   3.236  16.578  0.00  0.00    +0.000 OA
ATOM     11  O   UNL     1       3.677   4.946  17.222  0.00  0.00    +0.000 OA
ENDROOT
BRANCH   1  12
ATOM     12  O   UNL     1       5.137   6.536  17.912  0.00  0.00    +0.000 OA
BRANCH  12  13
ATOM     13  C   UNL     1       6.146   6.192  16.949  0.00  0.00    +0.000 C 
BRANCH  13  15
ATOM     14  C   UNL     1       7.666   8.102  17.581  0.00  0.00    +0.000 C 
ATOM     15  C   UNL     1       7.511   6.585  17.534  0.00  0.00    +0.000 C 
ATOM     16  C   UNL     1       7.730   5.986  18.926  0.00  0.00    +0.000 C 
ENDBRANCH  13  15
ENDBRANCH  12  13
ENDBRANCH   1  12
TORSDOF 3
ENDMDL
MODEL 9
REMARK VINA RESULT:      -6.7      1.828      5.304
REMARK  Name = 
REMARK  5 active torsions:
REMARK  status: ('A' for Active; 'I' for Inactive)
REMARK    1  A    between atoms: C_1  and  C_2
REMARK    2  A    between atoms: C_2  and  C_3
REMARK    3  A    between atoms: C_2  and  C_4
REMARK    4  A    between atoms: C_4  and  O_5
REMARK    5  A    between atoms: O_5  and  C_6
REMARK                            x       y       z     vdW  Elec       q    Type
REMARK                         _______ _______ _______ _____ _____    ______ ____
ROOT
ATOM      1  C   UNL     1       3.935   5.986  17.807  0.00  0.00    +0.000 A 
ATOM      2  N   UNL     1       3.619   4.786  17.467  0.00  0.00    +0.000 NA
ATOM      3  C   UNL     1       2.673   4.140  18.245  0.00  0.00    +0.000 A 
ATOM      4  C   UNL     1       2.361   2.807  17.974  0.00  0.00    +0.000 A 
ATOM      5  C   UNL     1       1.390   2.140  18.723  0.00  0.00    +0.000 A 
ATOM      6  C   UNL     1       0.720   2.812  19.745  0.00  0.00    +0.000 A 
ATOM      7  C   UNL     1       1.036   4.141  20.031  0.00  0.00    +0.000 A 
ATOM      8  C   UNL     1       2.024   4.792  19.282  0.00  0.00    +0.000 A 
ATOM      9  C   UNL     1       2.430   6.176  19.571  0.00  0.00    +0.000 A 
ATOM     10  O   UNL     1       1.887   6.809  20.469  0.00  0.00    +0.000 OA
ATOM     11  O   UNL     1       3.434   6.708  18.831  0.00  0.00    +0.000 OA
ENDROOT
BRANCH   1  12
ATOM     12  O   UNL     1       4.849   6.648  17.063  0.00  0.00    +0.000 OA
BRANCH  12  13
ATOM     13  C   UNL     1       5.676   5.931  16.132  0.00  0.00    +0.000 C 
BRANCH  13  15
ATOM     14  C   UNL     1       7.380   7.194  17.498  0.00  0.00    +0.000 C 
ATOM     15  C   UNL     1       7.113   5.937  16.675  0.00  0.00    +0.000 C 
ATOM     16  C   UNL     1       7.416   4.686  17.505  0.00  0.00    +0.000 C 
ENDBRANCH  13  15
ENDBRANCH  12  13
ENDBRANCH   1  12
TORSDOF 3
ENDMDL
