MODEL 1
REMARK VINA RESULT:      -7.9      0.000      0.000
REMARK  Name = 
REMARK  6 active torsions:
REMARK  status: ('A' for Active; 'I' for Inactive)
REMARK    1  A    between atoms: C_1  and  C_2
REMARK    2  A    between atoms: N_6  and  C_7
REMARK    3  A    between atoms: C_13  and  N_14
REMARK    4  A    between atoms: C_15  and  C_17
REMARK    5  A    between atoms: C_17  and  C_18
REMARK    6  A    between atoms: C_18  and  N_19
REMARK                            x       y       z     vdW  Elec       q    Type
REMARK                         _______ _______ _______ _____ _____    ______ ____
ROOT
ATOM      1  C   UNL     1       3.925   4.883  18.472  0.00  0.00    +0.000 A 
ATOM      2  C   UNL     1       3.840   3.728  17.658  0.00  0.00    +0.000 A 
ATOM      3  C   UNL     1       2.764   2.839  17.718  0.00  0.00    +0.000 A 
ATOM      4  C   UNL     1       1.738   3.076  18.616  0.00  0.00    +0.000 A 
ATOM      5 CL   UNL     1       0.374   2.026  18.652  0.00  0.00    +0.000 Cl
ATOM      6  C   UNL     1       1.790   4.180  19.460  0.00  0.00    +0.000 A 
ATOM      7  C   UNL     1       2.867   5.080  19.389  0.00  0.00    +0.000 A 
ENDROOT
BRANCH   1  13
ATOM      8  C   UNL     1       7.753   4.454  17.670  0.00  0.00    +0.000 C 
ATOM      9  C   UNL     1       7.485   5.697  18.526  0.00  0.00    +0.000 C 
ATOM     10  C   UNL     1       7.532   6.986  17.691  0.00  0.00    +0.000 C 
ATOM     11  C   UNL     1       6.307   7.149  16.797  0.00  0.00    +0.000 C 
ATOM     12  C   UNL     1       4.999   6.969  17.570  0.00  0.00    +0.000 C 
ATOM     13  N   UNL     1       5.035   5.704  18.292  0.00  0.00    +0.000 N 
ATOM     14  C   UNL     1       6.138   5.587  19.264  0.00  0.00    +0.000 C 
ENDBRANCH   1  13
BRANCH   7  15
ATOM     15  N   UNL     1       2.769   6.210  20.230  0.00  0.00    +0.000 N 
ATOM     16  C   UNL     1       2.150   7.367  19.784  0.00  0.00    +0.000 C 
ATOM     17  O   UNL     1       1.778   7.582  18.636  0.00  0.00    +0.000 OA
ATOM     18  H   UNL     1       2.603   6.008  21.205  0.00  0.00    +0.000 HD
BRANCH  16  19
ATOM     19  C   UNL     1       1.955   8.395  20.885  0.00  0.00    +0.000 C 
BRANCH  19  20
ATOM     20  C   UNL     1       0.488   8.444  21.306  0.00  0.00    +0.000 C 
BRANCH  20  21
ATOM     21  N   UNL     1      -0.085   9.791  21.289  0.00  0.00    +0.000 N 
ATOM     22  C   UNL     1      -0.716  10.237  20.051  0.00  0.00    +0.000 C 
ATOM     23  C   UNL     1      -0.851  11.748  19.977  0.00  0.00    +0.000 C 
ATOM     24  C   UNL     1      -1.587  12.232  21.213  0.00  0.00    +0.000 C 
ATOM     25  C   UNL     1      -0.806  11.861  22.462  0.00  0.00    +0.000 C 
ATOM     26  C   UNL     1      -0.301  10.425  22.506  0.00  0.00    +0.000 C 
ATOM     27  O   UNL     1      -0.009   9.900  23.580  0.00  0.00    +0.000 OA
ENDBRANCH  20  21
ENDBRANCH  19  20
ENDBRANCH  16  19
ENDBRANCH   7  15
TORSDOF 5
ENDMDL
MODEL 2
REMARK VINA RESULT:      -7.8      1.049      1.450
REMARK  Name = 
REMARK  6 active torsions:
REMARK  status: ('A' for Active; 'I' for Inactive)
REMARK    1  A    between atoms: C_1  and  C_2
REMARK    2  A    between atoms: N_6  and  C_7
REMARK    3  A    between atoms: C_13  and  N_14
REMARK    4  A    between atoms: C_15  and  C_17
REMARK    5  A    between atoms: C_17  and  C_18
REMARK    6  A    between atoms: C_18  and  N_19
REMARK                            x       y       z     vdW  Elec       q    Type
REMARK                         _______ _______ _______ _____ _____    ______ ____
ROOT
ATOM      1  C   UNL     1       3.955   4.849  18.413  0.00  0.00    +0.000 A 
ATOM      2  C   UNL     1       3.928   3.645  17.670  0.00  0.00    +0.000 A 
ATOM      3  C   UNL     1       2.863   2.743  17.730  0.00  0.00    +0.000 A 
ATOM      4  C   UNL     1       1.788   3.018  18.558  0.00  0.00    +0.000 A 
ATOM      5 CL   UNL     1       0.439   1.949  18.590  0.00  0.00    +0.000 Cl
ATOM      6  C   UNL     1       1.781   4.172  19.333  0.00  0.00    +0.000 A 
ATOM      7  C   UNL     1       2.848   5.084  19.261  0.00  0.00    +0.000 A 
ENDROOT
BRANCH   1  13
ATOM      8  C   UNL     1       7.808   4.437  17.734  0.00  0.00    +0.000 C 
ATOM      9  C   UNL     1       7.504   5.703  18.544  0.00  0.00    +0.000 C 
ATOM     10  C   UNL     1       7.562   6.966  17.671  0.00  0.00    +0.000 C 
ATOM     11  C   UNL     1       6.361   7.088  16.737  0.00  0.00    +0.000 C 
ATOM     12  C   UNL     1       5.034   6.918  17.478  0.00  0.00    +0.000 C 
ATOM     13  N   UNL     1       5.061   5.676  18.239  0.00  0.00    +0.000 N 
ATOM     14  C   UNL     1       6.137   5.601  19.246  0.00  0.00    +0.000 C 
ENDBRANCH   1  13
BRANCH   7  15
ATOM     15  N   UNL     1       2.690   6.262  20.024  0.00  0.00    +0.000 N 
ATOM     16  C   UNL     1       2.094   7.384  19.471  0.00  0.00    +0.000 C 
ATOM     17  O   UNL     1       1.794   7.526  18.291  0.00  0.00    +0.000 OA
ATOM     18  H   UNL     1       2.465   6.117  20.998  0.00  0.00    +0.000 HD
BRANCH  16  19
ATOM     19  C   UNL     1       1.825   8.474  20.494  0.00  0.00    +0.000 C 
BRANCH  19  20
ATOM     20  C   UNL     1       0.920   9.548  19.893  0.00  0.00    +0.000 C 
BRANCH  20  21
ATOM     21  N   UNL     1       0.077  10.226  20.879  0.00  0.00    +0.000 N 
ATOM     22  C   UNL     1       0.277   9.885  22.283  0.00  0.00    +0.000 C 
ATOM     23  C   UNL     1      -0.910  10.264  23.151  0.00  0.00    +0.000 C 
ATOM     24  C   UNL     1      -1.212  11.738  22.947  0.00  0.00    +0.000 C 
ATOM     25  C   UNL     1      -1.552  12.002  21.491  0.00  0.00    +0.000 C 
ATOM     26  C   UNL     1      -0.606  11.368  20.480  0.00  0.00    +0.000 C 
ATOM     27  O   UNL     1      -0.536  11.806  19.332  0.00  0.00    +0.000 OA
ENDBRANCH  20  21
ENDBRANCH  19  20
ENDBRANCH  16  19
ENDBRANCH   7  15
TORSDOF 5
ENDMDL
MODEL 3
REMARK VINA RESULT:      -7.8      1.621      2.054
REMARK  Name = 
REMARK  6 active torsions:
REMARK  status: ('A' for Active; 'I' for Inactive)
REMARK    1  A    between atoms: C_1  and  C_2
REMARK    2  A    between atoms: N_6  and  C_7
REMARK    3  A    between atoms: C_13  and  N_14
REMARK    4  A    between atoms: C_15  and  C_17
REMARK    5  A    between atoms: C_17  and  C_18
REMARK    6  A    between atoms: C_18  and  N_19
REMARK                            x       y       z     vdW  Elec       q    Type
REMARK                         _______ _______ _______ _____ _____    ______ ____
ROOT
ATOM      1  C   UNL     1       4.533   4.427  19.336  0.00  0.00    +0.000 A 
ATOM      2  C   UNL     1       4.572   3.050  19.659  0.00  0.00    +0.000 A 
ATOM      3  C   UNL     1       3.587   2.426  20.427  0.00  0.00    +0.000 A 
ATOM      4  C   UNL     1       2.529   3.175  20.912  0.00  0.00    +0.000 A 
ATOM      5 CL   UNL     1       1.273   2.404  21.803  0.00  0.00    +0.000 Cl
ATOM      6  C   UNL     1       2.461   4.538  20.650  0.00  0.00    +0.000 A 
ATOM      7  C   UNL     1       3.447   5.162  19.866  0.00  0.00    +0.000 A 
ENDROOT
BRANCH   1  13
ATOM      8  C   UNL     1       4.888   6.648  16.108  0.00  0.00    +0.000 C 
ATOM      9  C   UNL     1       6.022   5.624  16.223  0.00  0.00    +0.000 C 
ATOM     10  C   UNL     1       7.326   6.270  16.719  0.00  0.00    +0.000 C 
ATOM     11  C   UNL     1       7.279   6.616  18.205  0.00  0.00    +0.000 C 
ATOM     12  C   UNL     1       6.820   5.433  19.059  0.00  0.00    +0.000 C 
ATOM     13  N   UNL     1       5.561   4.920  18.536  0.00  0.00    +0.000 N 
ATOM     14  C   UNL     1       5.625   4.452  17.139  0.00  0.00    +0.000 C 
ENDBRANCH   1  13
BRANCH   7  15
ATOM     15  N   UNL     1       3.227   6.530  19.591  0.00  0.00    +0.000 N 
ATOM     16  C   UNL     1       2.380   6.914  18.564  0.00  0.00    +0.000 C 
ATOM     17  O   UNL     1       1.878   6.164  17.734  0.00  0.00    +0.000 OA
ATOM     18  H   UNL     1       3.185   7.130  20.402  0.00  0.00    +0.000 HD
BRANCH  16  19
ATOM     19  C   UNL     1       2.106   8.407  18.552  0.00  0.00    +0.000 C 
BRANCH  19  20
ATOM     20  C   UNL     1       1.546   8.851  19.901  0.00  0.00    +0.000 C 
BRANCH  20  21
ATOM     21  N   UNL     1       0.657  10.011  19.817  0.00  0.00    +0.000 N 
ATOM     22  C   UNL     1      -0.190  10.125  18.634  0.00  0.00    +0.000 C 
ATOM     23  C   UNL     1      -0.704  11.537  18.417  0.00  0.00    +0.000 C 
ATOM     24  C   UNL     1      -1.405  12.000  19.682  0.00  0.00    +0.000 C 
ATOM     25  C   UNL     1      -0.431  11.996  20.847  0.00  0.00    +0.000 C 
ATOM     26  C   UNL     1       0.418  10.738  20.977  0.00  0.00    +0.000 C 
ATOM     27  O   UNL     1       0.941  10.447  22.051  0.00  0.00    +0.000 OA
ENDBRANCH  20  21
ENDBRANCH  19  20
ENDBRANCH  16  19
ENDBRANCH   7  15
TORSDOF 5
ENDMDL
MODEL 4
REMARK VINA RESULT:      -7.7      2.028      2.422
REMARK  Name = 
REMARK  6 active torsions:
REMARK  status: ('A' for Active; 'I' for Inactive)
REMARK    1  A    between atoms: C_1  and  C_2
REMARK    2  A    between atoms: N_6  and  C_7
REMARK    3  A    between atoms: C_13  and  N_14
REMARK    4  A    between atoms: C_15  and  C_17
REMARK    5  A    between atoms: C_17  and  C_18
REMARK    6  A    between atoms: C_18  and  N_19
REMARK                            x       y       z     vdW  Elec       q    Type
REMARK                         _______ _______ _______ _____ _____    ______ ____
ROOT
ATOM      1  C   UNL     1       3.966   4.287  18.501  0.00  0.00    +0.000 A 
ATOM      2  C   UNL     1       4.311   3.157  19.280  0.00  0.00    +0.000 A 
ATOM      3  C   UNL     1       3.497   2.667  20.303  0.00  0.00    +0.000 A 
ATOM      4  C   UNL     1       2.306   3.311  20.589  0.00  0.00    +0.000 A 
ATOM      5 CL   UNL     1       1.260   2.677  21.801  0.00  0.00    +0.000 Cl
ATOM      6  C   UNL     1       1.936   4.444  19.874  0.00  0.00    +0.000 A 
ATOM      7  C   UNL     1       2.751   4.928  18.836  0.00  0.00    +0.000 A 
ENDROOT
BRANCH   1  13
ATOM      8  C   UNL     1       7.854   4.680  18.050  0.00  0.00    +0.000 C 
ATOM      9  C   UNL     1       7.075   5.654  17.158  0.00  0.00    +0.000 C 
ATOM     10  C   UNL     1       7.030   5.178  15.698  0.00  0.00    +0.000 C 
ATOM     11  C   UNL     1       6.086   3.997  15.496  0.00  0.00    +0.000 C 
ATOM     12  C   UNL     1       4.704   4.252  16.098  0.00  0.00    +0.000 C 
ATOM     13  N   UNL     1       4.851   4.655  17.491  0.00  0.00    +0.000 N 
ATOM     14  C   UNL     1       5.649   5.879  17.691  0.00  0.00    +0.000 C 
ENDBRANCH   1  13
BRANCH   7  15
ATOM     15  N   UNL     1       2.232   6.031  18.123  0.00  0.00    +0.000 N 
ATOM     16  C   UNL     1       2.183   7.287  18.707  0.00  0.00    +0.000 C 
ATOM     17  O   UNL     1       2.424   7.538  19.883  0.00  0.00    +0.000 OA
ATOM     18  H   UNL     1       2.451   6.048  17.137  0.00  0.00    +0.000 HD
BRANCH  16  19
ATOM     19  C   UNL     1       1.793   8.379  17.727  0.00  0.00    +0.000 C 
BRANCH  19  20
ATOM     20  C   UNL     1       1.837   9.743  18.413  0.00  0.00    +0.000 C 
BRANCH  20  21
ATOM     21  N   UNL     1       0.528  10.388  18.526  0.00  0.00    +0.000 N 
ATOM     22  C   UNL     1      -0.581   9.792  17.788  0.00  0.00    +0.000 C 
ATOM     23  C   UNL     1      -1.737  10.758  17.592  0.00  0.00    +0.000 C 
ATOM     24  C   UNL     1      -2.160  11.293  18.948  0.00  0.00    +0.000 C 
ATOM     25  C   UNL     1      -1.002  12.027  19.602  0.00  0.00    +0.000 C 
ATOM     26  C   UNL     1       0.333  11.295  19.561  0.00  0.00    +0.000 C 
ATOM     27  O   UNL     1       1.225  11.579  20.359  0.00  0.00    +0.000 OA
ENDBRANCH  20  21
ENDBRANCH  19  20
ENDBRANCH  16  19
ENDBRANCH   7  15
TORSDOF 5
ENDMDL
MODEL 5
REMARK VINA RESULT:      -7.7      2.183      2.691
REMARK  Name = 
REMARK  6 active torsions:
REMARK  status: ('A' for Active; 'I' for Inactive)
REMARK    1  A    between atoms: C_1  and  C_2
REMARK    2  A    between atoms: N_6  and  C_7
REMARK    3  A    between atoms: C_13  and  N_14
REMARK    4  A    between atoms: C_15  and  C_17
REMARK    5  A    between atoms: C_17  and  C_18
REMARK    6  A    between atoms: C_18  and  N_19
REMARK                            x       y       z     vdW  Elec       q    Type
REMARK                         _______ _______ _______ _____ _____    ______ ____
ROOT
ATOM      1  C   UNL     1       4.536   4.491  19.290  0.00  0.00    +0.000 A 
ATOM      2  C   UNL     1       4.499   3.112  19.601  0.00  0.00    +0.000 A 
ATOM      3  C   UNL     1       3.481   2.537  20.366  0.00  0.00    +0.000 A 
ATOM      4  C   UNL     1       2.468   3.340  20.860  0.00  0.00    +0.000 A 
ATOM      5 CL   UNL     1       1.172   2.633  21.746  0.00  0.00    +0.000 Cl
ATOM      6  C   UNL     1       2.476   4.707  20.609  0.00  0.00    +0.000 A 
ATOM      7  C   UNL     1       3.494   5.281  19.829  0.00  0.00    +0.000 A 
ENDROOT
BRANCH   1  13
ATOM      8  C   UNL     1       4.997   6.572  15.983  0.00  0.00    +0.000 C 
ATOM      9  C   UNL     1       6.110   5.534  16.163  0.00  0.00    +0.000 C 
ATOM     10  C   UNL     1       7.415   6.176  16.660  0.00  0.00    +0.000 C 
ATOM     11  C   UNL     1       7.345   6.583  18.129  0.00  0.00    +0.000 C 
ATOM     12  C   UNL     1       6.847   5.444  19.021  0.00  0.00    +0.000 C 
ATOM     13  N   UNL     1       5.589   4.933  18.493  0.00  0.00    +0.000 N 
ATOM     14  C   UNL     1       5.673   4.407  17.117  0.00  0.00    +0.000 C 
ENDBRANCH   1  13
BRANCH   7  15
ATOM     15  N   UNL     1       3.351   6.662  19.566  0.00  0.00    +0.000 N 
ATOM     16  C   UNL     1       2.527   7.101  18.542  0.00  0.00    +0.000 C 
ATOM     17  O   UNL     1       1.985   6.388  17.705  0.00  0.00    +0.000 OA
ATOM     18  H   UNL     1       3.342   7.256  20.382  0.00  0.00    +0.000 HD
BRANCH  16  19
ATOM     19  C   UNL     1       2.337   8.608  18.543  0.00  0.00    +0.000 C 
BRANCH  19  20
ATOM     20  C   UNL     1       1.009   8.972  17.882  0.00  0.00    +0.000 C 
BRANCH  20  21
ATOM     21  N   UNL     1       0.218   9.940  18.643  0.00  0.00    +0.000 N 
ATOM     22  C   UNL     1       0.908  10.710  19.673  0.00  0.00    +0.000 C 
ATOM     23  C   UNL     1      -0.047  11.317  20.687  0.00  0.00    +0.000 C 
ATOM     24  C   UNL     1      -1.088  12.136  19.946  0.00  0.00    +0.000 C 
ATOM     25  C   UNL     1      -1.868  11.246  18.993  0.00  0.00    +0.000 C 
ATOM     26  C   UNL     1      -1.021  10.314  18.138  0.00  0.00    +0.000 C 
ATOM     27  O   UNL     1      -1.471   9.844  17.094  0.00  0.00    +0.000 OA
ENDBRANCH  20  21
ENDBRANCH  19  20
ENDBRANCH  16  19
ENDBRANCH   7  15
TORSDOF 5
ENDMDL
MODEL 6
REMARK VINA RESULT:      -7.6      2.724      4.603
REMARK  Name = 
REMARK  6 active torsions:
REMARK  status: ('A' for Active; 'I' for Inactive)
REMARK    1  A    between atoms: C_1  and  C_2
REMARK    2  A    between atoms: N_6  and  C_7
REMARK    3  A    between atoms: C_13  and  N_14
REMARK    4  A    between atoms: C_15  and  C_17
REMARK    5  A    between atoms: C_17  and  C_18
REMARK    6  A    between atoms: C_18  and  N_19
REMARK                            x       y       z     vdW  Elec       q    Type
REMARK                         _______ _______ _______ _____ _____    ______ ____
ROOT
ATOM      1  C   UNL     1       3.787   5.447  18.547  0.00  0.00    +0.000 A 
ATOM      2  C   UNL     1       5.029   4.846  18.861  0.00  0.00    +0.000 A 
ATOM      3  C   UNL     1       6.254   5.408  18.496  0.00  0.00    +0.000 A 
ATOM      4  C   UNL     1       6.271   6.594  17.783  0.00  0.00    +0.000 A 
ATOM      5 CL   UNL     1       7.775   7.332  17.386  0.00  0.00    +0.000 Cl
ATOM      6  C   UNL     1       5.077   7.208  17.422  0.00  0.00    +0.000 A 
ATOM      7  C   UNL     1       3.845   6.648  17.802  0.00  0.00    +0.000 A 
ENDROOT
BRANCH   1  13
ATOM      8  C   UNL     1       2.330   1.793  18.561  0.00  0.00    +0.000 C 
ATOM      9  C   UNL     1       1.220   2.849  18.511  0.00  0.00    +0.000 C 
ATOM     10  C   UNL     1       0.552   3.040  19.881  0.00  0.00    +0.000 C 
ATOM     11  C   UNL     1       1.440   3.796  20.865  0.00  0.00    +0.000 C 
ATOM     12  C   UNL     1       1.990   5.092  20.268  0.00  0.00    +0.000 C 
ATOM     13  N   UNL     1       2.639   4.801  18.997  0.00  0.00    +0.000 N 
ATOM     14  C   UNL     1       1.754   4.194  17.985  0.00  0.00    +0.000 C 
ENDBRANCH   1  13
BRANCH   7  15
ATOM     15  N   UNL     1       2.704   7.404  17.458  0.00  0.00    +0.000 N 
ATOM     16  C   UNL     1       2.107   8.241  18.387  0.00  0.00    +0.000 C 
ATOM     17  O   UNL     1       2.390   8.302  19.579  0.00  0.00    +0.000 OA
ATOM     18  H   UNL     1       2.696   7.769  16.516  0.00  0.00    +0.000 HD
BRANCH  16  19
ATOM     19  C   UNL     1       1.029   9.123  17.782  0.00  0.00    +0.000 C 
BRANCH  19  20
ATOM     20  C   UNL     1       0.379   9.980  18.866  0.00  0.00    +0.000 C 
BRANCH  20  21
ATOM     21  N   UNL     1      -0.916  10.540  18.477  0.00  0.00    +0.000 N 
ATOM     22  C   UNL     1      -1.582   9.952  17.319  0.00  0.00    +0.000 C 
ATOM     23  C   UNL     1      -2.641  10.866  16.729  0.00  0.00    +0.000 C 
ATOM     24  C   UNL     1      -3.616  11.254  17.826  0.00  0.00    +0.000 C 
ATOM     25  C   UNL     1      -2.884  11.989  18.936  0.00  0.00    +0.000 C 
ATOM     26  C   UNL     1      -1.586  11.338  19.396  0.00  0.00    +0.000 C 
ATOM     27  O   UNL     1      -1.116  11.599  20.503  0.00  0.00    +0.000 OA
ENDBRANCH  20  21
ENDBRANCH  19  20
ENDBRANCH  16  19
ENDBRANCH   7  15
TORSDOF 5
ENDMDL
MODEL 7
REMARK VINA RESULT:      -7.6      1.771      2.443
REMARK  Name = 
REMARK  6 active torsions:
REMARK  status: ('A' for Active; 'I' for Inactive)
REMARK    1  A    between atoms: C_1  and  C_2
REMARK    2  A    between atoms: N_6  and  C_7
REMARK    3  A    between atoms: C_13  and  N_14
REMARK    4  A    between atoms: C_15  and  C_17
REMARK    5  A    between atoms: C_17  and  C_18
REMARK    6  A    between atoms: C_18  and  N_19
REMARK                            x       y       z     vdW  Elec       q    Type
REMARK                         _______ _______ _______ _____ _____    ______ ____
ROOT
ATOM      1  C   UNL     1       4.530   4.460  19.240  0.00  0.00    +0.000 A 
ATOM      2  C   UNL     1       4.460   3.077  19.529  0.00  0.00    +0.000 A 
ATOM      3  C   UNL     1       3.443   2.518  20.307  0.00  0.00    +0.000 A 
ATOM      4  C   UNL     1       2.465   3.341  20.837  0.00  0.00    +0.000 A 
ATOM      5 CL   UNL     1       1.169   2.657  21.740  0.00  0.00    +0.000 Cl
ATOM      6  C   UNL     1       2.507   4.712  20.609  0.00  0.00    +0.000 A 
ATOM      7  C   UNL     1       3.523   5.270  19.815  0.00  0.00    +0.000 A 
ENDROOT
BRANCH   1  13
ATOM      8  C   UNL     1       4.977   6.575  15.952  0.00  0.00    +0.000 C 
ATOM      9  C   UNL     1       6.065   5.505  16.095  0.00  0.00    +0.000 C 
ATOM     10  C   UNL     1       7.397   6.106  16.572  0.00  0.00    +0.000 C 
ATOM     11  C   UNL     1       7.368   6.494  18.047  0.00  0.00    +0.000 C 
ATOM     12  C   UNL     1       6.859   5.357  18.934  0.00  0.00    +0.000 C 
ATOM     13  N   UNL     1       5.577   4.885  18.427  0.00  0.00    +0.000 N 
ATOM     14  C   UNL     1       5.619   4.377  17.042  0.00  0.00    +0.000 C 
ENDBRANCH   1  13
BRANCH   7  15
ATOM     15  N   UNL     1       3.415   6.659  19.579  0.00  0.00    +0.000 N 
ATOM     16  C   UNL     1       2.572   7.140  18.590  0.00  0.00    +0.000 C 
ATOM     17  O   UNL     1       1.980   6.457  17.760  0.00  0.00    +0.000 OA
ATOM     18  H   UNL     1       3.450   7.240  20.404  0.00  0.00    +0.000 HD
BRANCH  16  19
ATOM     19  C   UNL     1       2.428   8.651  18.620  0.00  0.00    +0.000 C 
BRANCH  19  20
ATOM     20  C   UNL     1       0.956   9.043  18.507  0.00  0.00    +0.000 C 
BRANCH  20  21
ATOM     21  N   UNL     1       0.380   9.538  19.758  0.00  0.00    +0.000 N 
ATOM     22  C   UNL     1       0.786   8.875  20.993  0.00  0.00    +0.000 C 
ATOM     23  C   UNL     1      -0.180   9.130  22.137  0.00  0.00    +0.000 C 
ATOM     24  C   UNL     1      -0.349  10.628  22.308  0.00  0.00    +0.000 C 
ATOM     25  C   UNL     1      -0.910  11.237  21.035  0.00  0.00    +0.000 C 
ATOM     26  C   UNL     1      -0.232  10.785  19.748  0.00  0.00    +0.000 C 
ATOM     27  O   UNL     1      -0.319  11.464  18.726  0.00  0.00    +0.000 OA
ENDBRANCH  20  21
ENDBRANCH  19  20
ENDBRANCH  16  19
ENDBRANCH   7  15
TORSDOF 5
ENDMDL
MODEL 8
REMARK VINA RESULT:      -7.6      1.366      1.494
REMARK  Name = 
REMARK  6 active torsions:
REMARK  status: ('A' for Active; 'I' for Inactive)
REMARK    1  A    between atoms: C_1  and  C_2
REMARK    2  A    between atoms: N_6  and  C_7
REMARK    3  A    between atoms: C_13  and  N_14
REMARK    4  A    between atoms: C_15  and  C_17
REMARK    5  A    between atoms: C_17  and  C_18
REMARK    6  A    between atoms: C_18  and  N_19
REMARK                            x       y       z     vdW  Elec       q    Type
REMARK                         _______ _______ _______ _____ _____    ______ ____
ROOT
ATOM      1  C   UNL     1       3.937   4.918  18.457  0.00  0.00    +0.000 A 
ATOM      2  C   UNL     1       3.897   3.739  17.676  0.00  0.00    +0.000 A 
ATOM      3  C   UNL     1       2.828   2.841  17.718  0.00  0.00    +0.000 A 
ATOM      4  C   UNL     1       1.762   3.095  18.563  0.00  0.00    +0.000 A 
ATOM      5 CL   UNL     1       0.407   2.032  18.573  0.00  0.00    +0.000 Cl
ATOM      6  C   UNL     1       1.767   4.224  19.373  0.00  0.00    +0.000 A 
ATOM      7  C   UNL     1       2.838   5.132  19.321  0.00  0.00    +0.000 A 
ENDROOT
BRANCH   1  13
ATOM      8  C   UNL     1       7.774   4.512  17.692  0.00  0.00    +0.000 C 
ATOM      9  C   UNL     1       7.494   5.743  18.561  0.00  0.00    +0.000 C 
ATOM     10  C   UNL     1       7.546   7.042  17.743  0.00  0.00    +0.000 C 
ATOM     11  C   UNL     1       6.329   7.212  16.837  0.00  0.00    +0.000 C 
ATOM     12  C   UNL     1       5.014   7.019  17.593  0.00  0.00    +0.000 C 
ATOM     13  N   UNL     1       5.046   5.745  18.299  0.00  0.00    +0.000 N 
ATOM     14  C   UNL     1       6.139   5.619  19.282  0.00  0.00    +0.000 C 
ENDBRANCH   1  13
BRANCH   7  15
ATOM     15  N   UNL     1       2.694   6.287  20.122  0.00  0.00    +0.000 N 
ATOM     16  C   UNL     1       2.087   7.424  19.614  0.00  0.00    +0.000 C 
ATOM     17  O   UNL     1       1.766   7.601  18.444  0.00  0.00    +0.000 OA
ATOM     18  H   UNL     1       2.485   6.112  21.095  0.00  0.00    +0.000 HD
BRANCH  16  19
ATOM     19  C   UNL     1       1.835   8.482  20.673  0.00  0.00    +0.000 C 
BRANCH  19  20
ATOM     20  C   UNL     1       0.659   9.367  20.265  0.00  0.00    +0.000 C 
BRANCH  20  21
ATOM     21  N   UNL     1       1.034  10.755  19.991  0.00  0.00    +0.000 N 
ATOM     22  C   UNL     1       1.344  11.108  18.609  0.00  0.00    +0.000 C 
ATOM     23  C   UNL     1       2.146  12.392  18.500  0.00  0.00    +0.000 C 
ATOM     24  C   UNL     1       1.402  13.496  19.230  0.00  0.00    +0.000 C 
ATOM     25  C   UNL     1       1.238  13.131  20.695  0.00  0.00    +0.000 C 
ATOM     26  C   UNL     1       0.753  11.712  20.959  0.00  0.00    +0.000 C 
ATOM     27  O   UNL     1       0.224  11.423  22.031  0.00  0.00    +0.000 OA
ENDBRANCH  20  21
ENDBRANCH  19  20
ENDBRANCH  16  19
ENDBRANCH   7  15
TORSDOF 5
ENDMDL
MODEL 9
REMARK VINA RESULT:      -7.5      1.966      2.263
REMARK  Name = 
REMARK  6 active torsions:
REMARK  status: ('A' for Active; 'I' for Inactive)
REMARK    1  A    between atoms: C_1  and  C_2
REMARK    2  A    between atoms: N_6  and  C_7
REMARK    3  A    between atoms: C_13  and  N_14
REMARK    4  A    between atoms: C_15  and  C_17
REMARK    5  A    between atoms: C_17  and  C_18
REMARK    6  A    between atoms: C_18  and  N_19
REMARK                            x       y       z     vdW  Elec       q    Type
REMARK                         _______ _______ _______ _____ _____    ______ ____
ROOT
ATOM      1  C   UNL     1       3.973   4.376  18.360  0.00  0.00    +0.000 A 
ATOM      2  C   UNL     1       4.212   3.184  19.085  0.00  0.00    +0.000 A 
ATOM      3  C   UNL     1       3.355   2.725  20.089  0.00  0.00    +0.000 A 
ATOM      4  C   UNL     1       2.230   3.464  20.409  0.00  0.00    +0.000 A 
ATOM      5 CL   UNL     1       1.131   2.875  21.597  0.00  0.00    +0.000 Cl
ATOM      6  C   UNL     1       1.967   4.658  19.748  0.00  0.00    +0.000 A 
ATOM      7  C   UNL     1       2.823   5.111  18.730  0.00  0.00    +0.000 A 
ENDROOT
BRANCH   1  13
ATOM      8  C   UNL     1       7.880   4.633  17.976  0.00  0.00    +0.000 C 
ATOM      9  C   UNL     1       7.151   5.626  17.064  0.00  0.00    +0.000 C 
ATOM     10  C   UNL     1       7.115   5.141  15.606  0.00  0.00    +0.000 C 
ATOM     11  C   UNL     1       6.135   3.990  15.396  0.00  0.00    +0.000 C 
ATOM     12  C   UNL     1       4.752   4.297  15.972  0.00  0.00    +0.000 C 
ATOM     13  N   UNL     1       4.887   4.705  17.364  0.00  0.00    +0.000 N 
ATOM     14  C   UNL     1       5.723   5.903  17.570  0.00  0.00    +0.000 C 
ENDBRANCH   1  13
BRANCH   7  15
ATOM     15  N   UNL     1       2.409   6.289  18.070  0.00  0.00    +0.000 N 
ATOM     16  C   UNL     1       2.318   7.487  18.760  0.00  0.00    +0.000 C 
ATOM     17  O   UNL     1       2.430   7.624  19.973  0.00  0.00    +0.000 OA
ATOM     18  H   UNL     1       2.737   6.388  17.120  0.00  0.00    +0.000 HD
BRANCH  16  19
ATOM     19  C   UNL     1       2.061   8.675  17.849  0.00  0.00    +0.000 C 
BRANCH  19  20
ATOM     20  C   UNL     1       0.725   9.327  18.198  0.00  0.00    +0.000 C 
BRANCH  20  21
ATOM     21  N   UNL     1       0.843  10.446  19.135  0.00  0.00    +0.000 N 
ATOM     22  C   UNL     1       1.315  11.721  18.605  0.00  0.00    +0.000 C 
ATOM     23  C   UNL     1       1.836  12.647  19.690  0.00  0.00    +0.000 C 
ATOM     24  C   UNL     1       0.758  12.818  20.744  0.00  0.00    +0.000 C 
ATOM     25  C   UNL     1       0.414  11.472  21.359  0.00  0.00    +0.000 C 
ATOM     26  C   UNL     1       0.198  10.342  20.362  0.00  0.00    +0.000 C 
ATOM     27  O   UNL     1      -0.442   9.341  20.682  0.00  0.00    +0.000 OA
ENDBRANCH  20  21
ENDBRANCH  19  20
ENDBRANCH  16  19
ENDBRANCH   7  15
TORSDOF 5
ENDMDL
