MODEL 1
REMARK VINA RESULT:      -7.2      0.000      0.000
REMARK  Name = 
REMARK  6 active torsions:
REMARK  status: ('A' for Active; 'I' for Inactive)
REMARK    1  A    between atoms: C_1  and  C_2
REMARK    2  A    between atoms: C_2  and  C_3
REMARK    3  A    between atoms: C_3  and  N_4
REMARK    4  A    between atoms: C_5  and  O_7
REMARK    5  A    between atoms: O_7  and  C_8
REMARK    6  A    between atoms: C_14  and  N_15
REMARK                            x       y       z     vdW  Elec       q    Type
REMARK                         _______ _______ _______ _____ _____    ______ ____
ROOT
ATOM      1  C   UNL     1       5.716   4.947  16.476  0.00  0.00    +0.000 A 
ATOM      2  C   UNL     1       5.340   6.298  16.675  0.00  0.00    +0.000 A 
ATOM      3  C   UNL     1       4.164   6.608  17.372  0.00  0.00    +0.000 A 
ATOM      4  C   UNL     1       3.382   5.564  17.873  0.00  0.00    +0.000 A 
ATOM      5  C   UNL     1       3.746   4.253  17.687  0.00  0.00    +0.000 A 
ATOM      6  C   UNL     1       4.901   3.918  16.980  0.00  0.00    +0.000 A 
ATOM      7  C   UNL     1       2.805   3.314  18.364  0.00  0.00    +0.000 C 
ATOM      8  C   UNL     1       1.690   4.241  18.898  0.00  0.00    +0.000 C 
ATOM      9  C   UNL     1       2.142   5.697  18.674  0.00  0.00    +0.000 C 
ENDROOT
BRANCH   7  10
ATOM     10  N   UNL     1       3.470   2.596  19.452  0.00  0.00    +0.000 NA
ATOM     11  H   UNL     1       2.891   2.627  20.321  0.00  0.00    +0.000 HD
ATOM     12  H   UNL     1       4.397   3.044  19.645  0.00  0.00    +0.000 HD
ENDBRANCH   7  10
BRANCH   1  13
ATOM     13  O   UNL     1       6.845   4.618  15.803  0.00  0.00    +0.000 OA
BRANCH  13  15
ATOM     14  N   UNL     1       6.310   3.666  13.728  0.00  0.00    +0.000 N 
ATOM     15  C   UNL     1       6.974   4.602  14.450  0.00  0.00    +0.000 C 
ATOM     16  O   UNL     1       7.707   5.409  13.891  0.00  0.00    +0.000 OA
ATOM     17  H   UNL     1       5.674   3.020  14.225  0.00  0.00    +0.000 HD
BRANCH  14  18
ATOM     18  C   UNL     1       6.483   3.545  12.290  0.00  0.00    +0.000 C 
BRANCH  18  20
ATOM     19  C   UNL     1       4.186   3.212  11.275  0.00  0.00    +0.000 C 
ATOM     20  C   UNL     1       5.501   2.541  11.675  0.00  0.00    +0.000 C 
ENDBRANCH  18  20
ENDBRANCH  14  18
ENDBRANCH  13  15
ENDBRANCH   1  13
TORSDOF 5
ENDMDL
MODEL 2
REMARK VINA RESULT:      -7.2      0.817      1.028
REMARK  Name = 
REMARK  6 active torsions:
REMARK  status: ('A' for Active; 'I' for Inactive)
REMARK    1  A    between atoms: C_1  and  C_2
REMARK    2  A    between atoms: C_2  and  C_3
REMARK    3  A    between atoms: C_3  and  N_4
REMARK    4  A    between atoms: C_5  and  O_7
REMARK    5  A    between atoms: O_7  and  C_8
REMARK    6  A    between atoms: C_14  and  N_15
REMARK                            x       y       z     vdW  Elec       q    Type
REMARK                         _______ _______ _______ _____ _____    ______ ____
ROOT
ATOM      1  C   UNL     1       5.509   4.552  16.581  0.00  0.00    +0.000 A 
ATOM      2  C   UNL     1       5.255   5.766  17.265  0.00  0.00    +0.000 A 
ATOM      3  C   UNL     1       4.075   5.925  18.006  0.00  0.00    +0.000 A 
ATOM      4  C   UNL     1       3.167   4.865  18.064  0.00  0.00    +0.000 A 
ATOM      5  C   UNL     1       3.413   3.685  17.408  0.00  0.00    +0.000 A 
ATOM      6  C   UNL     1       4.569   3.508  16.648  0.00  0.00    +0.000 A 
ATOM      7  C   UNL     1       2.347   2.673  17.666  0.00  0.00    +0.000 C 
ATOM      8  C   UNL     1       1.297   3.455  18.489  0.00  0.00    +0.000 C 
ATOM      9  C   UNL     1       1.901   4.830  18.835  0.00  0.00    +0.000 C 
ENDROOT
BRANCH   7  10
ATOM     10  N   UNL     1       2.874   1.534  18.418  0.00  0.00    +0.000 NA
ATOM     11  H   UNL     1       2.228   1.277  19.197  0.00  0.00    +0.000 HD
ATOM     12  H   UNL     1       3.807   1.787  18.818  0.00  0.00    +0.000 HD
ENDBRANCH   7  10
BRANCH   1  13
ATOM     13  O   UNL     1       6.638   4.371  15.855  0.00  0.00    +0.000 OA
BRANCH  13  15
ATOM     14  N   UNL     1       6.324   3.439  13.725  0.00  0.00    +0.000 N 
ATOM     15  C   UNL     1       6.724   4.477  14.502  0.00  0.00    +0.000 C 
ATOM     16  O   UNL     1       7.187   5.490  13.991  0.00  0.00    +0.000 OA
ATOM     17  H   UNL     1       5.909   2.612  14.185  0.00  0.00    +0.000 HD
BRANCH  14  18
ATOM     18  C   UNL     1       6.480   3.462  12.281  0.00  0.00    +0.000 C 
BRANCH  18  20
ATOM     19  C   UNL     1       6.377   1.227  11.093  0.00  0.00    +0.000 C 
ATOM     20  C   UNL     1       5.578   2.433  11.590  0.00  0.00    +0.000 C 
ENDBRANCH  18  20
ENDBRANCH  14  18
ENDBRANCH  13  15
ENDBRANCH   1  13
TORSDOF 5
ENDMDL
MODEL 3
REMARK VINA RESULT:      -7.2      1.371      1.462
REMARK  Name = 
REMARK  6 active torsions:
REMARK  status: ('A' for Active; 'I' for Inactive)
REMARK    1  A    between atoms: C_1  and  C_2
REMARK    2  A    between atoms: C_2  and  C_3
REMARK    3  A    between atoms: C_3  and  N_4
REMARK    4  A    between atoms: C_5  and  O_7
REMARK    5  A    between atoms: O_7  and  C_8
REMARK    6  A    between atoms: C_14  and  N_15
REMARK                            x       y       z     vdW  Elec       q    Type
REMARK                         _______ _______ _______ _____ _____    ______ ____
ROOT
ATOM      1  C   UNL     1       5.155   4.198  17.351  0.00  0.00    +0.000 A 
ATOM      2  C   UNL     1       5.383   5.112  18.409  0.00  0.00    +0.000 A 
ATOM      3  C   UNL     1       4.396   5.327  19.381  0.00  0.00    +0.000 A 
ATOM      4  C   UNL     1       3.197   4.617  19.293  0.00  0.00    +0.000 A 
ATOM      5  C   UNL     1       2.974   3.725  18.273  0.00  0.00    +0.000 A 
ATOM      6  C   UNL     1       3.932   3.508  17.282  0.00  0.00    +0.000 A 
ATOM      7  C   UNL     1       1.660   3.033  18.417  0.00  0.00    +0.000 C 
ATOM      8  C   UNL     1       1.011   3.738  19.630  0.00  0.00    +0.000 C 
ATOM      9  C   UNL     1       2.067   4.673  20.251  0.00  0.00    +0.000 C 
ENDROOT
BRANCH   7  10
ATOM     10  N   UNL     1       1.844   1.602  18.666  0.00  0.00    +0.000 NA
ATOM     11  H   UNL     1       2.329   1.447  19.578  0.00  0.00    +0.000 HD
ATOM     12  H   UNL     1       2.424   1.190  17.898  0.00  0.00    +0.000 HD
ENDBRANCH   7  10
BRANCH   1  13
ATOM     13  O   UNL     1       6.089   3.973  16.396  0.00  0.00    +0.000 OA
BRANCH  13  15
ATOM     14  N   UNL     1       6.322   3.432  14.126  0.00  0.00    +0.000 N 
ATOM     15  C   UNL     1       5.970   4.321  15.087  0.00  0.00    +0.000 C 
ATOM     16  O   UNL     1       5.575   5.440  14.781  0.00  0.00    +0.000 OA
ATOM     17  H   UNL     1       6.620   2.486  14.416  0.00  0.00    +0.000 HD
BRANCH  14  18
ATOM     18  C   UNL     1       6.302   3.783  12.716  0.00  0.00    +0.000 C 
BRANCH  18  20
ATOM     19  C   UNL     1       4.201   3.266  11.397  0.00  0.00    +0.000 C 
ATOM     20  C   UNL     1       5.556   2.740  11.875  0.00  0.00    +0.000 C 
ENDBRANCH  18  20
ENDBRANCH  14  18
ENDBRANCH  13  15
ENDBRANCH   1  13
TORSDOF 5
ENDMDL
MODEL 4
REMARK VINA RESULT:      -7.0      2.989      4.614
REMARK  Name = 
REMARK  6 active torsions:
REMARK  status: ('A' for Active; 'I' for Inactive)
REMARK    1  A    between atoms: C_1  and  C_2
REMARK    2  A    between atoms: C_2  and  C_3
REMARK    3  A    between atoms: C_3  and  N_4
REMARK    4  A    between atoms: C_5  and  O_7
REMARK    5  A    between atoms: O_7  and  C_8
REMARK    6  A    between atoms: C_14  and  N_15
REMARK                            x       y       z     vdW  Elec       q    Type
REMARK                         _______ _______ _______ _____ _____    ______ ____
ROOT
ATOM      1  C   UNL     1       4.352   5.601  16.984  0.00  0.00    +0.000 A 
ATOM      2  C   UNL     1       3.507   6.416  17.777  0.00  0.00    +0.000 A 
ATOM      3  C   UNL     1       2.443   5.845  18.490  0.00  0.00    +0.000 A 
ATOM      4  C   UNL     1       2.243   4.465  18.413  0.00  0.00    +0.000 A 
ATOM      5  C   UNL     1       3.064   3.671  17.650  0.00  0.00    +0.000 A 
ATOM      6  C   UNL     1       4.117   4.217  16.916  0.00  0.00    +0.000 A 
ATOM      7  C   UNL     1       2.709   2.227  17.771  0.00  0.00    +0.000 C 
ATOM      8  C   UNL     1       1.425   2.240  18.632  0.00  0.00    +0.000 C 
ATOM      9  C   UNL     1       1.211   3.682  19.133  0.00  0.00    +0.000 C 
ENDROOT
BRANCH   7  10
ATOM     10  N   UNL     1       3.782   1.474  18.423  0.00  0.00    +0.000 NA
ATOM     11  H   UNL     1       4.694   1.973  18.323  0.00  0.00    +0.000 HD
ATOM     12  H   UNL     1       3.860   0.530  17.979  0.00  0.00    +0.000 HD
ENDBRANCH   7  10
BRANCH   1  13
ATOM     13  O   UNL     1       5.385   6.125  16.282  0.00  0.00    +0.000 OA
BRANCH  13  15
ATOM     14  N   UNL     1       6.813   7.644  17.356  0.00  0.00    +0.000 N 
ATOM     15  C   UNL     1       6.608   6.427  16.794  0.00  0.00    +0.000 C 
ATOM     16  O   UNL     1       7.523   5.616  16.723  0.00  0.00    +0.000 OA
ATOM     17  H   UNL     1       6.013   8.293  17.429  0.00  0.00    +0.000 HD
BRANCH  14  18
ATOM     18  C   UNL     1       8.123   8.053  17.835  0.00  0.00    +0.000 C 
BRANCH  18  20
ATOM     19  C   UNL     1       9.134  10.006  19.092  0.00  0.00    +0.000 C 
ATOM     20  C   UNL     1       8.255   9.578  17.916  0.00  0.00    +0.000 C 
ENDBRANCH  18  20
ENDBRANCH  14  18
ENDBRANCH  13  15
ENDBRANCH   1  13
TORSDOF 5
ENDMDL
MODEL 5
REMARK VINA RESULT:      -7.0      1.589      2.375
REMARK  Name = 
REMARK  6 active torsions:
REMARK  status: ('A' for Active; 'I' for Inactive)
REMARK    1  A    between atoms: C_1  and  C_2
REMARK    2  A    between atoms: C_2  and  C_3
REMARK    3  A    between atoms: C_3  and  N_4
REMARK    4  A    between atoms: C_5  and  O_7
REMARK    5  A    between atoms: O_7  and  C_8
REMARK    6  A    between atoms: C_14  and  N_15
REMARK                            x       y       z     vdW  Elec       q    Type
REMARK                         _______ _______ _______ _____ _____    ______ ____
ROOT
ATOM      1  C   UNL     1       4.243   5.578  18.093  0.00  0.00    +0.000 A 
ATOM      2  C   UNL     1       3.598   6.278  19.142  0.00  0.00    +0.000 A 
ATOM      3  C   UNL     1       2.468   5.730  19.766  0.00  0.00    +0.000 A 
ATOM      4  C   UNL     1       2.002   4.483  19.343  0.00  0.00    +0.000 A 
ATOM      5  C   UNL     1       2.628   3.798  18.331  0.00  0.00    +0.000 A 
ATOM      6  C   UNL     1       3.742   4.330  17.681  0.00  0.00    +0.000 A 
ATOM      7  C   UNL     1       2.005   2.464  18.094  0.00  0.00    +0.000 C 
ATOM      8  C   UNL     1       0.777   2.466  19.034  0.00  0.00    +0.000 C 
ATOM      9  C   UNL     1       0.862   3.727  19.915  0.00  0.00    +0.000 C 
ENDROOT
BRANCH   7  10
ATOM     10  N   UNL     1       2.933   1.383  18.430  0.00  0.00    +0.000 NA
ATOM     11  H   UNL     1       3.919   1.726  18.412  0.00  0.00    +0.000 HD
ATOM     12  H   UNL     1       2.828   0.609  17.734  0.00  0.00    +0.000 HD
ENDBRANCH   7  10
BRANCH   1  13
ATOM     13  O   UNL     1       5.333   6.084  17.470  0.00  0.00    +0.000 OA
BRANCH  13  15
ATOM     14  N   UNL     1       6.418   4.967  15.716  0.00  0.00    +0.000 N 
ATOM     15  C   UNL     1       5.604   5.963  16.142  0.00  0.00    +0.000 C 
ATOM     16  O   UNL     1       5.137   6.766  15.343  0.00  0.00    +0.000 OA
ATOM     17  H   UNL     1       6.770   4.287  16.410  0.00  0.00    +0.000 HD
BRANCH  14  18
ATOM     18  C   UNL     1       6.814   4.847  14.322  0.00  0.00    +0.000 C 
BRANCH  18  20
ATOM     19  C   UNL     1       6.524   3.490  12.203  0.00  0.00    +0.000 C 
ATOM     20  C   UNL     1       5.913   3.875  13.551  0.00  0.00    +0.000 C 
ENDBRANCH  18  20
ENDBRANCH  14  18
ENDBRANCH  13  15
ENDBRANCH   1  13
TORSDOF 5
ENDMDL
MODEL 6
REMARK VINA RESULT:      -7.0      1.667      2.197
REMARK  Name = 
REMARK  6 active torsions:
REMARK  status: ('A' for Active; 'I' for Inactive)
REMARK    1  A    between atoms: C_1  and  C_2
REMARK    2  A    between atoms: C_2  and  C_3
REMARK    3  A    between atoms: C_3  and  N_4
REMARK    4  A    between atoms: C_5  and  O_7
REMARK    5  A    between atoms: O_7  and  C_8
REMARK    6  A    between atoms: C_14  and  N_15
REMARK                            x       y       z     vdW  Elec       q    Type
REMARK                         _______ _______ _______ _____ _____    ______ ____
ROOT
ATOM      1  C   UNL     1       5.126   5.107  18.304  0.00  0.00    +0.000 A 
ATOM      2  C   UNL     1       4.402   5.931  19.201  0.00  0.00    +0.000 A 
ATOM      3  C   UNL     1       3.109   5.568  19.605  0.00  0.00    +0.000 A 
ATOM      4  C   UNL     1       2.559   4.380  19.118  0.00  0.00    +0.000 A 
ATOM      5  C   UNL     1       3.260   3.576  18.253  0.00  0.00    +0.000 A 
ATOM      6  C   UNL     1       4.540   3.925  17.821  0.00  0.00    +0.000 A 
ATOM      7  C   UNL     1       2.510   2.331  17.920  0.00  0.00    +0.000 C 
ATOM      8  C   UNL     1       1.141   2.538  18.608  0.00  0.00    +0.000 C 
ATOM      9  C   UNL     1       1.237   3.811  19.472  0.00  0.00    +0.000 C 
ENDROOT
BRANCH   7  10
ATOM     10  N   UNL     1       3.196   1.148  18.442  0.00  0.00    +0.000 NA
ATOM     11  H   UNL     1       4.108   1.413  18.877  0.00  0.00    +0.000 HD
ATOM     12  H   UNL     1       3.374   0.478  17.658  0.00  0.00    +0.000 HD
ENDBRANCH   7  10
BRANCH   1  13
ATOM     13  O   UNL     1       6.375   5.434  17.894  0.00  0.00    +0.000 OA
BRANCH  13  15
ATOM     14  N   UNL     1       6.464   5.443  15.550  0.00  0.00    +0.000 N 
ATOM     15  C   UNL     1       6.956   5.014  16.739  0.00  0.00    +0.000 C 
ATOM     16  O   UNL     1       7.897   4.231  16.772  0.00  0.00    +0.000 OA
ATOM     17  H   UNL     1       5.690   6.128  15.557  0.00  0.00    +0.000 HD
BRANCH  14  18
ATOM     18  C   UNL     1       6.986   4.954  14.286  0.00  0.00    +0.000 C 
BRANCH  18  20
ATOM     19  C   UNL     1       6.463   3.549  12.244  0.00  0.00    +0.000 C 
ATOM     20  C   UNL     1       6.133   3.816  13.713  0.00  0.00    +0.000 C 
ENDBRANCH  18  20
ENDBRANCH  14  18
ENDBRANCH  13  15
ENDBRANCH   1  13
TORSDOF 5
ENDMDL
MODEL 7
REMARK VINA RESULT:      -7.0      3.413      4.537
REMARK  Name = 
REMARK  6 active torsions:
REMARK  status: ('A' for Active; 'I' for Inactive)
REMARK    1  A    between atoms: C_1  and  C_2
REMARK    2  A    between atoms: C_2  and  C_3
REMARK    3  A    between atoms: C_3  and  N_4
REMARK    4  A    between atoms: C_5  and  O_7
REMARK    5  A    between atoms: O_7  and  C_8
REMARK    6  A    between atoms: C_14  and  N_15
REMARK                            x       y       z     vdW  Elec       q    Type
REMARK                         _______ _______ _______ _____ _____    ______ ____
ROOT
ATOM      1  C   UNL     1       2.983   6.094  18.109  0.00  0.00    +0.000 A 
ATOM      2  C   UNL     1       2.685   6.520  19.426  0.00  0.00    +0.000 A 
ATOM      3  C   UNL     1       2.018   5.660  20.312  0.00  0.00    +0.000 A 
ATOM      4  C   UNL     1       1.667   4.381  19.874  0.00  0.00    +0.000 A 
ATOM      5  C   UNL     1       1.960   3.963  18.600  0.00  0.00    +0.000 A 
ATOM      6  C   UNL     1       2.605   4.805  17.694  0.00  0.00    +0.000 A 
ATOM      7  C   UNL     1       1.558   2.544  18.374  0.00  0.00    +0.000 C 
ATOM      8  C   UNL     1       0.824   2.164  19.681  0.00  0.00    +0.000 C 
ATOM      9  C   UNL     1       1.010   3.324  20.679  0.00  0.00    +0.000 C 
ENDROOT
BRANCH   7  10
ATOM     10  N   UNL     1       2.729   1.694  18.153  0.00  0.00    +0.000 NA
ATOM     11  H   UNL     1       2.498   0.912  17.500  0.00  0.00    +0.000 HD
ATOM     12  H   UNL     1       3.042   1.293  19.068  0.00  0.00    +0.000 HD
ENDBRANCH   7  10
BRANCH   1  13
ATOM     13  O   UNL     1       3.623   6.903  17.231  0.00  0.00    +0.000 OA
BRANCH  13  15
ATOM     14  N   UNL     1       5.881   6.559  17.761  0.00  0.00    +0.000 N 
ATOM     15  C   UNL     1       4.915   6.760  16.832  0.00  0.00    +0.000 C 
ATOM     16  O   UNL     1       5.205   6.841  15.644  0.00  0.00    +0.000 OA
ATOM     17  H   UNL     1       5.600   6.463  18.751  0.00  0.00    +0.000 HD
BRANCH  14  18
ATOM     18  C   UNL     1       7.287   6.491  17.399  0.00  0.00    +0.000 C 
BRANCH  18  20
ATOM     19  C   UNL     1       8.101   8.842  17.877  0.00  0.00    +0.000 C 
ATOM     20  C   UNL     1       8.156   7.374  18.302  0.00  0.00    +0.000 C 
ENDBRANCH  18  20
ENDBRANCH  14  18
ENDBRANCH  13  15
ENDBRANCH   1  13
TORSDOF 5
ENDMDL
MODEL 8
REMARK VINA RESULT:      -6.9      2.003      2.700
REMARK  Name = 
REMARK  6 active torsions:
REMARK  status: ('A' for Active; 'I' for Inactive)
REMARK    1  A    between atoms: C_1  and  C_2
REMARK    2  A    between atoms: C_2  and  C_3
REMARK    3  A    between atoms: C_3  and  N_4
REMARK    4  A    between atoms: C_5  and  O_7
REMARK    5  A    between atoms: O_7  and  C_8
REMARK    6  A    between atoms: C_14  and  N_15
REMARK                            x       y       z     vdW  Elec       q    Type
REMARK                         _______ _______ _______ _____ _____    ______ ____
ROOT
ATOM      1  C   UNL     1       5.026   4.455  18.162  0.00  0.00    +0.000 A 
ATOM      2  C   UNL     1       4.368   3.549  17.295  0.00  0.00    +0.000 A 
ATOM      3  C   UNL     1       3.099   3.052  17.625  0.00  0.00    +0.000 A 
ATOM      4  C   UNL     1       2.497   3.476  18.812  0.00  0.00    +0.000 A 
ATOM      5  C   UNL     1       3.129   4.359  19.651  0.00  0.00    +0.000 A 
ATOM      6  C   UNL     1       4.399   4.853  19.356  0.00  0.00    +0.000 A 
ATOM      7  C   UNL     1       2.275   4.725  20.819  0.00  0.00    +0.000 C 
ATOM      8  C   UNL     1       1.036   3.812  20.661  0.00  0.00    +0.000 C 
ATOM      9  C   UNL     1       1.147   3.102  19.298  0.00  0.00    +0.000 C 
ENDROOT
BRANCH   7  10
ATOM     10  N   UNL     1       1.904   6.140  20.777  0.00  0.00    +0.000 NA
ATOM     11  H   UNL     1       1.557   6.401  19.827  0.00  0.00    +0.000 HD
ATOM     12  H   UNL     1       2.742   6.723  21.005  0.00  0.00    +0.000 HD
ENDBRANCH   7  10
BRANCH   1  13
ATOM     13  O   UNL     1       6.254   4.949  17.870  0.00  0.00    +0.000 OA
BRANCH  13  15
ATOM     14  N   UNL     1       6.362   5.154  15.536  0.00  0.00    +0.000 N 
ATOM     15  C   UNL     1       6.922   4.748  16.703  0.00  0.00    +0.000 C 
ATOM     16  O   UNL     1       8.007   4.180  16.704  0.00  0.00    +0.000 OA
ATOM     17  H   UNL     1       5.461   5.659  15.572  0.00  0.00    +0.000 HD
BRANCH  14  18
ATOM     18  C   UNL     1       6.989   4.883  14.254  0.00  0.00    +0.000 C 
BRANCH  18  20
ATOM     19  C   UNL     1       6.808   3.647  12.050  0.00  0.00    +0.000 C 
ATOM     20  C   UNL     1       6.220   3.828  13.450  0.00  0.00    +0.000 C 
ENDBRANCH  18  20
ENDBRANCH  14  18
ENDBRANCH  13  15
ENDBRANCH   1  13
TORSDOF 5
ENDMDL
MODEL 9
REMARK VINA RESULT:      -6.9      1.289      1.479
REMARK  Name = 
REMARK  6 active torsions:
REMARK  status: ('A' for Active; 'I' for Inactive)
REMARK    1  A    between atoms: C_1  and  C_2
REMARK    2  A    between atoms: C_2  and  C_3
REMARK    3  A    between atoms: C_3  and  N_4
REMARK    4  A    between atoms: C_5  and  O_7
REMARK    5  A    between atoms: O_7  and  C_8
REMARK    6  A    between atoms: C_14  and  N_15
REMARK                            x       y       z     vdW  Elec       q    Type
REMARK                         _______ _______ _______ _____ _____    ______ ____
ROOT
ATOM      1  C   UNL     1       6.086   4.404  16.906  0.00  0.00    +0.000 A 
ATOM      2  C   UNL     1       6.546   4.888  18.155  0.00  0.00    +0.000 A 
ATOM      3  C   UNL     1       5.631   5.207  19.169  0.00  0.00    +0.000 A 
ATOM      4  C   UNL     1       4.267   5.027  18.926  0.00  0.00    +0.000 A 
ATOM      5  C   UNL     1       3.818   4.553  17.718  0.00  0.00    +0.000 A 
ATOM      6  C   UNL     1       4.707   4.247  16.688  0.00  0.00    +0.000 A 
ATOM      7  C   UNL     1       2.337   4.375  17.707  0.00  0.00    +0.000 C 
ATOM      8  C   UNL     1       1.892   4.954  19.071  0.00  0.00    +0.000 C 
ATOM      9  C   UNL     1       3.163   5.259  19.888  0.00  0.00    +0.000 C 
ENDROOT
BRANCH   7  10
ATOM     10  N   UNL     1       1.977   2.962  17.584  0.00  0.00    +0.000 NA
ATOM     11  H   UNL     1       2.092   2.472  18.500  0.00  0.00    +0.000 HD
ATOM     12  H   UNL     1       2.599   2.508  16.875  0.00  0.00    +0.000 HD
ENDBRANCH   7  10
BRANCH   1  13
ATOM     13  O   UNL     1       6.947   4.091  15.908  0.00  0.00    +0.000 OA
BRANCH  13  15
ATOM     14  N   UNL     1       6.356   3.359  13.759  0.00  0.00    +0.000 N 
ATOM     15  C   UNL     1       6.747   4.358  14.589  0.00  0.00    +0.000 C 
ATOM     16  O   UNL     1       6.948   5.484  14.151  0.00  0.00    +0.000 OA
ATOM     17  H   UNL     1       6.165   2.428  14.165  0.00  0.00    +0.000 HD
BRANCH  14  18
ATOM     18  C   UNL     1       6.217   3.566  12.328  0.00  0.00    +0.000 C 
BRANCH  18  20
ATOM     19  C   UNL     1       6.526   1.370  11.103  0.00  0.00    +0.000 C 
ATOM     20  C   UNL     1       5.518   2.386  11.642  0.00  0.00    +0.000 C 
ENDBRANCH  18  20
ENDBRANCH  14  18
ENDBRANCH  13  15
ENDBRANCH   1  13
TORSDOF 5
ENDMDL
