MODEL 1
REMARK VINA RESULT:      -8.3      0.000      0.000
REMARK  Name = 
REMARK  7 active torsions:
REMARK  status: ('A' for Active; 'I' for Inactive)
REMARK    1  A    between atoms: C_1  and  O_2
REMARK    2  A    between atoms: O_2  and  C_3
REMARK    3  A    between atoms: C_6  and  C_7
REMARK    4  A    between atoms: C_7  and  C_8
REMARK    5  A    between atoms: N_10  and  C_11
REMARK    6  A    between atoms: C_14  and  C_15
REMARK    7  A    between atoms: C_18  and  C_19
REMARK                            x       y       z     vdW  Elec       q    Type
REMARK                         _______ _______ _______ _____ _____    ______ ____
ROOT
ATOM      1  C   UNL     1       2.354   7.582  18.995  0.00  0.00    +0.000 A 
ATOM      2  C   UNL     1       1.968   8.341  17.888  0.00  0.00    +0.000 A 
ATOM      3  C   UNL     1       1.051   9.390  18.033  0.00  0.00    +0.000 A 
ATOM      4  C   UNL     1       0.525   9.722  19.291  0.00  0.00    +0.000 A 
ATOM      5  C   UNL     1       0.929   8.961  20.397  0.00  0.00    +0.000 A 
ATOM      6  C   UNL     1       1.810   7.880  20.246  0.00  0.00    +0.000 A 
ENDROOT
BRANCH   4   7
ATOM      7  C   UNL     1      -0.431  10.818  19.406  0.00  0.00    +0.000 A 
ATOM      8  N   UNL     1      -0.280  12.011  19.943  0.00  0.00    +0.000 NA
ATOM      9  N   UNL     1      -1.483  12.667  19.792  0.00  0.00    +0.000 NA
ATOM     10  C   UNL     1      -2.296  11.826  19.183  0.00  0.00    +0.000 A 
ATOM     11  O   UNL     1      -1.691  10.626  18.897  0.00  0.00    +0.000 OA
BRANCH  10  12
ATOM     12  C   UNL     1      -3.702  11.985  18.828  0.00  0.00    +0.000 A 
ATOM     13  C   UNL     1      -4.585  12.574  19.747  0.00  0.00    +0.000 A 
ATOM     14  C   UNL     1      -5.947  12.689  19.460  0.00  0.00    +0.000 A 
ATOM     15  C   UNL     1      -6.446  12.228  18.247  0.00  0.00    +0.000 A 
ATOM     16  C   UNL     1      -5.575  11.655  17.316  0.00  0.00    +0.000 A 
ATOM     17  C   UNL     1      -4.215  11.541  17.603  0.00  0.00    +0.000 A 
ENDBRANCH  10  12
ENDBRANCH   4   7
BRANCH   1  20
ATOM     18  C   UNL     1       2.876   5.171  18.994  0.00  0.00    +0.000 C 
ATOM     19  O   UNL     1       1.716   4.773  19.078  0.00  0.00    +0.000 OA
ATOM     20  N   UNL     1       3.254   6.502  18.890  0.00  0.00    +0.000 N 
ATOM     21  H   UNL     1       4.147   6.682  18.447  0.00  0.00    +0.000 HD
BRANCH  18  22
ATOM     22  C   UNL     1       4.040   4.195  18.983  0.00  0.00    +0.000 C 
BRANCH  22  26
ATOM     23  C   UNL     1       6.906   4.867  15.798  0.00  0.00    +0.000 A 
ATOM     24  C   UNL     1       5.572   4.572  15.521  0.00  0.00    +0.000 A 
ATOM     25  C   UNL     1       4.661   4.353  16.557  0.00  0.00    +0.000 A 
ATOM     26  C   UNL     1       5.075   4.395  17.898  0.00  0.00    +0.000 A 
ATOM     27  C   UNL     1       6.411   4.713  18.170  0.00  0.00    +0.000 A 
ATOM     28  C   UNL     1       7.323   4.936  17.127  0.00  0.00    +0.000 A 
BRANCH  23  30
ATOM     29  C   UNL     1       7.080   4.839  13.433  0.00  0.00    +0.000 C 
ATOM     30  O   UNL     1       7.698   5.042  14.697  0.00  0.00    +0.000 OA
ENDBRANCH  23  30
ENDBRANCH  22  26
ENDBRANCH  18  22
ENDBRANCH   1  20
TORSDOF 6
ENDMDL
MODEL 2
REMARK VINA RESULT:      -8.3      2.338      3.006
REMARK  Name = 
REMARK  7 active torsions:
REMARK  status: ('A' for Active; 'I' for Inactive)
REMARK    1  A    between atoms: C_1  and  O_2
REMARK    2  A    between atoms: O_2  and  C_3
REMARK    3  A    between atoms: C_6  and  C_7
REMARK    4  A    between atoms: C_7  and  C_8
REMARK    5  A    between atoms: N_10  and  C_11
REMARK    6  A    between atoms: C_14  and  C_15
REMARK    7  A    between atoms: C_18  and  C_19
REMARK                            x       y       z     vdW  Elec       q    Type
REMARK                         _______ _______ _______ _____ _____    ______ ____
ROOT
ATOM      1  C   UNL     1       2.252   7.483  19.715  0.00  0.00    +0.000 A 
ATOM      2  C   UNL     1       1.975   8.429  18.726  0.00  0.00    +0.000 A 
ATOM      3  C   UNL     1       1.043   9.448  18.961  0.00  0.00    +0.000 A 
ATOM      4  C   UNL     1       0.394   9.562  20.199  0.00  0.00    +0.000 A 
ATOM      5  C   UNL     1       0.689   8.614  21.189  0.00  0.00    +0.000 A 
ATOM      6  C   UNL     1       1.586   7.565  20.939  0.00  0.00    +0.000 A 
ENDROOT
BRANCH   4   7
ATOM      7  C   UNL     1      -0.574  10.633  20.410  0.00  0.00    +0.000 A 
ATOM      8  N   UNL     1      -1.341  11.256  19.538  0.00  0.00    +0.000 NA
ATOM      9  N   UNL     1      -2.074  12.182  20.249  0.00  0.00    +0.000 NA
ATOM     10  C   UNL     1      -1.698  12.074  21.507  0.00  0.00    +0.000 A 
ATOM     11  O   UNL     1      -0.749  11.098  21.690  0.00  0.00    +0.000 OA
BRANCH  10  12
ATOM     12  C   UNL     1      -2.113  12.849  22.671  0.00  0.00    +0.000 A 
ATOM     13  C   UNL     1      -3.388  12.640  23.223  0.00  0.00    +0.000 A 
ATOM     14  C   UNL     1      -3.837  13.406  24.301  0.00  0.00    +0.000 A 
ATOM     15  C   UNL     1      -3.017  14.383  24.852  0.00  0.00    +0.000 A 
ATOM     16  C   UNL     1      -1.739  14.591  24.324  0.00  0.00    +0.000 A 
ATOM     17  C   UNL     1      -1.291  13.825  23.248  0.00  0.00    +0.000 A 
ENDBRANCH  10  12
ENDBRANCH   4   7
BRANCH   1  20
ATOM     18  C   UNL     1       2.783   5.132  19.190  0.00  0.00    +0.000 C 
ATOM     19  O   UNL     1       1.633   4.779  18.937  0.00  0.00    +0.000 OA
ATOM     20  N   UNL     1       3.163   6.426  19.513  0.00  0.00    +0.000 N 
ATOM     21  H   UNL     1       4.127   6.673  19.317  0.00  0.00    +0.000 HD
BRANCH  18  22
ATOM     22  C   UNL     1       3.933   4.140  19.155  0.00  0.00    +0.000 C 
BRANCH  22  26
ATOM     23  C   UNL     1       6.862   4.903  16.049  0.00  0.00    +0.000 A 
ATOM     24  C   UNL     1       5.549   4.553  15.735  0.00  0.00    +0.000 A 
ATOM     25  C   UNL     1       4.618   4.305  16.747  0.00  0.00    +0.000 A 
ATOM     26  C   UNL     1       4.990   4.373  18.098  0.00  0.00    +0.000 A 
ATOM     27  C   UNL     1       6.304   4.746  18.407  0.00  0.00    +0.000 A 
ATOM     28  C   UNL     1       7.237   4.998  17.388  0.00  0.00    +0.000 A 
BRANCH  23  30
ATOM     29  C   UNL     1       7.116   4.832  13.692  0.00  0.00    +0.000 C 
ATOM     30  O   UNL     1       7.678   5.101  14.970  0.00  0.00    +0.000 OA
ENDBRANCH  23  30
ENDBRANCH  22  26
ENDBRANCH  18  22
ENDBRANCH   1  20
TORSDOF 6
ENDMDL
MODEL 3
REMARK VINA RESULT:      -8.3      0.440      1.336
REMARK  Name = 
REMARK  7 active torsions:
REMARK  status: ('A' for Active; 'I' for Inactive)
REMARK    1  A    between atoms: C_1  and  O_2
REMARK    2  A    between atoms: O_2  and  C_3
REMARK    3  A    between atoms: C_6  and  C_7
REMARK    4  A    between atoms: C_7  and  C_8
REMARK    5  A    between atoms: N_10  and  C_11
REMARK    6  A    between atoms: C_14  and  C_15
REMARK    7  A    between atoms: C_18  and  C_19
REMARK                            x       y       z     vdW  Elec       q    Type
REMARK                         _______ _______ _______ _____ _____    ______ ____
ROOT
ATOM      1  C   UNL     1       2.254   7.639  19.431  0.00  0.00    +0.000 A 
ATOM      2  C   UNL     1       1.567   8.009  20.589  0.00  0.00    +0.000 A 
ATOM      3  C   UNL     1       0.674   9.088  20.568  0.00  0.00    +0.000 A 
ATOM      4  C   UNL     1       0.424   9.797  19.384  0.00  0.00    +0.000 A 
ATOM      5  C   UNL     1       1.110   9.408  18.224  0.00  0.00    +0.000 A 
ATOM      6  C   UNL     1       2.041   8.359  18.254  0.00  0.00    +0.000 A 
ENDROOT
BRANCH   4   7
ATOM      7  C   UNL     1      -0.509  10.918  19.397  0.00  0.00    +0.000 A 
ATOM      8  N   UNL     1      -0.301  12.181  19.709  0.00  0.00    +0.000 NA
ATOM      9  N   UNL     1      -1.508  12.829  19.557  0.00  0.00    +0.000 NA
ATOM     10  C   UNL     1      -2.380  11.916  19.175  0.00  0.00    +0.000 A 
ATOM     11  O   UNL     1      -1.813  10.672  19.042  0.00  0.00    +0.000 OA
BRANCH  10  12
ATOM     12  C   UNL     1      -3.811  12.045  18.925  0.00  0.00    +0.000 A 
ATOM     13  C   UNL     1      -4.343  11.599  17.703  0.00  0.00    +0.000 A 
ATOM     14  C   UNL     1      -5.699  11.760  17.410  0.00  0.00    +0.000 A 
ATOM     15  C   UNL     1      -6.546  12.358  18.335  0.00  0.00    +0.000 A 
ATOM     16  C   UNL     1      -6.034  12.791  19.562  0.00  0.00    +0.000 A 
ATOM     17  C   UNL     1      -4.680  12.629  19.855  0.00  0.00    +0.000 A 
ENDBRANCH  10  12
ENDBRANCH   4   7
BRANCH   1  20
ATOM     18  C   UNL     1       2.826   5.241  19.532  0.00  0.00    +0.000 C 
ATOM     19  O   UNL     1       1.671   4.819  19.557  0.00  0.00    +0.000 OA
ATOM     20  N   UNL     1       3.181   6.576  19.413  0.00  0.00    +0.000 N 
ATOM     21  H   UNL     1       4.097   6.764  19.019  0.00  0.00    +0.000 HD
BRANCH  18  22
ATOM     22  C   UNL     1       4.009   4.292  19.620  0.00  0.00    +0.000 C 
BRANCH  22  26
ATOM     23  C   UNL     1       6.878   4.700  16.394  0.00  0.00    +0.000 A 
ATOM     24  C   UNL     1       5.581   4.248  16.156  0.00  0.00    +0.000 A 
ATOM     25  C   UNL     1       4.669   4.117  17.206  0.00  0.00    +0.000 A 
ATOM     26  C   UNL     1       5.047   4.408  18.526  0.00  0.00    +0.000 A 
ATOM     27  C   UNL     1       6.344   4.882  18.756  0.00  0.00    +0.000 A 
ATOM     28  C   UNL     1       7.257   5.016  17.698  0.00  0.00    +0.000 A 
BRANCH  23  30
ATOM     29  C   UNL     1       7.016   4.751  14.027  0.00  0.00    +0.000 C 
ATOM     30  O   UNL     1       7.677   4.768  15.286  0.00  0.00    +0.000 OA
ENDBRANCH  23  30
ENDBRANCH  22  26
ENDBRANCH  18  22
ENDBRANCH   1  20
TORSDOF 6
ENDMDL
MODEL 4
REMARK VINA RESULT:      -8.2      1.931      2.591
REMARK  Name = 
REMARK  7 active torsions:
REMARK  status: ('A' for Active; 'I' for Inactive)
REMARK    1  A    between atoms: C_1  and  O_2
REMARK    2  A    between atoms: O_2  and  C_3
REMARK    3  A    between atoms: C_6  and  C_7
REMARK    4  A    between atoms: C_7  and  C_8
REMARK    5  A    between atoms: N_10  and  C_11
REMARK    6  A    between atoms: C_14  and  C_15
REMARK    7  A    between atoms: C_18  and  C_19
REMARK                            x       y       z     vdW  Elec       q    Type
REMARK                         _______ _______ _______ _____ _____    ______ ____
ROOT
ATOM      1  C   UNL     1       2.201   7.546  19.675  0.00  0.00    +0.000 A 
ATOM      2  C   UNL     1       1.493   7.833  20.844  0.00  0.00    +0.000 A 
ATOM      3  C   UNL     1       0.637   8.941  20.900  0.00  0.00    +0.000 A 
ATOM      4  C   UNL     1       0.448   9.765  19.780  0.00  0.00    +0.000 A 
ATOM      5  C   UNL     1       1.154   9.460  18.608  0.00  0.00    +0.000 A 
ATOM      6  C   UNL     1       2.048   8.379  18.565  0.00  0.00    +0.000 A 
ENDROOT
BRANCH   4   7
ATOM      7  C   UNL     1      -0.447  10.913  19.873  0.00  0.00    +0.000 A 
ATOM      8  N   UNL     1      -0.694  11.860  18.991  0.00  0.00    +0.000 NA
ATOM      9  N   UNL     1      -1.618  12.705  19.568  0.00  0.00    +0.000 NA
ATOM     10  C   UNL     1      -1.866  12.227  20.771  0.00  0.00    +0.000 A 
ATOM     11  O   UNL     1      -1.162  11.077  21.034  0.00  0.00    +0.000 OA
BRANCH  10  12
ATOM     12  C   UNL     1      -2.724  12.760  21.824  0.00  0.00    +0.000 A 
ATOM     13  C   UNL     1      -3.450  13.939  21.594  0.00  0.00    +0.000 A 
ATOM     14  C   UNL     1      -4.235  14.506  22.601  0.00  0.00    +0.000 A 
ATOM     15  C   UNL     1      -4.316  13.898  23.848  0.00  0.00    +0.000 A 
ATOM     16  C   UNL     1      -3.611  12.714  24.085  0.00  0.00    +0.000 A 
ATOM     17  C   UNL     1      -2.829  12.148  23.080  0.00  0.00    +0.000 A 
ENDBRANCH  10  12
ENDBRANCH   4   7
BRANCH   1  20
ATOM     18  C   UNL     1       2.687   5.131  19.548  0.00  0.00    +0.000 C 
ATOM     19  O   UNL     1       1.519   4.753  19.483  0.00  0.00    +0.000 OA
ATOM     20  N   UNL     1       3.092   6.457  19.582  0.00  0.00    +0.000 N 
ATOM     21  H   UNL     1       4.029   6.650  19.247  0.00  0.00    +0.000 HD
BRANCH  18  22
ATOM     22  C   UNL     1       3.833   4.133  19.583  0.00  0.00    +0.000 C 
BRANCH  22  26
ATOM     23  C   UNL     1       6.762   4.655  16.428  0.00  0.00    +0.000 A 
ATOM     24  C   UNL     1       5.465   4.227  16.148  0.00  0.00    +0.000 A 
ATOM     25  C   UNL     1       4.534   4.058  17.175  0.00  0.00    +0.000 A 
ATOM     26  C   UNL     1       4.891   4.287  18.513  0.00  0.00    +0.000 A 
ATOM     27  C   UNL     1       6.188   4.737  18.786  0.00  0.00    +0.000 A 
ATOM     28  C   UNL     1       7.121   4.909  17.751  0.00  0.00    +0.000 A 
BRANCH  23  30
ATOM     29  C   UNL     1       6.948   4.742  14.065  0.00  0.00    +0.000 C 
ATOM     30  O   UNL     1       7.581   4.763  15.338  0.00  0.00    +0.000 OA
ENDBRANCH  23  30
ENDBRANCH  22  26
ENDBRANCH  18  22
ENDBRANCH   1  20
TORSDOF 6
ENDMDL
MODEL 5
REMARK VINA RESULT:      -8.2      1.855      2.658
REMARK  Name = 
REMARK  7 active torsions:
REMARK  status: ('A' for Active; 'I' for Inactive)
REMARK    1  A    between atoms: C_1  and  O_2
REMARK    2  A    between atoms: O_2  and  C_3
REMARK    3  A    between atoms: C_6  and  C_7
REMARK    4  A    between atoms: C_7  and  C_8
REMARK    5  A    between atoms: N_10  and  C_11
REMARK    6  A    between atoms: C_14  and  C_15
REMARK    7  A    between atoms: C_18  and  C_19
REMARK                            x       y       z     vdW  Elec       q    Type
REMARK                         _______ _______ _______ _____ _____    ______ ____
ROOT
ATOM      1  C   UNL     1       2.127   7.588  19.780  0.00  0.00    +0.000 A 
ATOM      2  C   UNL     1       1.497   7.858  20.997  0.00  0.00    +0.000 A 
ATOM      3  C   UNL     1       0.693   8.996  21.141  0.00  0.00    +0.000 A 
ATOM      4  C   UNL     1       0.477   9.870  20.065  0.00  0.00    +0.000 A 
ATOM      5  C   UNL     1       1.104   9.582  18.845  0.00  0.00    +0.000 A 
ATOM      6  C   UNL     1       1.948   8.469  18.712  0.00  0.00    +0.000 A 
ENDROOT
BRANCH   4   7
ATOM      7  C   UNL     1      -0.362  11.048  20.250  0.00  0.00    +0.000 A 
ATOM      8  N   UNL     1      -0.327  12.211  19.631  0.00  0.00    +0.000 NA
ATOM      9  N   UNL     1      -1.335  12.978  20.176  0.00  0.00    +0.000 NA
ATOM     10  C   UNL     1      -1.912  12.239  21.102  0.00  0.00    +0.000 A 
ATOM     11  O   UNL     1      -1.352  10.989  21.201  0.00  0.00    +0.000 OA
BRANCH  10  12
ATOM     12  C   UNL     1      -2.996  12.576  22.019  0.00  0.00    +0.000 A 
ATOM     13  C   UNL     1      -2.881  12.242  23.378  0.00  0.00    +0.000 A 
ATOM     14  C   UNL     1      -3.923  12.500  24.271  0.00  0.00    +0.000 A 
ATOM     15  C   UNL     1      -5.091  13.105  23.823  0.00  0.00    +0.000 A 
ATOM     16  C   UNL     1      -5.213  13.459  22.476  0.00  0.00    +0.000 A 
ATOM     17  C   UNL     1      -4.171  13.202  21.586  0.00  0.00    +0.000 A 
ENDBRANCH  10  12
ENDBRANCH   4   7
BRANCH   1  20
ATOM     18  C   UNL     1       2.538   5.157  19.736  0.00  0.00    +0.000 C 
ATOM     19  O   UNL     1       1.373   4.811  19.922  0.00  0.00    +0.000 OA
ATOM     20  N   UNL     1       2.965   6.469  19.598  0.00  0.00    +0.000 N 
ATOM     21  H   UNL     1       3.824   6.610  19.078  0.00  0.00    +0.000 HD
BRANCH  18  22
ATOM     22  C   UNL     1       3.652   4.129  19.624  0.00  0.00    +0.000 C 
BRANCH  22  26
ATOM     23  C   UNL     1       6.495   4.525  16.373  0.00  0.00    +0.000 A 
ATOM     24  C   UNL     1       6.866   4.777  17.693  0.00  0.00    +0.000 A 
ATOM     25  C   UNL     1       5.937   4.651  18.730  0.00  0.00    +0.000 A 
ATOM     26  C   UNL     1       4.606   4.296  18.462  0.00  0.00    +0.000 A 
ATOM     27  C   UNL     1       4.246   4.023  17.137  0.00  0.00    +0.000 A 
ATOM     28  C   UNL     1       5.181   4.148  16.098  0.00  0.00    +0.000 A 
BRANCH  23  30
ATOM     29  C   UNL     1       7.082   4.824  14.095  0.00  0.00    +0.000 C 
ATOM     30  O   UNL     1       7.490   4.701  15.452  0.00  0.00    +0.000 OA
ENDBRANCH  23  30
ENDBRANCH  22  26
ENDBRANCH  18  22
ENDBRANCH   1  20
TORSDOF 6
ENDMDL
MODEL 6
REMARK VINA RESULT:      -8.1      2.271      3.068
REMARK  Name = 
REMARK  7 active torsions:
REMARK  status: ('A' for Active; 'I' for Inactive)
REMARK    1  A    between atoms: C_1  and  O_2
REMARK    2  A    between atoms: O_2  and  C_3
REMARK    3  A    between atoms: C_6  and  C_7
REMARK    4  A    between atoms: C_7  and  C_8
REMARK    5  A    between atoms: N_10  and  C_11
REMARK    6  A    between atoms: C_14  and  C_15
REMARK    7  A    between atoms: C_18  and  C_19
REMARK                            x       y       z     vdW  Elec       q    Type
REMARK                         _______ _______ _______ _____ _____    ______ ____
ROOT
ATOM      1  C   UNL     1       2.301   7.681  19.039  0.00  0.00    +0.000 A 
ATOM      2  C   UNL     1       1.880   8.593  18.069  0.00  0.00    +0.000 A 
ATOM      3  C   UNL     1       0.945   9.586  18.388  0.00  0.00    +0.000 A 
ATOM      4  C   UNL     1       0.436   9.708  19.690  0.00  0.00    +0.000 A 
ATOM      5  C   UNL     1       0.876   8.795  20.659  0.00  0.00    +0.000 A 
ATOM      6  C   UNL     1       1.775   7.770  20.329  0.00  0.00    +0.000 A 
ENDROOT
BRANCH   4   7
ATOM      7  C   UNL     1      -0.539  10.751  19.988  0.00  0.00    +0.000 A 
ATOM      8  N   UNL     1      -1.351  11.399  19.177  0.00  0.00    +0.000 NA
ATOM      9  N   UNL     1      -2.069  12.279  19.958  0.00  0.00    +0.000 NA
ATOM     10  C   UNL     1      -1.640  12.121  21.195  0.00  0.00    +0.000 A 
ATOM     11  O   UNL     1      -0.668  11.155  21.294  0.00  0.00    +0.000 OA
BRANCH  10  12
ATOM     12  C   UNL     1      -2.019  12.836  22.409  0.00  0.00    +0.000 A 
ATOM     13  C   UNL     1      -3.278  12.601  22.985  0.00  0.00    +0.000 A 
ATOM     14  C   UNL     1      -3.694  13.310  24.114  0.00  0.00    +0.000 A 
ATOM     15  C   UNL     1      -2.855  14.256  24.691  0.00  0.00    +0.000 A 
ATOM     16  C   UNL     1      -1.593  14.488  24.138  0.00  0.00    +0.000 A 
ATOM     17  C   UNL     1      -1.177  13.779  23.012  0.00  0.00    +0.000 A 
ENDBRANCH  10  12
ENDBRANCH   4   7
BRANCH   1  20
ATOM     18  C   UNL     1       2.854   5.399  18.284  0.00  0.00    +0.000 C 
ATOM     19  O   UNL     1       1.713   5.076  17.957  0.00  0.00    +0.000 OA
ATOM     20  N   UNL     1       3.220   6.650  18.755  0.00  0.00    +0.000 N 
ATOM     21  H   UNL     1       4.189   6.916  18.619  0.00  0.00    +0.000 HD
BRANCH  18  22
ATOM     22  C   UNL     1       4.006   4.414  18.181  0.00  0.00    +0.000 C 
BRANCH  22  26
ATOM     23  C   UNL     1       6.980   5.085  15.098  0.00  0.00    +0.000 A 
ATOM     24  C   UNL     1       7.109   5.657  16.363  0.00  0.00    +0.000 A 
ATOM     25  C   UNL     1       6.139   5.436  17.345  0.00  0.00    +0.000 A 
ATOM     26  C   UNL     1       5.003   4.660  17.070  0.00  0.00    +0.000 A 
ATOM     27  C   UNL     1       4.891   4.071  15.805  0.00  0.00    +0.000 A 
ATOM     28  C   UNL     1       5.868   4.292  14.821  0.00  0.00    +0.000 A 
BRANCH  23  30
ATOM     29  C   UNL     1       7.743   5.102  12.852  0.00  0.00    +0.000 C 
ATOM     30  O   UNL     1       7.985   5.393  14.223  0.00  0.00    +0.000 OA
ENDBRANCH  23  30
ENDBRANCH  22  26
ENDBRANCH  18  22
ENDBRANCH   1  20
TORSDOF 6
ENDMDL
MODEL 7
REMARK VINA RESULT:      -8.1      1.664      2.174
REMARK  Name = 
REMARK  7 active torsions:
REMARK  status: ('A' for Active; 'I' for Inactive)
REMARK    1  A    between atoms: C_1  and  O_2
REMARK    2  A    between atoms: O_2  and  C_3
REMARK    3  A    between atoms: C_6  and  C_7
REMARK    4  A    between atoms: C_7  and  C_8
REMARK    5  A    between atoms: N_10  and  C_11
REMARK    6  A    between atoms: C_14  and  C_15
REMARK    7  A    between atoms: C_18  and  C_19
REMARK                            x       y       z     vdW  Elec       q    Type
REMARK                         _______ _______ _______ _____ _____    ______ ____
ROOT
ATOM      1  C   UNL     1       2.409   7.449  19.116  0.00  0.00    +0.000 A 
ATOM      2  C   UNL     1       2.092   8.347  18.095  0.00  0.00    +0.000 A 
ATOM      3  C   UNL     1       1.294   9.468  18.359  0.00  0.00    +0.000 A 
ATOM      4  C   UNL     1       0.823   9.731  19.654  0.00  0.00    +0.000 A 
ATOM      5  C   UNL     1       1.158   8.829  20.674  0.00  0.00    +0.000 A 
ATOM      6  C   UNL     1       1.917   7.681  20.402  0.00  0.00    +0.000 A 
ENDROOT
BRANCH   4   7
ATOM      7  C   UNL     1      -0.008  10.904  19.895  0.00  0.00    +0.000 A 
ATOM      8  N   UNL     1       0.034  12.094  19.331  0.00  0.00    +0.000 NA
ATOM      9  N   UNL     1      -0.968  12.842  19.911  0.00  0.00    +0.000 NA
ATOM     10  C   UNL     1      -1.551  12.064  20.801  0.00  0.00    +0.000 A 
ATOM     11  O   UNL     1      -0.998  10.807  20.842  0.00  0.00    +0.000 OA
BRANCH  10  12
ATOM     12  C   UNL     1      -2.632  12.365  21.733  0.00  0.00    +0.000 A 
ATOM     13  C   UNL     1      -2.443  12.142  23.107  0.00  0.00    +0.000 A 
ATOM     14  C   UNL     1      -3.477  12.366  24.019  0.00  0.00    +0.000 A 
ATOM     15  C   UNL     1      -4.710  12.828  23.575  0.00  0.00    +0.000 A 
ATOM     16  C   UNL     1      -4.907  13.070  22.212  0.00  0.00    +0.000 A 
ATOM     17  C   UNL     1      -3.874  12.847  21.303  0.00  0.00    +0.000 A 
ENDBRANCH  10  12
ENDBRANCH   4   7
BRANCH   1  20
ATOM     18  C   UNL     1       2.763   5.009  19.189  0.00  0.00    +0.000 C 
ATOM     19  O   UNL     1       1.636   4.712  19.578  0.00  0.00    +0.000 OA
ATOM     20  N   UNL     1       3.187   6.295  18.890  0.00  0.00    +0.000 N 
ATOM     21  H   UNL     1       3.956   6.374  18.234  0.00  0.00    +0.000 HD
BRANCH  18  22
ATOM     22  C   UNL     1       3.826   3.943  18.981  0.00  0.00    +0.000 C 
BRANCH  22  26
ATOM     23  C   UNL     1       6.761   4.884  15.930  0.00  0.00    +0.000 A 
ATOM     24  C   UNL     1       5.519   4.345  15.597  0.00  0.00    +0.000 A 
ATOM     25  C   UNL     1       4.586   4.042  16.592  0.00  0.00    +0.000 A 
ATOM     26  C   UNL     1       4.888   4.246  17.947  0.00  0.00    +0.000 A 
ATOM     27  C   UNL     1       6.129   4.807  18.273  0.00  0.00    +0.000 A 
ATOM     28  C   UNL     1       7.064   5.114  17.272  0.00  0.00    +0.000 A 
BRANCH  23  30
ATOM     29  C   UNL     1       7.206   4.544  13.626  0.00  0.00    +0.000 C 
ATOM     30  O   UNL     1       7.590   5.119  14.868  0.00  0.00    +0.000 OA
ENDBRANCH  23  30
ENDBRANCH  22  26
ENDBRANCH  18  22
ENDBRANCH   1  20
TORSDOF 6
ENDMDL
MODEL 8
REMARK VINA RESULT:      -8.1      2.308      3.061
REMARK  Name = 
REMARK  7 active torsions:
REMARK  status: ('A' for Active; 'I' for Inactive)
REMARK    1  A    between atoms: C_1  and  O_2
REMARK    2  A    between atoms: O_2  and  C_3
REMARK    3  A    between atoms: C_6  and  C_7
REMARK    4  A    between atoms: C_7  and  C_8
REMARK    5  A    between atoms: N_10  and  C_11
REMARK    6  A    between atoms: C_14  and  C_15
REMARK    7  A    between atoms: C_18  and  C_19
REMARK                            x       y       z     vdW  Elec       q    Type
REMARK                         _______ _______ _______ _____ _____    ______ ____
ROOT
ATOM      1  C   UNL     1       2.100   7.582  19.767  0.00  0.00    +0.000 A 
ATOM      2  C   UNL     1       1.797   8.449  18.715  0.00  0.00    +0.000 A 
ATOM      3  C   UNL     1       0.901   9.509  18.907  0.00  0.00    +0.000 A 
ATOM      4  C   UNL     1       0.315   9.742  20.160  0.00  0.00    +0.000 A 
ATOM      5  C   UNL     1       0.637   8.872  21.212  0.00  0.00    +0.000 A 
ATOM      6  C   UNL     1       1.496   7.782  21.009  0.00  0.00    +0.000 A 
ENDROOT
BRANCH   4   7
ATOM      7  C   UNL     1      -0.616  10.852  20.325  0.00  0.00    +0.000 A 
ATOM      8  N   UNL     1      -1.193  11.608  19.413  0.00  0.00    +0.000 NA
ATOM      9  N   UNL     1      -1.984  12.510  20.091  0.00  0.00    +0.000 NA
ATOM     10  C   UNL     1      -1.830  12.256  21.375  0.00  0.00    +0.000 A 
ATOM     11  O   UNL     1      -0.978  11.203  21.602  0.00  0.00    +0.000 OA
BRANCH  10  12
ATOM     12  C   UNL     1      -2.393  12.942  22.533  0.00  0.00    +0.000 A 
ATOM     13  C   UNL     1      -1.881  14.195  22.910  0.00  0.00    +0.000 A 
ATOM     14  C   UNL     1      -2.358  14.851  24.047  0.00  0.00    +0.000 A 
ATOM     15  C   UNL     1      -3.361  14.274  24.816  0.00  0.00    +0.000 A 
ATOM     16  C   UNL     1      -3.891  13.036  24.443  0.00  0.00    +0.000 A 
ATOM     17  C   UNL     1      -3.415  12.381  23.308  0.00  0.00    +0.000 A 
ENDBRANCH  10  12
ENDBRANCH   4   7
BRANCH   1  20
ATOM     18  C   UNL     1       2.590   5.164  19.763  0.00  0.00    +0.000 C 
ATOM     19  O   UNL     1       1.435   4.783  19.940  0.00  0.00    +0.000 OA
ATOM     20  N   UNL     1       2.976   6.487  19.611  0.00  0.00    +0.000 N 
ATOM     21  H   UNL     1       3.836   6.649  19.100  0.00  0.00    +0.000 HD
BRANCH  18  22
ATOM     22  C   UNL     1       3.737   4.171  19.679  0.00  0.00    +0.000 C 
BRANCH  22  26
ATOM     23  C   UNL     1       6.536   4.534  16.386  0.00  0.00    +0.000 A 
ATOM     24  C   UNL     1       6.918   4.822  17.695  0.00  0.00    +0.000 A 
ATOM     25  C   UNL     1       6.004   4.706  18.746  0.00  0.00    +0.000 A 
ATOM     26  C   UNL     1       4.675   4.326  18.503  0.00  0.00    +0.000 A 
ATOM     27  C   UNL     1       4.303   4.017  17.188  0.00  0.00    +0.000 A 
ATOM     28  C   UNL     1       5.225   4.132  16.135  0.00  0.00    +0.000 A 
BRANCH  23  30
ATOM     29  C   UNL     1       7.085   4.889  14.106  0.00  0.00    +0.000 C 
ATOM     30  O   UNL     1       7.517   4.703  15.449  0.00  0.00    +0.000 OA
ENDBRANCH  23  30
ENDBRANCH  22  26
ENDBRANCH  18  22
ENDBRANCH   1  20
TORSDOF 6
ENDMDL
MODEL 9
REMARK VINA RESULT:      -8.0      0.418      1.339
REMARK  Name = 
REMARK  7 active torsions:
REMARK  status: ('A' for Active; 'I' for Inactive)
REMARK    1  A    between atoms: C_1  and  O_2
REMARK    2  A    between atoms: O_2  and  C_3
REMARK    3  A    between atoms: C_6  and  C_7
REMARK    4  A    between atoms: C_7  and  C_8
REMARK    5  A    between atoms: N_10  and  C_11
REMARK    6  A    between atoms: C_14  and  C_15
REMARK    7  A    between atoms: C_18  and  C_19
REMARK                            x       y       z     vdW  Elec       q    Type
REMARK                         _______ _______ _______ _____ _____    ______ ____
ROOT
ATOM      1  C   UNL     1       2.407   7.513  18.920  0.00  0.00    +0.000 A 
ATOM      2  C   UNL     1       1.857   7.785  20.175  0.00  0.00    +0.000 A 
ATOM      3  C   UNL     1       1.012   8.888  20.353  0.00  0.00    +0.000 A 
ATOM      4  C   UNL     1       0.675   9.722  19.277  0.00  0.00    +0.000 A 
ATOM      5  C   UNL     1       1.224   9.432  18.020  0.00  0.00    +0.000 A 
ATOM      6  C   UNL     1       2.108   8.357  17.849  0.00  0.00    +0.000 A 
ENDROOT
BRANCH   4   7
ATOM      7  C   UNL     1      -0.204  10.865  19.498  0.00  0.00    +0.000 A 
ATOM      8  N   UNL     1       0.074  12.058  19.983  0.00  0.00    +0.000 NA
ATOM      9  N   UNL     1      -1.107  12.769  19.984  0.00  0.00    +0.000 NA
ATOM     10  C   UNL     1      -2.034  11.959  19.511  0.00  0.00    +0.000 A 
ATOM     11  O   UNL     1      -1.530  10.727  19.170  0.00  0.00    +0.000 OA
BRANCH  10  12
ATOM     12  C   UNL     1      -3.466  12.181  19.347  0.00  0.00    +0.000 A 
ATOM     13  C   UNL     1      -4.166  12.924  20.312  0.00  0.00    +0.000 A 
ATOM     14  C   UNL     1      -5.547  13.106  20.215  0.00  0.00    +0.000 A 
ATOM     15  C   UNL     1      -6.249  12.559  19.147  0.00  0.00    +0.000 A 
ATOM     16  C   UNL     1      -5.563  11.832  18.170  0.00  0.00    +0.000 A 
ATOM     17  C   UNL     1      -4.184  11.652  18.267  0.00  0.00    +0.000 A 
ENDBRANCH  10  12
ENDBRANCH   4   7
BRANCH   1  20
ATOM     18  C   UNL     1       2.961   5.110  18.984  0.00  0.00    +0.000 C 
ATOM     19  O   UNL     1       1.855   4.717  19.349  0.00  0.00    +0.000 OA
ATOM     20  N   UNL     1       3.282   6.429  18.701  0.00  0.00    +0.000 N 
ATOM     21  H   UNL     1       4.054   6.576  18.060  0.00  0.00    +0.000 HD
BRANCH  18  22
ATOM     22  C   UNL     1       4.113   4.138  18.790  0.00  0.00    +0.000 C 
BRANCH  22  26
ATOM     23  C   UNL     1       6.904   4.873  15.553  0.00  0.00    +0.000 A 
ATOM     24  C   UNL     1       7.287   5.019  16.886  0.00  0.00    +0.000 A 
ATOM     25  C   UNL     1       6.375   4.784  17.918  0.00  0.00    +0.000 A 
ATOM     26  C   UNL     1       5.048   4.425  17.636  0.00  0.00    +0.000 A 
ATOM     27  C   UNL     1       4.676   4.259  16.296  0.00  0.00    +0.000 A 
ATOM     28  C   UNL     1       5.595   4.493  15.261  0.00  0.00    +0.000 A 
BRANCH  23  30
ATOM     29  C   UNL     1       7.528   5.011  13.269  0.00  0.00    +0.000 C 
ATOM     30  O   UNL     1       7.883   5.150  14.639  0.00  0.00    +0.000 OA
ENDBRANCH  23  30
ENDBRANCH  22  26
ENDBRANCH  18  22
ENDBRANCH   1  20
TORSDOF 6
ENDMDL
