MODEL 1
REMARK VINA RESULT:      -7.8      0.000      0.000
REMARK  Name = 
REMARK  4 active torsions:
REMARK  status: ('A' for Active; 'I' for Inactive)
REMARK    1  A    between atoms: C_2  and  C_3
REMARK    2  A    between atoms: C_14  and  O_15
REMARK    3  A    between atoms: O_15  and  C_16
REMARK    4  A    between atoms: C_16  and  C_17
REMARK                            x       y       z     vdW  Elec       q    Type
REMARK                         _______ _______ _______ _____ _____    ______ ____
ROOT
ATOM      1  O   UNL     1       4.529   3.220  18.620  0.00  0.00    +0.000 OA
ATOM      2  C   UNL     1       4.604   4.366  18.182  0.00  0.00    +0.000 C 
ATOM      3  N   UNL     1       3.874   5.432  18.709  0.00  0.00    +0.000 N 
ATOM      4  C   UNL     1       3.210   5.260  20.020  0.00  0.00    +0.000 C 
ATOM      5  C   UNL     1       1.953   6.156  20.248  0.00  0.00    +0.000 C 
ATOM      6  N   UNL     1       2.150   7.514  19.725  0.00  0.00    +0.000 NA
ATOM      7  C   UNL     1       0.980   8.379  19.721  0.00  0.00    +0.000 C 
ATOM      8  C   UNL     1       1.443   9.525  18.799  0.00  0.00    +0.000 C 
ATOM      9  C   UNL     1       2.427   8.873  17.823  0.00  0.00    +0.000 C 
ATOM     10  C   UNL     1       2.513   7.433  18.304  0.00  0.00    +0.000 C 
ATOM     11  C   UNL     1       3.884   6.800  18.175  0.00  0.00    +0.000 C 
ENDROOT
BRANCH   2  12
ATOM     12  C   UNL     1       5.492   4.584  17.014  0.00  0.00    +0.000 A 
ATOM     13  C   UNL     1       5.024   4.326  15.731  0.00  0.00    +0.000 A 
ATOM     14  C   UNL     1       5.869   4.586  14.674  0.00  0.00    +0.000 A 
ATOM     15  N   UNL     1       7.118   5.071  14.838  0.00  0.00    +0.000 NA
ATOM     16  N   UNL     1       7.598   5.270  16.092  0.00  0.00    +0.000 NA
ATOM     17  C   UNL     1       6.804   5.001  17.150  0.00  0.00    +0.000 A 
ENDBRANCH   2  12
BRANCH   8  18
ATOM     18  O   UNL     1       0.384  10.123  18.059  0.00  0.00    +0.000 OA
BRANCH  18  19
ATOM     19  C   UNL     1      -0.790  10.283  18.850  0.00  0.00    +0.000 C 
BRANCH  19  20
ATOM     20  C   UNL     1      -1.986  10.504  17.977  0.00  0.00    +0.000 A 
ATOM     21  C   UNL     1      -3.032  11.323  18.407  0.00  0.00    +0.000 A 
ATOM     22  C   UNL     1      -4.108  11.567  17.561  0.00  0.00    +0.000 A 
ATOM     23  C   UNL     1      -4.100  10.989  16.304  0.00  0.00    +0.000 A 
ATOM     24  N   UNL     1      -3.104  10.203  15.846  0.00  0.00    +0.000 NA
ATOM     25  C   UNL     1      -2.072   9.977  16.692  0.00  0.00    +0.000 A 
ENDBRANCH  19  20
ENDBRANCH  18  19
ENDBRANCH   8  18
TORSDOF 4
ENDMDL
MODEL 2
REMARK VINA RESULT:      -7.6      0.969      1.222
REMARK  Name = 
REMARK  4 active torsions:
REMARK  status: ('A' for Active; 'I' for Inactive)
REMARK    1  A    between atoms: C_2  and  C_3
REMARK    2  A    between atoms: C_14  and  O_15
REMARK    3  A    between atoms: O_15  and  C_16
REMARK    4  A    between atoms: C_16  and  C_17
REMARK                            x       y       z     vdW  Elec       q    Type
REMARK                         _______ _______ _______ _____ _____    ______ ____
ROOT
ATOM      1  O   UNL     1       4.691   2.982  17.894  0.00  0.00    +0.000 OA
ATOM      2  C   UNL     1       4.768   4.166  17.576  0.00  0.00    +0.000 C 
ATOM      3  N   UNL     1       4.067   5.178  18.231  0.00  0.00    +0.000 N 
ATOM      4  C   UNL     1       3.437   4.877  19.536  0.00  0.00    +0.000 C 
ATOM      5  C   UNL     1       2.198   5.757  19.892  0.00  0.00    +0.000 C 
ATOM      6  N   UNL     1       2.398   7.159  19.508  0.00  0.00    +0.000 NA
ATOM      7  C   UNL     1       1.240   8.031  19.628  0.00  0.00    +0.000 C 
ATOM      8  C   UNL     1       1.692   9.263  18.817  0.00  0.00    +0.000 C 
ATOM      9  C   UNL     1       2.640   8.707  17.750  0.00  0.00    +0.000 C 
ATOM     10  C   UNL     1       2.721   7.224  18.077  0.00  0.00    +0.000 C 
ATOM     11  C   UNL     1       4.080   6.594  17.843  0.00  0.00    +0.000 C 
ENDROOT
BRANCH   2  12
ATOM     12  C   UNL     1       5.626   4.496  16.412  0.00  0.00    +0.000 A 
ATOM     13  C   UNL     1       5.260   4.074  15.139  0.00  0.00    +0.000 A 
ATOM     14  C   UNL     1       6.064   4.442  14.083  0.00  0.00    +0.000 A 
ATOM     15  N   UNL     1       7.181   5.183  14.238  0.00  0.00    +0.000 NA
ATOM     16  N   UNL     1       7.573   5.549  15.485  0.00  0.00    +0.000 NA
ATOM     17  C   UNL     1       6.821   5.183  16.544  0.00  0.00    +0.000 A 
ENDBRANCH   2  12
BRANCH   8  18
ATOM     18  O   UNL     1       0.621   9.946  18.173  0.00  0.00    +0.000 OA
BRANCH  18  19
ATOM     19  C   UNL     1      -0.134  10.732  19.092  0.00  0.00    +0.000 C 
BRANCH  19  20
ATOM     20  C   UNL     1      -1.543  10.891  18.614  0.00  0.00    +0.000 A 
ATOM     21  C   UNL     1      -2.054  10.043  17.630  0.00  0.00    +0.000 A 
ATOM     22  C   UNL     1      -3.383  10.163  17.240  0.00  0.00    +0.000 A 
ATOM     23  C   UNL     1      -4.165  11.126  17.855  0.00  0.00    +0.000 A 
ATOM     24  N   UNL     1      -3.713  11.956  18.818  0.00  0.00    +0.000 NA
ATOM     25  C   UNL     1      -2.414  11.821  19.175  0.00  0.00    +0.000 A 
ENDBRANCH  19  20
ENDBRANCH  18  19
ENDBRANCH   8  18
TORSDOF 4
ENDMDL
MODEL 3
REMARK VINA RESULT:      -7.2      2.120      2.737
REMARK  Name = 
REMARK  4 active torsions:
REMARK  status: ('A' for Active; 'I' for Inactive)
REMARK    1  A    between atoms: C_2  and  C_3
REMARK    2  A    between atoms: C_14  and  O_15
REMARK    3  A    between atoms: O_15  and  C_16
REMARK    4  A    between atoms: C_16  and  C_17
REMARK                            x       y       z     vdW  Elec       q    Type
REMARK                         _______ _______ _______ _____ _____    ______ ____
ROOT
ATOM      1  O   UNL     1       4.851   3.129  18.234  0.00  0.00    +0.000 OA
ATOM      2  C   UNL     1       4.845   4.283  17.811  0.00  0.00    +0.000 C 
ATOM      3  N   UNL     1       4.119   5.311  18.414  0.00  0.00    +0.000 N 
ATOM      4  C   UNL     1       3.573   5.094  19.772  0.00  0.00    +0.000 C 
ATOM      5  C   UNL     1       2.304   5.935  20.118  0.00  0.00    +0.000 C 
ATOM      6  N   UNL     1       2.404   7.307  19.603  0.00  0.00    +0.000 NA
ATOM      7  C   UNL     1       1.205   8.123  19.710  0.00  0.00    +0.000 C 
ATOM      8  C   UNL     1       1.545   9.300  18.772  0.00  0.00    +0.000 C 
ATOM      9  C   UNL     1       2.469   8.702  17.708  0.00  0.00    +0.000 C 
ATOM     10  C   UNL     1       2.652   7.261  18.156  0.00  0.00    +0.000 C 
ATOM     11  C   UNL     1       4.031   6.686  17.904  0.00  0.00    +0.000 C 
ENDROOT
BRANCH   2  12
ATOM     12  C   UNL     1       5.624   4.553  16.579  0.00  0.00    +0.000 A 
ATOM     13  C   UNL     1       5.115   4.178  15.341  0.00  0.00    +0.000 A 
ATOM     14  C   UNL     1       5.853   4.489  14.220  0.00  0.00    +0.000 A 
ATOM     15  N   UNL     1       7.038   5.132  14.281  0.00  0.00    +0.000 NA
ATOM     16  N   UNL     1       7.566   5.449  15.490  0.00  0.00    +0.000 NA
ATOM     17  C   UNL     1       6.879   5.135  16.609  0.00  0.00    +0.000 A 
ENDBRANCH   2  12
BRANCH   8  18
ATOM     18  O   UNL     1       0.406   9.865  18.131  0.00  0.00    +0.000 OA
BRANCH  18  19
ATOM     19  C   UNL     1      -0.551  10.340  19.075  0.00  0.00    +0.000 C 
BRANCH  19  20
ATOM     20  C   UNL     1      -0.087  11.620  19.695  0.00  0.00    +0.000 A 
ATOM     21  C   UNL     1       0.135  12.749  18.903  0.00  0.00    +0.000 A 
ATOM     22  C   UNL     1       0.507  13.947  19.500  0.00  0.00    +0.000 A 
ATOM     23  C   UNL     1       0.638  13.983  20.878  0.00  0.00    +0.000 A 
ATOM     24  N   UNL     1       0.421  12.920  21.679  0.00  0.00    +0.000 NA
ATOM     25  C   UNL     1       0.065  11.764  21.071  0.00  0.00    +0.000 A 
ENDBRANCH  19  20
ENDBRANCH  18  19
ENDBRANCH   8  18
TORSDOF 4
ENDMDL
MODEL 4
REMARK VINA RESULT:      -7.1      1.028      1.521
REMARK  Name = 
REMARK  4 active torsions:
REMARK  status: ('A' for Active; 'I' for Inactive)
REMARK    1  A    between atoms: C_2  and  C_3
REMARK    2  A    between atoms: C_14  and  O_15
REMARK    3  A    between atoms: O_15  and  C_16
REMARK    4  A    between atoms: C_16  and  C_17
REMARK                            x       y       z     vdW  Elec       q    Type
REMARK                         _______ _______ _______ _____ _____    ______ ____
ROOT
ATOM      1  O   UNL     1       4.327   3.067  18.889  0.00  0.00    +0.000 OA
ATOM      2  C   UNL     1       4.427   4.179  18.377  0.00  0.00    +0.000 C 
ATOM      3  N   UNL     1       3.755   5.303  18.859  0.00  0.00    +0.000 N 
ATOM      4  C   UNL     1       3.134   5.239  20.201  0.00  0.00    +0.000 C 
ATOM      5  C   UNL     1       1.919   6.195  20.414  0.00  0.00    +0.000 C 
ATOM      6  N   UNL     1       2.146   7.509  19.799  0.00  0.00    +0.000 NA
ATOM      7  C   UNL     1       1.009   8.416  19.780  0.00  0.00    +0.000 C 
ATOM      8  C   UNL     1       1.478   9.484  18.771  0.00  0.00    +0.000 C 
ATOM      9  C   UNL     1       2.401   8.734  17.805  0.00  0.00    +0.000 C 
ATOM     10  C   UNL     1       2.453   7.326  18.375  0.00  0.00    +0.000 C 
ATOM     11  C   UNL     1       3.795   6.634  18.239  0.00  0.00    +0.000 C 
ENDROOT
BRANCH   2  12
ATOM     12  C   UNL     1       5.278   4.290  17.168  0.00  0.00    +0.000 A 
ATOM     13  C   UNL     1       6.624   4.614  17.296  0.00  0.00    +0.000 A 
ATOM     14  C   UNL     1       7.386   4.662  16.149  0.00  0.00    +0.000 A 
ATOM     15  N   UNL     1       6.879   4.414  14.923  0.00  0.00    +0.000 NA
ATOM     16  N   UNL     1       5.554   4.154  14.788  0.00  0.00    +0.000 NA
ATOM     17  C   UNL     1       4.774   4.124  15.889  0.00  0.00    +0.000 A 
ENDBRANCH   2  12
BRANCH   8  18
ATOM     18  O   UNL     1       0.415  10.074  18.031  0.00  0.00    +0.000 OA
BRANCH  18  19
ATOM     19  C   UNL     1      -0.228  11.113  18.765  0.00  0.00    +0.000 C 
BRANCH  19  20
ATOM     20  C   UNL     1      -1.697  11.126  18.481  0.00  0.00    +0.000 A 
ATOM     21  C   UNL     1      -2.247  10.225  17.565  0.00  0.00    +0.000 A 
ATOM     22  C   UNL     1      -3.621  10.207  17.357  0.00  0.00    +0.000 A 
ATOM     23  C   UNL     1      -4.407  11.089  18.078  0.00  0.00    +0.000 A 
ATOM     24  N   UNL     1      -3.918  11.965  18.980  0.00  0.00    +0.000 NA
ATOM     25  C   UNL     1      -2.576  11.964  19.160  0.00  0.00    +0.000 A 
ENDBRANCH  19  20
ENDBRANCH  18  19
ENDBRANCH   8  18
TORSDOF 4
ENDMDL
MODEL 5
REMARK VINA RESULT:      -6.9      1.458      2.066
REMARK  Name = 
REMARK  4 active torsions:
REMARK  status: ('A' for Active; 'I' for Inactive)
REMARK    1  A    between atoms: C_2  and  C_3
REMARK    2  A    between atoms: C_14  and  O_15
REMARK    3  A    between atoms: O_15  and  C_16
REMARK    4  A    between atoms: C_16  and  C_17
REMARK                            x       y       z     vdW  Elec       q    Type
REMARK                         _______ _______ _______ _____ _____    ______ ____
ROOT
ATOM      1  O   UNL     1       3.944   2.525  17.592  0.00  0.00    +0.000 OA
ATOM      2  C   UNL     1       4.161   3.708  17.839  0.00  0.00    +0.000 C 
ATOM      3  N   UNL     1       3.453   4.427  18.803  0.00  0.00    +0.000 N 
ATOM      4  C   UNL     1       2.618   3.684  19.773  0.00  0.00    +0.000 C 
ATOM      5  C   UNL     1       1.413   4.485  20.359  0.00  0.00    +0.000 C 
ATOM      6  N   UNL     1       1.778   5.876  20.656  0.00  0.00    +0.000 NA
ATOM      7  C   UNL     1       0.687   6.760  21.036  0.00  0.00    +0.000 C 
ATOM      8  C   UNL     1       1.349   8.147  20.901  0.00  0.00    +0.000 C 
ATOM      9  C   UNL     1       2.395   7.978  19.796  0.00  0.00    +0.000 C 
ATOM     10  C   UNL     1       2.311   6.503  19.440  0.00  0.00    +0.000 C 
ATOM     11  C   UNL     1       3.635   5.857  19.084  0.00  0.00    +0.000 C 
ENDROOT
BRANCH   2  12
ATOM     12  C   UNL     1       5.203   4.386  17.031  0.00  0.00    +0.000 A 
ATOM     13  C   UNL     1       6.501   4.487  17.518  0.00  0.00    +0.000 A 
ATOM     14  C   UNL     1       7.446   5.085  16.713  0.00  0.00    +0.000 A 
ATOM     15  N   UNL     1       7.159   5.574  15.488  0.00  0.00    +0.000 NA
ATOM     16  N   UNL     1       5.881   5.529  15.033  0.00  0.00    +0.000 NA
ATOM     17  C   UNL     1       4.927   4.972  15.808  0.00  0.00    +0.000 A 
ENDBRANCH   2  12
BRANCH   8  18
ATOM     18  O   UNL     1       0.441   9.177  20.526  0.00  0.00    +0.000 OA
BRANCH  18  19
ATOM     19  C   UNL     1       0.759   9.724  19.248  0.00  0.00    +0.000 C 
BRANCH  19  20
ATOM     20  C   UNL     1      -0.445  10.371  18.638  0.00  0.00    +0.000 A 
ATOM     21  C   UNL     1      -1.057   9.806  17.517  0.00  0.00    +0.000 A 
ATOM     22  C   UNL     1      -2.210  10.384  16.999  0.00  0.00    +0.000 A 
ATOM     23  C   UNL     1      -2.722  11.508  17.624  0.00  0.00    +0.000 A 
ATOM     24  N   UNL     1      -2.168  12.076  18.715  0.00  0.00    +0.000 NA
ATOM     25  C   UNL     1      -1.043  11.496  19.197  0.00  0.00    +0.000 A 
ENDBRANCH  19  20
ENDBRANCH  18  19
ENDBRANCH   8  18
TORSDOF 4
ENDMDL
MODEL 6
REMARK VINA RESULT:      -6.9      1.959      2.508
REMARK  Name = 
REMARK  4 active torsions:
REMARK  status: ('A' for Active; 'I' for Inactive)
REMARK    1  A    between atoms: C_2  and  C_3
REMARK    2  A    between atoms: C_14  and  O_15
REMARK    3  A    between atoms: O_15  and  C_16
REMARK    4  A    between atoms: C_16  and  C_17
REMARK                            x       y       z     vdW  Elec       q    Type
REMARK                         _______ _______ _______ _____ _____    ______ ____
ROOT
ATOM      1  O   UNL     1       4.499   2.900  18.228  0.00  0.00    +0.000 OA
ATOM      2  C   UNL     1       4.564   4.089  17.923  0.00  0.00    +0.000 C 
ATOM      3  N   UNL     1       3.884   5.091  18.615  0.00  0.00    +0.000 N 
ATOM      4  C   UNL     1       3.297   4.771  19.936  0.00  0.00    +0.000 C 
ATOM      5  C   UNL     1       2.070   5.644  20.344  0.00  0.00    +0.000 C 
ATOM      6  N   UNL     1       2.255   7.052  19.972  0.00  0.00    +0.000 NA
ATOM      7  C   UNL     1       1.101   7.920  20.141  0.00  0.00    +0.000 C 
ATOM      8  C   UNL     1       1.524   9.164  19.332  0.00  0.00    +0.000 C 
ATOM      9  C   UNL     1       2.437   8.623  18.228  0.00  0.00    +0.000 C 
ATOM     10  C   UNL     1       2.531   7.136  18.532  0.00  0.00    +0.000 C 
ATOM     11  C   UNL     1       3.882   6.512  18.245  0.00  0.00    +0.000 C 
ENDROOT
BRANCH   2  12
ATOM     12  C   UNL     1       5.383   4.436  16.736  0.00  0.00    +0.000 A 
ATOM     13  C   UNL     1       4.967   4.044  15.469  0.00  0.00    +0.000 A 
ATOM     14  C   UNL     1       5.736   4.427  14.392  0.00  0.00    +0.000 A 
ATOM     15  N   UNL     1       6.866   5.155  14.523  0.00  0.00    +0.000 NA
ATOM     16  N   UNL     1       7.306   5.490  15.762  0.00  0.00    +0.000 NA
ATOM     17  C   UNL     1       6.589   5.108  16.840  0.00  0.00    +0.000 A 
ENDBRANCH   2  12
BRANCH   8  18
ATOM     18  O   UNL     1       0.432   9.853  18.734  0.00  0.00    +0.000 OA
BRANCH  18  19
ATOM     19  C   UNL     1       0.441  11.241  19.057  0.00  0.00    +0.000 C 
BRANCH  19  20
ATOM     20  C   UNL     1      -0.480  11.520  20.203  0.00  0.00    +0.000 A 
ATOM     21  C   UNL     1      -0.058  11.304  21.517  0.00  0.00    +0.000 A 
ATOM     22  C   UNL     1      -0.902  11.625  22.573  0.00  0.00    +0.000 A 
ATOM     23  C   UNL     1      -2.144  12.163  22.283  0.00  0.00    +0.000 A 
ATOM     24  N   UNL     1      -2.584  12.399  21.030  0.00  0.00    +0.000 NA
ATOM     25  C   UNL     1      -1.745  12.073  20.019  0.00  0.00    +0.000 A 
ENDBRANCH  19  20
ENDBRANCH  18  19
ENDBRANCH   8  18
TORSDOF 4
ENDMDL
MODEL 7
REMARK VINA RESULT:      -6.9      1.841      2.211
REMARK  Name = 
REMARK  4 active torsions:
REMARK  status: ('A' for Active; 'I' for Inactive)
REMARK    1  A    between atoms: C_2  and  C_3
REMARK    2  A    between atoms: C_14  and  O_15
REMARK    3  A    between atoms: O_15  and  C_16
REMARK    4  A    between atoms: C_16  and  C_17
REMARK                            x       y       z     vdW  Elec       q    Type
REMARK                         _______ _______ _______ _____ _____    ______ ____
ROOT
ATOM      1  O   UNL     1       4.516   3.049  18.548  0.00  0.00    +0.000 OA
ATOM      2  C   UNL     1       4.585   4.182  18.078  0.00  0.00    +0.000 C 
ATOM      3  N   UNL     1       3.890   5.270  18.607  0.00  0.00    +0.000 N 
ATOM      4  C   UNL     1       3.280   5.140  19.949  0.00  0.00    +0.000 C 
ATOM      5  C   UNL     1       2.044   6.057  20.206  0.00  0.00    +0.000 C 
ATOM      6  N   UNL     1       2.234   7.398  19.640  0.00  0.00    +0.000 NA
ATOM      7  C   UNL     1       1.075   8.277  19.662  0.00  0.00    +0.000 C 
ATOM      8  C   UNL     1       1.512   9.394  18.692  0.00  0.00    +0.000 C 
ATOM      9  C   UNL     1       2.446   8.705  17.693  0.00  0.00    +0.000 C 
ATOM     10  C   UNL     1       2.536   7.277  18.208  0.00  0.00    +0.000 C 
ATOM     11  C   UNL     1       3.893   6.624  18.037  0.00  0.00    +0.000 C 
ENDROOT
BRANCH   2  12
ATOM     12  C   UNL     1       5.425   4.359  16.869  0.00  0.00    +0.000 A 
ATOM     13  C   UNL     1       4.858   4.233  15.606  0.00  0.00    +0.000 A 
ATOM     14  C   UNL     1       5.666   4.451  14.513  0.00  0.00    +0.000 A 
ATOM     15  N   UNL     1       6.973   4.772  14.622  0.00  0.00    +0.000 NA
ATOM     16  N   UNL     1       7.545   4.840  15.851  0.00  0.00    +0.000 NA
ATOM     17  C   UNL     1       6.785   4.607  16.942  0.00  0.00    +0.000 A 
ENDBRANCH   2  12
BRANCH   8  18
ATOM     18  O   UNL     1       0.429   9.986  17.981  0.00  0.00    +0.000 OA
BRANCH  18  19
ATOM     19  C   UNL     1      -0.702  10.200  18.821  0.00  0.00    +0.000 C 
BRANCH  19  20
ATOM     20  C   UNL     1      -0.731  11.613  19.314  0.00  0.00    +0.000 A 
ATOM     21  C   UNL     1      -1.528  11.963  20.406  0.00  0.00    +0.000 A 
ATOM     22  C   UNL     1      -1.498  13.266  20.891  0.00  0.00    +0.000 A 
ATOM     23  C   UNL     1      -0.662  14.179  20.272  0.00  0.00    +0.000 A 
ATOM     24  N   UNL     1       0.133  13.878  19.224  0.00  0.00    +0.000 NA
ATOM     25  C   UNL     1       0.080  12.604  18.769  0.00  0.00    +0.000 A 
ENDBRANCH  19  20
ENDBRANCH  18  19
ENDBRANCH   8  18
TORSDOF 4
ENDMDL
MODEL 8
REMARK VINA RESULT:      -6.7      2.039      2.469
REMARK  Name = 
REMARK  4 active torsions:
REMARK  status: ('A' for Active; 'I' for Inactive)
REMARK    1  A    between atoms: C_2  and  C_3
REMARK    2  A    between atoms: C_14  and  O_15
REMARK    3  A    between atoms: O_15  and  C_16
REMARK    4  A    between atoms: C_16  and  C_17
REMARK                            x       y       z     vdW  Elec       q    Type
REMARK                         _______ _______ _______ _____ _____    ______ ____
ROOT
ATOM      1  O   UNL     1       4.095   2.325  17.745  0.00  0.00    +0.000 OA
ATOM      2  C   UNL     1       4.296   3.529  17.888  0.00  0.00    +0.000 C 
ATOM      3  N   UNL     1       3.594   4.315  18.801  0.00  0.00    +0.000 N 
ATOM      4  C   UNL     1       2.787   3.644  19.845  0.00  0.00    +0.000 C 
ATOM      5  C   UNL     1       1.580   4.474  20.384  0.00  0.00    +0.000 C 
ATOM      6  N   UNL     1       1.927   5.890  20.556  0.00  0.00    +0.000 NA
ATOM      7  C   UNL     1       0.828   6.787  20.881  0.00  0.00    +0.000 C 
ATOM      8  C   UNL     1       1.465   8.167  20.618  0.00  0.00    +0.000 C 
ATOM      9  C   UNL     1       2.495   7.922  19.512  0.00  0.00    +0.000 C 
ATOM     10  C   UNL     1       2.428   6.420  19.282  0.00  0.00    +0.000 C 
ATOM     11  C   UNL     1       3.757   5.766  18.958  0.00  0.00    +0.000 C 
ENDROOT
BRANCH   2  12
ATOM     12  C   UNL     1       5.314   4.151  17.006  0.00  0.00    +0.000 A 
ATOM     13  C   UNL     1       5.005   4.426  15.679  0.00  0.00    +0.000 A 
ATOM     14  C   UNL     1       5.966   5.045  14.910  0.00  0.00    +0.000 A 
ATOM     15  N   UNL     1       7.180   5.385  15.391  0.00  0.00    +0.000 NA
ATOM     16  N   UNL     1       7.506   5.067  16.670  0.00  0.00    +0.000 NA
ATOM     17  C   UNL     1       6.596   4.437  17.442  0.00  0.00    +0.000 A 
ENDBRANCH   2  12
BRANCH   8  18
ATOM     18  O   UNL     1       0.534   9.148  20.174  0.00  0.00    +0.000 OA
BRANCH  18  19
ATOM     19  C   UNL     1       0.562  10.314  20.994  0.00  0.00    +0.000 C 
BRANCH  19  20
ATOM     20  C   UNL     1      -0.634  11.173  20.727  0.00  0.00    +0.000 A 
ATOM     21  C   UNL     1      -1.175  11.250  19.442  0.00  0.00    +0.000 A 
ATOM     22  C   UNL     1      -2.322  12.004  19.221  0.00  0.00    +0.000 A 
ATOM     23  C   UNL     1      -2.900  12.653  20.299  0.00  0.00    +0.000 A 
ATOM     24  N   UNL     1      -2.417  12.594  21.557  0.00  0.00    +0.000 NA
ATOM     25  C   UNL     1      -1.296  11.857  21.743  0.00  0.00    +0.000 A 
ENDBRANCH  19  20
ENDBRANCH  18  19
ENDBRANCH   8  18
TORSDOF 4
ENDMDL
MODEL 9
REMARK VINA RESULT:      -6.7      1.730      2.198
REMARK  Name = 
REMARK  4 active torsions:
REMARK  status: ('A' for Active; 'I' for Inactive)
REMARK    1  A    between atoms: C_2  and  C_3
REMARK    2  A    between atoms: C_14  and  O_15
REMARK    3  A    between atoms: O_15  and  C_16
REMARK    4  A    between atoms: C_16  and  C_17
REMARK                            x       y       z     vdW  Elec       q    Type
REMARK                         _______ _______ _______ _____ _____    ______ ____
ROOT
ATOM      1  O   UNL     1       4.274   2.206  17.608  0.00  0.00    +0.000 OA
ATOM      2  C   UNL     1       4.441   3.410  17.785  0.00  0.00    +0.000 C 
ATOM      3  N   UNL     1       3.745   4.142  18.747  0.00  0.00    +0.000 N 
ATOM      4  C   UNL     1       2.995   3.411  19.793  0.00  0.00    +0.000 C 
ATOM      5  C   UNL     1       1.781   4.182  20.399  0.00  0.00    +0.000 C 
ATOM      6  N   UNL     1       2.088   5.602  20.608  0.00  0.00    +0.000 NA
ATOM      7  C   UNL     1       0.973   6.451  20.998  0.00  0.00    +0.000 C 
ATOM      8  C   UNL     1       1.557   7.860  20.762  0.00  0.00    +0.000 C 
ATOM      9  C   UNL     1       2.557   7.685  19.615  0.00  0.00    +0.000 C 
ATOM     10  C   UNL     1       2.530   6.191  19.337  0.00  0.00    +0.000 C 
ATOM     11  C   UNL     1       3.867   5.592  18.948  0.00  0.00    +0.000 C 
ENDROOT
BRANCH   2  12
ATOM     12  C   UNL     1       5.408   4.094  16.893  0.00  0.00    +0.000 A 
ATOM     13  C   UNL     1       5.071   4.343  15.567  0.00  0.00    +0.000 A 
ATOM     14  C   UNL     1       5.983   5.021  14.788  0.00  0.00    +0.000 A 
ATOM     15  N   UNL     1       7.176   5.442  15.258  0.00  0.00    +0.000 NA
ATOM     16  N   UNL     1       7.533   5.150  16.534  0.00  0.00    +0.000 NA
ATOM     17  C   UNL     1       6.672   4.465  17.317  0.00  0.00    +0.000 A 
ENDBRANCH   2  12
BRANCH   8  18
ATOM     18  O   UNL     1       0.580   8.824  20.382  0.00  0.00    +0.000 OA
BRANCH  18  19
ATOM     19  C   UNL     1       0.972   9.543  19.215  0.00  0.00    +0.000 C 
BRANCH  19  20
ATOM     20  C   UNL     1       0.020  10.666  18.945  0.00  0.00    +0.000 A 
ATOM     21  C   UNL     1      -1.075  10.474  18.099  0.00  0.00    +0.000 A 
ATOM     22  C   UNL     1      -1.984  11.508  17.906  0.00  0.00    +0.000 A 
ATOM     23  C   UNL     1      -1.774  12.702  18.573  0.00  0.00    +0.000 A 
ATOM     24  N   UNL     1      -0.737  12.923  19.407  0.00  0.00    +0.000 NA
ATOM     25  C   UNL     1       0.136  11.902  19.574  0.00  0.00    +0.000 A 
ENDBRANCH  19  20
ENDBRANCH  18  19
ENDBRANCH   8  18
TORSDOF 4
ENDMDL
