MODEL 1
REMARK VINA RESULT:      -7.4      0.000      0.000
REMARK  Name = 
REMARK  5 active torsions:
REMARK  status: ('A' for Active; 'I' for Inactive)
REMARK    1  A    between atoms: C_7  and  N_8
REMARK    2  A    between atoms: N_11  and  C_12
REMARK    3  A    between atoms: C_12  and  C_13
REMARK    4  A    between atoms: C_12  and  C_19
REMARK    5  A    between atoms: N_23  and  C_24
REMARK                            x       y       z     vdW  Elec       q    Type
REMARK                         _______ _______ _______ _____ _____    ______ ____
ROOT
ATOM      1  C   UNL     1      -1.289  11.674  21.419  0.00  0.00    +0.000 C 
ENDROOT
BRANCH   1   5
ATOM      2  N   UNL     1       1.164   8.782  20.884  0.00  0.00    +0.000 N 
ATOM      3  C   UNL     1       0.003   8.642  21.778  0.00  0.00    +0.000 C 
ATOM      4  C   UNL     1      -0.082   9.873  22.729  0.00  0.00    +0.000 C 
ATOM      5  N   UNL     1      -0.019  11.220  22.082  0.00  0.00    +0.000 NA
ATOM      6  C   UNL     1       1.174  11.209  21.206  0.00  0.00    +0.000 C 
ATOM      7  C   UNL     1       1.201  10.071  20.173  0.00  0.00    +0.000 C 
BRANCH   2  14
ATOM      8  F   UNL     1       2.341   8.943  18.249  0.00  0.00    +0.000 F 
ATOM      9  C   UNL     1       2.220   7.764  18.880  0.00  0.00    +0.000 A 
ATOM     10  C   UNL     1       2.707   6.628  18.225  0.00  0.00    +0.000 A 
ATOM     11  C   UNL     1       2.627   5.379  18.836  0.00  0.00    +0.000 A 
ATOM     12  C   UNL     1       2.051   5.268  20.095  0.00  0.00    +0.000 A 
ATOM     13  C   UNL     1       1.572   6.411  20.743  0.00  0.00    +0.000 A 
ATOM     14  C   UNL     1       1.656   7.694  20.164  0.00  0.00    +0.000 A 
ENDBRANCH   2  14
ENDBRANCH   1   5
BRANCH   1  15
ATOM     15  C   UNL     1      -2.050  12.569  22.399  0.00  0.00    +0.000 A 
ATOM     16  C   UNL     1      -3.443  12.703  22.299  0.00  0.00    +0.000 A 
ATOM     17  C   UNL     1      -4.082  13.632  23.101  0.00  0.00    +0.000 A 
ATOM     18  N   UNL     1      -3.441  14.417  23.992  0.00  0.00    +0.000 NA
ATOM     19  C   UNL     1      -2.101  14.277  24.076  0.00  0.00    +0.000 A 
ATOM     20  C   UNL     1      -1.369  13.377  23.319  0.00  0.00    +0.000 A 
ENDBRANCH   1  15
BRANCH   1  21
ATOM     21  C   UNL     1      -1.053  12.420  20.102  0.00  0.00    +0.000 A 
ATOM     22  N   UNL     1      -0.400  13.568  19.978  0.00  0.00    +0.000 NA
ATOM     23  N   UNL     1      -0.345  13.877  18.655  0.00  0.00    +0.000 NA
ATOM     24  N   UNL     1      -0.982  12.970  17.942  0.00  0.00    +0.000 NA
ATOM     25  N   UNL     1      -1.463  12.069  18.828  0.00  0.00    +0.000 N 
BRANCH  25  26
ATOM     26  C   UNL     1      -2.299  11.006  18.301  0.00  0.00    +0.000 C 
ATOM     27  C   UNL     1      -3.519  11.546  17.536  0.00  0.00    +0.000 C 
ATOM     28  C   UNL     1      -3.924  10.425  16.591  0.00  0.00    +0.000 C 
ATOM     29  C   UNL     1      -2.634   9.700  16.235  0.00  0.00    +0.000 C 
ATOM     30  C   UNL     1      -1.583  10.129  17.259  0.00  0.00    +0.000 C 
ENDBRANCH  25  26
ENDBRANCH   1  21
TORSDOF 5
ENDMDL
MODEL 2
REMARK VINA RESULT:      -7.4      0.896      1.270
REMARK  Name = 
REMARK  5 active torsions:
REMARK  status: ('A' for Active; 'I' for Inactive)
REMARK    1  A    between atoms: C_7  and  N_8
REMARK    2  A    between atoms: N_11  and  C_12
REMARK    3  A    between atoms: C_12  and  C_13
REMARK    4  A    between atoms: C_12  and  C_19
REMARK    5  A    between atoms: N_23  and  C_24
REMARK                            x       y       z     vdW  Elec       q    Type
REMARK                         _______ _______ _______ _____ _____    ______ ____
ROOT
ATOM      1  C   UNL     1      -1.430  11.737  21.701  0.00  0.00    +0.000 C 
ENDROOT
BRANCH   1   5
ATOM      2  N   UNL     1       1.132   9.049  20.766  0.00  0.00    +0.000 N 
ATOM      3  C   UNL     1      -0.057   8.722  21.569  0.00  0.00    +0.000 C 
ATOM      4  C   UNL     1      -0.218   9.760  22.720  0.00  0.00    +0.000 C 
ATOM      5  N   UNL     1      -0.172  11.203  22.328  0.00  0.00    +0.000 NA
ATOM      6  C   UNL     1       1.053  11.377  21.517  0.00  0.00    +0.000 C 
ATOM      7  C   UNL     1       1.156  10.445  20.299  0.00  0.00    +0.000 C 
BRANCH   2  14
ATOM      8  F   UNL     1       1.626   6.270  21.390  0.00  0.00    +0.000 F 
ATOM      9  C   UNL     1       1.938   6.772  20.185  0.00  0.00    +0.000 A 
ATOM     10  C   UNL     1       2.484   5.896  19.242  0.00  0.00    +0.000 A 
ATOM     11  C   UNL     1       2.811   6.353  17.968  0.00  0.00    +0.000 A 
ATOM     12  C   UNL     1       2.600   7.688  17.644  0.00  0.00    +0.000 A 
ATOM     13  C   UNL     1       2.049   8.554  18.594  0.00  0.00    +0.000 A 
ATOM     14  C   UNL     1       1.686   8.120  19.885  0.00  0.00    +0.000 A 
ENDBRANCH   2  14
ENDBRANCH   1   5
BRANCH   1  15
ATOM     15  C   UNL     1      -2.134  12.630  22.725  0.00  0.00    +0.000 A 
ATOM     16  C   UNL     1      -3.529  12.571  22.874  0.00  0.00    +0.000 A 
ATOM     17  C   UNL     1      -4.150  13.493  23.697  0.00  0.00    +0.000 A 
ATOM     18  N   UNL     1      -3.488  14.448  24.383  0.00  0.00    +0.000 NA
ATOM     19  C   UNL     1      -2.148  14.493  24.228  0.00  0.00    +0.000 A 
ATOM     20  C   UNL     1      -1.432  13.617  23.429  0.00  0.00    +0.000 A 
ENDBRANCH   1  15
BRANCH   1  21
ATOM     21  C   UNL     1      -1.178  12.519  20.408  0.00  0.00    +0.000 A 
ATOM     22  N   UNL     1      -0.596  13.709  20.333  0.00  0.00    +0.000 NA
ATOM     23  N   UNL     1      -0.496  14.043  19.019  0.00  0.00    +0.000 NA
ATOM     24  N   UNL     1      -1.036  13.108  18.262  0.00  0.00    +0.000 NA
ATOM     25  N   UNL     1      -1.500  12.164  19.110  0.00  0.00    +0.000 N 
BRANCH  25  26
ATOM     26  C   UNL     1      -2.238  11.058  18.528  0.00  0.00    +0.000 C 
ATOM     27  C   UNL     1      -3.423  11.532  17.671  0.00  0.00    +0.000 C 
ATOM     28  C   UNL     1      -3.697  10.391  16.703  0.00  0.00    +0.000 C 
ATOM     29  C   UNL     1      -2.348   9.733  16.449  0.00  0.00    +0.000 C 
ATOM     30  C   UNL     1      -1.401  10.219  17.546  0.00  0.00    +0.000 C 
ENDBRANCH  25  26
ENDBRANCH   1  21
TORSDOF 5
ENDMDL
MODEL 3
REMARK VINA RESULT:      -7.4      2.528      7.230
REMARK  Name = 
REMARK  5 active torsions:
REMARK  status: ('A' for Active; 'I' for Inactive)
REMARK    1  A    between atoms: C_7  and  N_8
REMARK    2  A    between atoms: N_11  and  C_12
REMARK    3  A    between atoms: C_12  and  C_13
REMARK    4  A    between atoms: C_12  and  C_19
REMARK    5  A    between atoms: N_23  and  C_24
REMARK                            x       y       z     vdW  Elec       q    Type
REMARK                         _______ _______ _______ _____ _____    ______ ____
ROOT
ATOM      1  C   UNL     1      -0.145  10.492  19.569  0.00  0.00    +0.000 C 
ENDROOT
BRANCH   1   5
ATOM      2  N   UNL     1      -3.514  11.627  18.147  0.00  0.00    +0.000 N 
ATOM      3  C   UNL     1      -3.130  10.206  18.154  0.00  0.00    +0.000 C 
ATOM      4  C   UNL     1      -1.680  10.050  17.604  0.00  0.00    +0.000 C 
ATOM      5  N   UNL     1      -0.636  10.927  18.217  0.00  0.00    +0.000 NA
ATOM      6  C   UNL     1      -1.163  12.308  18.159  0.00  0.00    +0.000 C 
ATOM      7  C   UNL     1      -2.538  12.500  18.819  0.00  0.00    +0.000 C 
BRANCH   2  14
ATOM      8  F   UNL     1      -4.896  11.944  20.666  0.00  0.00    +0.000 F 
ATOM      9  C   UNL     1      -5.527  12.162  19.501  0.00  0.00    +0.000 A 
ATOM     10  C   UNL     1      -6.863  12.570  19.557  0.00  0.00    +0.000 A 
ATOM     11  C   UNL     1      -7.566  12.829  18.383  0.00  0.00    +0.000 A 
ATOM     12  C   UNL     1      -6.933  12.669  17.157  0.00  0.00    +0.000 A 
ATOM     13  C   UNL     1      -5.595  12.264  17.113  0.00  0.00    +0.000 A 
ATOM     14  C   UNL     1      -4.847  12.015  18.282  0.00  0.00    +0.000 A 
ENDBRANCH   2  14
ENDBRANCH   1   5
BRANCH   1  15
ATOM     15  C   UNL     1       0.930   9.421  19.369  0.00  0.00    +0.000 A 
ATOM     16  C   UNL     1       1.574   9.290  18.129  0.00  0.00    +0.000 A 
ATOM     17  C   UNL     1       2.431   8.221  17.933  0.00  0.00    +0.000 A 
ATOM     18  N   UNL     1       2.696   7.294  18.877  0.00  0.00    +0.000 NA
ATOM     19  C   UNL     1       2.068   7.433  20.064  0.00  0.00    +0.000 A 
ATOM     20  C   UNL     1       1.193   8.467  20.359  0.00  0.00    +0.000 A 
ENDBRANCH   1  15
BRANCH   1  21
ATOM     21  C   UNL     1       0.412  11.643  20.412  0.00  0.00    +0.000 A 
ATOM     22  N   UNL     1       1.676  12.045  20.421  0.00  0.00    +0.000 NA
ATOM     23  N   UNL     1       1.765  13.126  21.240  0.00  0.00    +0.000 NA
ATOM     24  N   UNL     1       0.594  13.395  21.781  0.00  0.00    +0.000 NA
ATOM     25  N   UNL     1      -0.259  12.460  21.306  0.00  0.00    +0.000 N 
BRANCH  25  26
ATOM     26  C   UNL     1      -1.612  12.472  21.830  0.00  0.00    +0.000 C 
ATOM     27  C   UNL     1      -1.784  11.525  23.030  0.00  0.00    +0.000 C 
ATOM     28  C   UNL     1      -2.979  12.067  23.798  0.00  0.00    +0.000 C 
ATOM     29  C   UNL     1      -2.963  13.573  23.578  0.00  0.00    +0.000 C 
ATOM     30  C   UNL     1      -2.034  13.841  22.393  0.00  0.00    +0.000 C 
ENDBRANCH  25  26
ENDBRANCH   1  21
TORSDOF 5
ENDMDL
MODEL 4
REMARK VINA RESULT:      -7.2      4.326      9.497
REMARK  Name = 
REMARK  5 active torsions:
REMARK  status: ('A' for Active; 'I' for Inactive)
REMARK    1  A    between atoms: C_7  and  N_8
REMARK    2  A    between atoms: N_11  and  C_12
REMARK    3  A    between atoms: C_12  and  C_13
REMARK    4  A    between atoms: C_12  and  C_19
REMARK    5  A    between atoms: N_23  and  C_24
REMARK                            x       y       z     vdW  Elec       q    Type
REMARK                         _______ _______ _______ _____ _____    ______ ____
ROOT
ATOM      1  C   UNL     1       4.421   5.312  18.904  0.00  0.00    +0.000 C 
ENDROOT
BRANCH   1   5
ATOM      2  N   UNL     1       1.820   8.088  18.471  0.00  0.00    +0.000 N 
ATOM      3  C   UNL     1       1.414   6.693  18.706  0.00  0.00    +0.000 C 
ATOM      4  C   UNL     1       2.207   5.747  17.755  0.00  0.00    +0.000 C 
ATOM      5  N   UNL     1       3.693   5.913  17.735  0.00  0.00    +0.000 NA
ATOM      6  C   UNL     1       3.949   7.354  17.513  0.00  0.00    +0.000 C 
ATOM      7  C   UNL     1       3.277   8.290  18.530  0.00  0.00    +0.000 C 
BRANCH   2  14
ATOM      8  F   UNL     1       1.548   8.810  21.257  0.00  0.00    +0.000 F 
ATOM      9  C   UNL     1       0.911   9.502  20.300  0.00  0.00    +0.000 A 
ATOM     10  C   UNL     1       0.136  10.595  20.701  0.00  0.00    +0.000 A 
ATOM     11  C   UNL     1      -0.535  11.364  19.752  0.00  0.00    +0.000 A 
ATOM     12  C   UNL     1      -0.437  11.031  18.407  0.00  0.00    +0.000 A 
ATOM     13  C   UNL     1       0.345   9.938  18.017  0.00  0.00    +0.000 A 
ATOM     14  C   UNL     1       1.054   9.153  18.948  0.00  0.00    +0.000 A 
ENDBRANCH   2  14
ENDBRANCH   1   5
BRANCH   1  15
ATOM     15  C   UNL     1       3.773   3.965  19.232  0.00  0.00    +0.000 A 
ATOM     16  C   UNL     1       3.874   2.894  18.331  0.00  0.00    +0.000 A 
ATOM     17  C   UNL     1       3.153   1.740  18.586  0.00  0.00    +0.000 A 
ATOM     18  N   UNL     1       2.362   1.576  19.667  0.00  0.00    +0.000 NA
ATOM     19  C   UNL     1       2.275   2.616  20.524  0.00  0.00    +0.000 A 
ATOM     20  C   UNL     1       2.955   3.812  20.359  0.00  0.00    +0.000 A 
ENDBRANCH   1  15
BRANCH   1  21
ATOM     21  C   UNL     1       5.921   5.125  18.653  0.00  0.00    +0.000 A 
ATOM     22  N   UNL     1       6.858   5.099  19.591  0.00  0.00    +0.000 NA
ATOM     23  N   UNL     1       8.050   4.850  18.986  0.00  0.00    +0.000 NA
ATOM     24  N   UNL     1       7.894   4.757  17.680  0.00  0.00    +0.000 NA
ATOM     25  N   UNL     1       6.578   4.961  17.446  0.00  0.00    +0.000 N 
BRANCH  25  26
ATOM     26  C   UNL     1       6.154   5.008  16.059  0.00  0.00    +0.000 C 
ATOM     27  C   UNL     1       7.302   5.384  15.108  0.00  0.00    +0.000 C 
ATOM     28  C   UNL     1       6.895   4.829  13.752  0.00  0.00    +0.000 C 
ATOM     29  C   UNL     1       6.073   3.582  14.047  0.00  0.00    +0.000 C 
ATOM     30  C   UNL     1       5.677   3.648  15.522  0.00  0.00    +0.000 C 
ENDBRANCH  25  26
ENDBRANCH   1  21
TORSDOF 5
ENDMDL
MODEL 5
REMARK VINA RESULT:      -7.1      3.273      6.566
REMARK  Name = 
REMARK  5 active torsions:
REMARK  status: ('A' for Active; 'I' for Inactive)
REMARK    1  A    between atoms: C_7  and  N_8
REMARK    2  A    between atoms: N_11  and  C_12
REMARK    3  A    between atoms: C_12  and  C_13
REMARK    4  A    between atoms: C_12  and  C_19
REMARK    5  A    between atoms: N_23  and  C_24
REMARK                            x       y       z     vdW  Elec       q    Type
REMARK                         _______ _______ _______ _____ _____    ______ ____
ROOT
ATOM      1  C   UNL     1      -0.245  13.440  20.632  0.00  0.00    +0.000 C 
ENDROOT
BRANCH   1   5
ATOM      2  N   UNL     1      -3.574  13.344  22.522  0.00  0.00    +0.000 N 
ATOM      3  C   UNL     1      -3.148  14.547  21.789  0.00  0.00    +0.000 C 
ATOM      4  C   UNL     1      -1.669  14.886  22.146  0.00  0.00    +0.000 C 
ATOM      5  N   UNL     1      -0.682  13.768  22.031  0.00  0.00    +0.000 NA
ATOM      6  C   UNL     1      -1.247  12.632  22.793  0.00  0.00    +0.000 C 
ATOM      7  C   UNL     1      -2.658  12.203  22.355  0.00  0.00    +0.000 C 
BRANCH   2  14
ATOM      8  F   UNL     1      -5.271  12.548  20.321  0.00  0.00    +0.000 F 
ATOM      9  C   UNL     1      -5.755  12.631  21.571  0.00  0.00    +0.000 A 
ATOM     10  C   UNL     1      -7.098  12.293  21.767  0.00  0.00    +0.000 A 
ATOM     11  C   UNL     1      -7.653  12.341  23.044  0.00  0.00    +0.000 A 
ATOM     12  C   UNL     1      -6.866  12.736  24.118  0.00  0.00    +0.000 A 
ATOM     13  C   UNL     1      -5.523  13.067  23.911  0.00  0.00    +0.000 A 
ATOM     14  C   UNL     1      -4.923  13.008  22.637  0.00  0.00    +0.000 A 
ENDBRANCH   2  14
ENDBRANCH   1   5
BRANCH   1  15
ATOM     15  C   UNL     1       0.947  14.332  20.279  0.00  0.00    +0.000 A 
ATOM     16  C   UNL     1       1.852  14.729  21.275  0.00  0.00    +0.000 A 
ATOM     17  C   UNL     1       2.831  15.654  20.956  0.00  0.00    +0.000 A 
ATOM     18  N   UNL     1       2.976  16.194  19.728  0.00  0.00    +0.000 NA
ATOM     19  C   UNL     1       2.097  15.804  18.781  0.00  0.00    +0.000 A 
ATOM     20  C   UNL     1       1.083  14.885  18.999  0.00  0.00    +0.000 A 
ENDBRANCH   1  15
BRANCH   1  21
ATOM     21  C   UNL     1       0.130  11.966  20.443  0.00  0.00    +0.000 A 
ATOM     22  N   UNL     1       0.984  11.289  21.199  0.00  0.00    +0.000 NA
ATOM     23  N   UNL     1       1.002  10.003  20.760  0.00  0.00    +0.000 NA
ATOM     24  N   UNL     1       0.207   9.858  19.719  0.00  0.00    +0.000 NA
ATOM     25  N   UNL     1      -0.321  11.080  19.480  0.00  0.00    +0.000 N 
BRANCH  25  26
ATOM     26  C   UNL     1      -1.166  11.217  18.309  0.00  0.00    +0.000 C 
ATOM     27  C   UNL     1      -1.235   9.922  17.482  0.00  0.00    +0.000 C 
ATOM     28  C   UNL     1      -2.538  10.015  16.703  0.00  0.00    +0.000 C 
ATOM     29  C   UNL     1      -3.490  10.811  17.584  0.00  0.00    +0.000 C 
ATOM     30  C   UNL     1      -2.639  11.501  18.651  0.00  0.00    +0.000 C 
ENDBRANCH  25  26
ENDBRANCH   1  21
TORSDOF 5
ENDMDL
MODEL 6
REMARK VINA RESULT:      -7.0      3.466      6.764
REMARK  Name = 
REMARK  5 active torsions:
REMARK  status: ('A' for Active; 'I' for Inactive)
REMARK    1  A    between atoms: C_7  and  N_8
REMARK    2  A    between atoms: N_11  and  C_12
REMARK    3  A    between atoms: C_12  and  C_13
REMARK    4  A    between atoms: C_12  and  C_19
REMARK    5  A    between atoms: N_23  and  C_24
REMARK                            x       y       z     vdW  Elec       q    Type
REMARK                         _______ _______ _______ _____ _____    ______ ____
ROOT
ATOM      1  C   UNL     1      -0.222  13.387  20.723  0.00  0.00    +0.000 C 
ENDROOT
BRANCH   1   5
ATOM      2  N   UNL     1      -3.510  13.470  22.683  0.00  0.00    +0.000 N 
ATOM      3  C   UNL     1      -3.014  14.661  21.976  0.00  0.00    +0.000 C 
ATOM      4  C   UNL     1      -1.509  14.884  22.310  0.00  0.00    +0.000 C 
ATOM      5  N   UNL     1      -0.606  13.703  22.141  0.00  0.00    +0.000 NA
ATOM      6  C   UNL     1      -1.236  12.587  22.881  0.00  0.00    +0.000 C 
ATOM      7  C   UNL     1      -2.681  12.272  22.463  0.00  0.00    +0.000 C 
BRANCH   2  14
ATOM      8  F   UNL     1      -4.787  12.514  25.094  0.00  0.00    +0.000 F 
ATOM      9  C   UNL     1      -5.502  12.753  23.983  0.00  0.00    +0.000 A 
ATOM     10  C   UNL     1      -6.883  12.547  24.047  0.00  0.00    +0.000 A 
ATOM     11  C   UNL     1      -7.681  12.795  22.933  0.00  0.00    +0.000 A 
ATOM     12  C   UNL     1      -7.094  13.239  21.755  0.00  0.00    +0.000 A 
ATOM     13  C   UNL     1      -5.711  13.446  21.704  0.00  0.00    +0.000 A 
ATOM     14  C   UNL     1      -4.877  13.227  22.819  0.00  0.00    +0.000 A 
ENDBRANCH   2  14
ENDBRANCH   1   5
BRANCH   1  15
ATOM     15  C   UNL     1       0.984  14.252  20.348  0.00  0.00    +0.000 A 
ATOM     16  C   UNL     1       1.889  14.669  21.336  0.00  0.00    +0.000 A 
ATOM     17  C   UNL     1       2.881  15.570  20.992  0.00  0.00    +0.000 A 
ATOM     18  N   UNL     1       3.040  16.068  19.748  0.00  0.00    +0.000 NA
ATOM     19  C   UNL     1       2.161  15.659  18.810  0.00  0.00    +0.000 A 
ATOM     20  C   UNL     1       1.134  14.761  19.052  0.00  0.00    +0.000 A 
ENDBRANCH   1  15
BRANCH   1  21
ATOM     21  C   UNL     1       0.104  11.907  20.498  0.00  0.00    +0.000 A 
ATOM     22  N   UNL     1       0.957  11.192  21.219  0.00  0.00    +0.000 NA
ATOM     23  N   UNL     1       0.926   9.914  20.757  0.00  0.00    +0.000 NA
ATOM     24  N   UNL     1       0.102   9.812  19.733  0.00  0.00    +0.000 NA
ATOM     25  N   UNL     1      -0.396  11.053  19.531  0.00  0.00    +0.000 N 
BRANCH  25  26
ATOM     26  C   UNL     1      -1.266  11.237  18.384  0.00  0.00    +0.000 C 
ATOM     27  C   UNL     1      -1.367   9.970  17.517  0.00  0.00    +0.000 C 
ATOM     28  C   UNL     1      -2.685  10.102  16.771  0.00  0.00    +0.000 C 
ATOM     29  C   UNL     1      -3.609  10.877  17.700  0.00  0.00    +0.000 C 
ATOM     30  C   UNL     1      -2.728  11.523  18.769  0.00  0.00    +0.000 C 
ENDBRANCH  25  26
ENDBRANCH   1  21
TORSDOF 5
ENDMDL
MODEL 7
REMARK VINA RESULT:      -7.0      2.593      7.194
REMARK  Name = 
REMARK  5 active torsions:
REMARK  status: ('A' for Active; 'I' for Inactive)
REMARK    1  A    between atoms: C_7  and  N_8
REMARK    2  A    between atoms: N_11  and  C_12
REMARK    3  A    between atoms: C_12  and  C_13
REMARK    4  A    between atoms: C_12  and  C_19
REMARK    5  A    between atoms: N_23  and  C_24
REMARK                            x       y       z     vdW  Elec       q    Type
REMARK                         _______ _______ _______ _____ _____    ______ ____
ROOT
ATOM      1  C   UNL     1      -0.086  10.515  19.567  0.00  0.00    +0.000 C 
ENDROOT
BRANCH   1   5
ATOM      2  N   UNL     1      -3.509  11.599  18.234  0.00  0.00    +0.000 N 
ATOM      3  C   UNL     1      -3.081  10.192  18.182  0.00  0.00    +0.000 C 
ATOM      4  C   UNL     1      -1.636  10.101  17.607  0.00  0.00    +0.000 C 
ATOM      5  N   UNL     1      -0.610  10.987  18.239  0.00  0.00    +0.000 NA
ATOM      6  C   UNL     1      -1.180  12.352  18.241  0.00  0.00    +0.000 C 
ATOM      7  C   UNL     1      -2.550  12.476  18.927  0.00  0.00    +0.000 C 
BRANCH   2  14
ATOM      8  F   UNL     1      -5.427  11.865  16.087  0.00  0.00    +0.000 F 
ATOM      9  C   UNL     1      -5.785  12.081  17.363  0.00  0.00    +0.000 A 
ATOM     10  C   UNL     1      -7.120  12.412  17.611  0.00  0.00    +0.000 A 
ATOM     11  C   UNL     1      -7.557  12.630  18.916  0.00  0.00    +0.000 A 
ATOM     12  C   UNL     1      -6.655  12.525  19.967  0.00  0.00    +0.000 A 
ATOM     13  C   UNL     1      -5.322  12.189  19.707  0.00  0.00    +0.000 A 
ATOM     14  C   UNL     1      -4.851  11.940  18.402  0.00  0.00    +0.000 A 
ENDBRANCH   2  14
ENDBRANCH   1   5
BRANCH   1  15
ATOM     15  C   UNL     1       1.003   9.472  19.310  0.00  0.00    +0.000 A 
ATOM     16  C   UNL     1       1.670   9.435  18.076  0.00  0.00    +0.000 A 
ATOM     17  C   UNL     1       2.541   8.390  17.821  0.00  0.00    +0.000 A 
ATOM     18  N   UNL     1       2.799   7.401  18.702  0.00  0.00    +0.000 NA
ATOM     19  C   UNL     1       2.149   7.449  19.884  0.00  0.00    +0.000 A 
ATOM     20  C   UNL     1       1.259   8.451  20.235  0.00  0.00    +0.000 A 
ENDBRANCH   1  15
BRANCH   1  21
ATOM     21  C   UNL     1       0.467  11.648  20.437  0.00  0.00    +0.000 A 
ATOM     22  N   UNL     1       1.731  12.050  20.460  0.00  0.00    +0.000 NA
ATOM     23  N   UNL     1       1.816  13.113  21.304  0.00  0.00    +0.000 NA
ATOM     24  N   UNL     1       0.642  13.368  21.846  0.00  0.00    +0.000 NA
ATOM     25  N   UNL     1      -0.208  12.443  21.347  0.00  0.00    +0.000 N 
BRANCH  25  26
ATOM     26  C   UNL     1      -1.563  12.443  21.867  0.00  0.00    +0.000 C 
ATOM     27  C   UNL     1      -1.709  11.562  23.120  0.00  0.00    +0.000 C 
ATOM     28  C   UNL     1      -2.924  12.109  23.852  0.00  0.00    +0.000 C 
ATOM     29  C   UNL     1      -2.955  13.600  23.544  0.00  0.00    +0.000 C 
ATOM     30  C   UNL     1      -2.031  13.827  22.347  0.00  0.00    +0.000 C 
ENDBRANCH  25  26
ENDBRANCH   1  21
TORSDOF 5
ENDMDL
MODEL 8
REMARK VINA RESULT:      -7.0      4.267      9.410
REMARK  Name = 
REMARK  5 active torsions:
REMARK  status: ('A' for Active; 'I' for Inactive)
REMARK    1  A    between atoms: C_7  and  N_8
REMARK    2  A    between atoms: N_11  and  C_12
REMARK    3  A    between atoms: C_12  and  C_13
REMARK    4  A    between atoms: C_12  and  C_19
REMARK    5  A    between atoms: N_23  and  C_24
REMARK                            x       y       z     vdW  Elec       q    Type
REMARK                         _______ _______ _______ _____ _____    ______ ____
ROOT
ATOM      1  C   UNL     1       4.350   5.369  18.925  0.00  0.00    +0.000 C 
ENDROOT
BRANCH   1   5
ATOM      2  N   UNL     1       1.990   8.342  18.421  0.00  0.00    +0.000 N 
ATOM      3  C   UNL     1       1.471   7.003  18.745  0.00  0.00    +0.000 C 
ATOM      4  C   UNL     1       2.142   5.941  17.824  0.00  0.00    +0.000 C 
ATOM      5  N   UNL     1       3.635   5.971  17.748  0.00  0.00    +0.000 NA
ATOM      6  C   UNL     1       4.009   7.369  17.438  0.00  0.00    +0.000 C 
ATOM      7  C   UNL     1       3.461   8.414  18.422  0.00  0.00    +0.000 C 
BRANCH   2  14
ATOM      8  F   UNL     1       2.516  11.011  17.443  0.00  0.00    +0.000 F 
ATOM      9  C   UNL     1       1.598  10.794  18.398  0.00  0.00    +0.000 A 
ATOM     10  C   UNL     1       0.893  11.903  18.878  0.00  0.00    +0.000 A 
ATOM     11  C   UNL     1      -0.086  11.740  19.856  0.00  0.00    +0.000 A 
ATOM     12  C   UNL     1      -0.349  10.472  20.357  0.00  0.00    +0.000 A 
ATOM     13  C   UNL     1       0.358   9.370  19.866  0.00  0.00    +0.000 A 
ATOM     14  C   UNL     1       1.340   9.495  18.861  0.00  0.00    +0.000 A 
ENDBRANCH   2  14
ENDBRANCH   1   5
BRANCH   1  15
ATOM     15  C   UNL     1       3.689   4.028  19.253  0.00  0.00    +0.000 A 
ATOM     16  C   UNL     1       3.781   2.955  18.353  0.00  0.00    +0.000 A 
ATOM     17  C   UNL     1       3.051   1.808  18.608  0.00  0.00    +0.000 A 
ATOM     18  N   UNL     1       2.256   1.652  19.687  0.00  0.00    +0.000 NA
ATOM     19  C   UNL     1       2.176   2.693  20.543  0.00  0.00    +0.000 A 
ATOM     20  C   UNL     1       2.867   3.883  20.378  0.00  0.00    +0.000 A 
ENDBRANCH   1  15
BRANCH   1  21
ATOM     21  C   UNL     1       5.850   5.170  18.687  0.00  0.00    +0.000 A 
ATOM     22  N   UNL     1       6.781   5.151  19.631  0.00  0.00    +0.000 NA
ATOM     23  N   UNL     1       7.975   4.887  19.037  0.00  0.00    +0.000 NA
ATOM     24  N   UNL     1       7.827   4.777  17.732  0.00  0.00    +0.000 NA
ATOM     25  N   UNL     1       6.514   4.985  17.486  0.00  0.00    +0.000 N 
BRANCH  25  26
ATOM     26  C   UNL     1       6.099   5.016  16.096  0.00  0.00    +0.000 C 
ATOM     27  C   UNL     1       7.241   5.429  15.153  0.00  0.00    +0.000 C 
ATOM     28  C   UNL     1       6.864   4.858  13.795  0.00  0.00    +0.000 C 
ATOM     29  C   UNL     1       6.082   3.584  14.086  0.00  0.00    +0.000 C 
ATOM     30  C   UNL     1       5.673   3.639  15.558  0.00  0.00    +0.000 C 
ENDBRANCH  25  26
ENDBRANCH   1  21
TORSDOF 5
ENDMDL
MODEL 9
REMARK VINA RESULT:      -7.0      2.575      7.065
REMARK  Name = 
REMARK  5 active torsions:
REMARK  status: ('A' for Active; 'I' for Inactive)
REMARK    1  A    between atoms: C_7  and  N_8
REMARK    2  A    between atoms: N_11  and  C_12
REMARK    3  A    between atoms: C_12  and  C_13
REMARK    4  A    between atoms: C_12  and  C_19
REMARK    5  A    between atoms: N_23  and  C_24
REMARK                            x       y       z     vdW  Elec       q    Type
REMARK                         _______ _______ _______ _____ _____    ______ ____
ROOT
ATOM      1  C   UNL     1      -0.103  10.924  19.776  0.00  0.00    +0.000 C 
ENDROOT
BRANCH   1   5
ATOM      2  N   UNL     1      -3.546  11.732  18.309  0.00  0.00    +0.000 N 
ATOM      3  C   UNL     1      -3.085  10.342  18.451  0.00  0.00    +0.000 C 
ATOM      4  C   UNL     1      -1.637  10.207  17.893  0.00  0.00    +0.000 C 
ATOM      5  N   UNL     1      -0.633  11.195  18.397  0.00  0.00    +0.000 NA
ATOM      6  C   UNL     1      -1.235  12.534  18.210  0.00  0.00    +0.000 C 
ATOM      7  C   UNL     1      -2.610  12.719  18.873  0.00  0.00    +0.000 C 
BRANCH   2  14
ATOM      8  F   UNL     1      -4.965  12.002  20.813  0.00  0.00    +0.000 F 
ATOM      9  C   UNL     1      -5.593  12.185  19.641  0.00  0.00    +0.000 A 
ATOM     10  C   UNL     1      -6.947  12.533  19.682  0.00  0.00    +0.000 A 
ATOM     11  C   UNL     1      -7.649  12.754  18.499  0.00  0.00    +0.000 A 
ATOM     12  C   UNL     1      -6.998  12.615  17.280  0.00  0.00    +0.000 A 
ATOM     13  C   UNL     1      -5.643  12.270  17.251  0.00  0.00    +0.000 A 
ATOM     14  C   UNL     1      -4.896  12.062  18.429  0.00  0.00    +0.000 A 
ENDBRANCH   2  14
ENDBRANCH   1   5
BRANCH   1  15
ATOM     15  C   UNL     1       0.661   9.599  19.745  0.00  0.00    +0.000 A 
ATOM     16  C   UNL     1       0.730   8.796  20.894  0.00  0.00    +0.000 A 
ATOM     17  C   UNL     1       1.550   7.681  20.879  0.00  0.00    +0.000 A 
ATOM     18  N   UNL     1       2.285   7.308  19.810  0.00  0.00    +0.000 NA
ATOM     19  C   UNL     1       2.209   8.091  18.714  0.00  0.00    +0.000 A 
ATOM     20  C   UNL     1       1.419   9.227  18.628  0.00  0.00    +0.000 A 
ENDBRANCH   1  15
BRANCH   1  21
ATOM     21  C   UNL     1       0.804  12.039  20.307  0.00  0.00    +0.000 A 
ATOM     22  N   UNL     1       1.971  12.393  19.785  0.00  0.00    +0.000 NA
ATOM     23  N   UNL     1       2.439  13.456  20.491  0.00  0.00    +0.000 NA
ATOM     24  N   UNL     1       1.614  13.759  21.473  0.00  0.00    +0.000 NA
ATOM     25  N   UNL     1       0.603  12.865  21.400  0.00  0.00    +0.000 N 
BRANCH  25  26
ATOM     26  C   UNL     1      -0.404  12.919  22.444  0.00  0.00    +0.000 C 
ATOM     27  C   UNL     1      -1.595  13.815  22.062  0.00  0.00    +0.000 C 
ATOM     28  C   UNL     1      -2.755  13.319  22.911  0.00  0.00    +0.000 C 
ATOM     29  C   UNL     1      -2.516  11.828  23.104  0.00  0.00    +0.000 C 
ATOM     30  C   UNL     1      -1.059  11.557  22.728  0.00  0.00    +0.000 C 
ENDBRANCH  25  26
ENDBRANCH   1  21
TORSDOF 5
ENDMDL
