MODEL 1
REMARK VINA RESULT:      -7.1      0.000      0.000
REMARK  Name = 
REMARK  2 active torsions:
REMARK  status: ('A' for Active; 'I' for Inactive)
REMARK    1  A    between atoms: C_1  and  O_2
REMARK    2  A    between atoms: O_2  and  C_3
REMARK                            x       y       z     vdW  Elec       q    Type
REMARK                         _______ _______ _______ _____ _____    ______ ____
ROOT
ATOM      1  C   UNL     1       6.697   6.046  16.710  0.00  0.00    +0.000 A 
ATOM      2  C   UNL     1       5.910   6.033  17.865  0.00  0.00    +0.000 A 
ATOM      3  C   UNL     1       4.862   5.115  17.984  0.00  0.00    +0.000 A 
ATOM      4  C   UNL     1       4.011   5.108  19.202  0.00  0.00    +0.000 A 
ATOM      5  O   UNL     1       4.246   5.870  20.139  0.00  0.00    +0.000 OA
ATOM      6  C   UNL     1       2.863   4.152  19.238  0.00  0.00    +0.000 A 
ATOM      7  C   UNL     1       2.683   3.318  18.193  0.00  0.00    +0.000 A 
ATOM      8  N   UNL     1       3.515   3.305  17.095  0.00  0.00    +0.000 N 
ATOM      9  C   UNL     1       4.577   4.204  16.958  0.00  0.00    +0.000 A 
ATOM     10  C   UNL     1       5.375   4.204  15.813  0.00  0.00    +0.000 A 
ATOM     11  C   UNL     1       6.421   5.125  15.687  0.00  0.00    +0.000 A 
ATOM     12 CL   UNL     1       7.366   5.077  14.239  0.00  0.00    +0.000 Cl
ATOM     13  C   UNL     1       1.542   2.322  18.178  0.00  0.00    +0.000 C 
ATOM     14  C   UNL     1       0.905   2.108  19.551  0.00  0.00    +0.000 C 
ATOM     15  C   UNL     1       0.650   3.447  20.232  0.00  0.00    +0.000 C 
ATOM     16  C   UNL     1       1.965   4.200  20.443  0.00  0.00    +0.000 C 
ATOM     17  H   UNL     1       3.285   2.693  16.321  0.00  0.00    +0.000 HD
ENDROOT
BRANCH   1  19
ATOM     18  C   UNL     1       7.842   7.979  17.466  0.00  0.00    +0.000 C 
ATOM     19  O   UNL     1       7.699   6.955  16.489  0.00  0.00    +0.000 OA
ENDBRANCH   1  19
TORSDOF 1
ENDMDL
MODEL 2
REMARK VINA RESULT:      -7.1      1.910      2.754
REMARK  Name = 
REMARK  2 active torsions:
REMARK  status: ('A' for Active; 'I' for Inactive)
REMARK    1  A    between atoms: C_1  and  O_2
REMARK    2  A    between atoms: O_2  and  C_3
REMARK                            x       y       z     vdW  Elec       q    Type
REMARK                         _______ _______ _______ _____ _____    ______ ____
ROOT
ATOM      1  C   UNL     1       6.622   5.581  16.294  0.00  0.00    +0.000 A 
ATOM      2  C   UNL     1       5.634   4.598  16.398  0.00  0.00    +0.000 A 
ATOM      3  C   UNL     1       4.781   4.581  17.506  0.00  0.00    +0.000 A 
ATOM      4  C   UNL     1       3.741   3.528  17.631  0.00  0.00    +0.000 A 
ATOM      5  O   UNL     1       3.581   2.692  16.743  0.00  0.00    +0.000 OA
ATOM      6  C   UNL     1       2.908   3.521  18.873  0.00  0.00    +0.000 A 
ATOM      7  C   UNL     1       3.109   4.489  19.791  0.00  0.00    +0.000 A 
ATOM      8  N   UNL     1       4.046   5.487  19.632  0.00  0.00    +0.000 N 
ATOM      9  C   UNL     1       4.901   5.534  18.528  0.00  0.00    +0.000 A 
ATOM     10  C   UNL     1       5.875   6.527  18.414  0.00  0.00    +0.000 A 
ATOM     11  C   UNL     1       6.734   6.544  17.310  0.00  0.00    +0.000 A 
ATOM     12 CL   UNL     1       7.924   7.798  17.235  0.00  0.00    +0.000 Cl
ATOM     13  C   UNL     1       2.291   4.537  21.064  0.00  0.00    +0.000 C 
ATOM     14  C   UNL     1       1.034   3.669  21.011  0.00  0.00    +0.000 C 
ATOM     15  C   UNL     1       1.364   2.292  20.449  0.00  0.00    +0.000 C 
ATOM     16  C   UNL     1       1.907   2.410  19.023  0.00  0.00    +0.000 C 
ATOM     17  H   UNL     1       4.183   6.146  20.389  0.00  0.00    +0.000 HD
ENDROOT
BRANCH   1  19
ATOM     18  C   UNL     1       7.190   4.920  14.090  0.00  0.00    +0.000 C 
ATOM     19  O   UNL     1       7.537   5.628  15.274  0.00  0.00    +0.000 OA
ENDBRANCH   1  19
TORSDOF 1
ENDMDL
MODEL 3
REMARK VINA RESULT:      -7.0      4.387      5.352
REMARK  Name = 
REMARK  2 active torsions:
REMARK  status: ('A' for Active; 'I' for Inactive)
REMARK    1  A    between atoms: C_1  and  O_2
REMARK    2  A    between atoms: O_2  and  C_3
REMARK                            x       y       z     vdW  Elec       q    Type
REMARK                         _______ _______ _______ _____ _____    ______ ____
ROOT
ATOM      1  C   UNL     1       3.907   5.440  17.660  0.00  0.00    +0.000 A 
ATOM      2  C   UNL     1       3.333   6.707  17.519  0.00  0.00    +0.000 A 
ATOM      3  C   UNL     1       2.632   7.278  18.585  0.00  0.00    +0.000 A 
ATOM      4  C   UNL     1       2.003   8.615  18.434  0.00  0.00    +0.000 A 
ATOM      5  O   UNL     1       2.133   9.259  17.393  0.00  0.00    +0.000 OA
ATOM      6  C   UNL     1       1.208   9.141  19.586  0.00  0.00    +0.000 A 
ATOM      7  C   UNL     1       1.136   8.402  20.712  0.00  0.00    +0.000 A 
ATOM      8  N   UNL     1       1.770   7.186  20.850  0.00  0.00    +0.000 N 
ATOM      9  C   UNL     1       2.486   6.599  19.803  0.00  0.00    +0.000 A 
ATOM     10  C   UNL     1       3.077   5.343  19.951  0.00  0.00    +0.000 A 
ATOM     11  C   UNL     1       3.774   4.765  18.884  0.00  0.00    +0.000 A 
ATOM     12 CL   UNL     1       4.474   3.203  19.133  0.00  0.00    +0.000 Cl
ATOM     13  C   UNL     1       0.352   8.886  21.913  0.00  0.00    +0.000 C 
ATOM     14  C   UNL     1       0.009  10.374  21.855  0.00  0.00    +0.000 C 
ATOM     15  C   UNL     1      -0.532  10.740  20.478  0.00  0.00    +0.000 C 
ATOM     16  C   UNL     1       0.517  10.463  19.398  0.00  0.00    +0.000 C 
ATOM     17  H   UNL     1       1.623   6.658  21.702  0.00  0.00    +0.000 HD
ENDROOT
BRANCH   1  19
ATOM     18  C   UNL     1       5.346   5.594  15.783  0.00  0.00    +0.000 C 
ATOM     19  O   UNL     1       4.553   4.786  16.644  0.00  0.00    +0.000 OA
ENDBRANCH   1  19
TORSDOF 1
ENDMDL
MODEL 4
REMARK VINA RESULT:      -6.7      5.672      7.241
REMARK  Name = 
REMARK  2 active torsions:
REMARK  status: ('A' for Active; 'I' for Inactive)
REMARK    1  A    between atoms: C_1  and  O_2
REMARK    2  A    between atoms: O_2  and  C_3
REMARK                            x       y       z     vdW  Elec       q    Type
REMARK                         _______ _______ _______ _____ _____    ______ ____
ROOT
ATOM      1  C   UNL     1       0.066  10.710  20.587  0.00  0.00    +0.000 A 
ATOM      2  C   UNL     1       0.752  10.255  19.458  0.00  0.00    +0.000 A 
ATOM      3  C   UNL     1       1.398   9.015  19.486  0.00  0.00    +0.000 A 
ATOM      4  C   UNL     1       2.145   8.536  18.295  0.00  0.00    +0.000 A 
ATOM      5  O   UNL     1       2.164   9.194  17.256  0.00  0.00    +0.000 OA
ATOM      6  C   UNL     1       2.873   7.235  18.413  0.00  0.00    +0.000 A 
ATOM      7  C   UNL     1       2.780   6.544  19.568  0.00  0.00    +0.000 A 
ATOM      8  N   UNL     1       2.040   6.983  20.644  0.00  0.00    +0.000 N 
ATOM      9  C   UNL     1       1.376   8.213  20.636  0.00  0.00    +0.000 A 
ATOM     10  C   UNL     1       0.672   8.658  21.756  0.00  0.00    +0.000 A 
ATOM     11  C   UNL     1       0.030   9.901  21.735  0.00  0.00    +0.000 A 
ATOM     12 CL   UNL     1      -0.816  10.395  23.160  0.00  0.00    +0.000 Cl
ATOM     13  C   UNL     1       3.489   5.218  19.742  0.00  0.00    +0.000 C 
ATOM     14  C   UNL     1       3.958   4.602  18.423  0.00  0.00    +0.000 C 
ATOM     15  C   UNL     1       4.649   5.652  17.564  0.00  0.00    +0.000 C 
ATOM     16  C   UNL     1       3.684   6.792  17.227  0.00  0.00    +0.000 C 
ATOM     17  H   UNL     1       2.064   6.442  21.500  0.00  0.00    +0.000 HD
ENDROOT
BRANCH   1  19
ATOM     18  C   UNL     1      -1.723  12.102  19.893  0.00  0.00    +0.000 C 
ATOM     19  O   UNL     1      -0.537  11.939  20.661  0.00  0.00    +0.000 OA
ENDBRANCH   1  19
TORSDOF 1
ENDMDL
MODEL 5
REMARK VINA RESULT:      -6.6      4.481      6.065
REMARK  Name = 
REMARK  2 active torsions:
REMARK  status: ('A' for Active; 'I' for Inactive)
REMARK    1  A    between atoms: C_1  and  O_2
REMARK    2  A    between atoms: O_2  and  C_3
REMARK                            x       y       z     vdW  Elec       q    Type
REMARK                         _______ _______ _______ _____ _____    ______ ____
ROOT
ATOM      1  C   UNL     1       3.271   4.147  18.937  0.00  0.00    +0.000 A 
ATOM      2  C   UNL     1       3.144   5.377  18.286  0.00  0.00    +0.000 A 
ATOM      3  C   UNL     1       2.569   6.463  18.953  0.00  0.00    +0.000 A 
ATOM      4  C   UNL     1       2.414   7.768  18.260  0.00  0.00    +0.000 A 
ATOM      5  O   UNL     1       2.833   7.926  17.114  0.00  0.00    +0.000 OA
ATOM      6  C   UNL     1       1.728   8.869  19.003  0.00  0.00    +0.000 A 
ATOM      7  C   UNL     1       1.327   8.641  20.271  0.00  0.00    +0.000 A 
ATOM      8  N   UNL     1       1.526   7.439  20.913  0.00  0.00    +0.000 N 
ATOM      9  C   UNL     1       2.109   6.342  20.272  0.00  0.00    +0.000 A 
ATOM     10  C   UNL     1       2.255   5.119  20.928  0.00  0.00    +0.000 A 
ATOM     11  C   UNL     1       2.824   4.028  20.262  0.00  0.00    +0.000 A 
ATOM     12 CL   UNL     1       2.967   2.539  21.132  0.00  0.00    +0.000 Cl
ATOM     13  C   UNL     1       0.634   9.721  21.075  0.00  0.00    +0.000 C 
ATOM     14  C   UNL     1       0.788  11.118  20.474  0.00  0.00    +0.000 C 
ATOM     15  C   UNL     1       0.515  11.085  18.976  0.00  0.00    +0.000 C 
ATOM     16  C   UNL     1       1.513  10.163  18.269  0.00  0.00    +0.000 C 
ATOM     17  H   UNL     1       1.146   7.319  21.845  0.00  0.00    +0.000 HD
ENDROOT
BRANCH   1  19
ATOM     18  C   UNL     1       2.819   2.230  17.618  0.00  0.00    +0.000 C 
ATOM     19  O   UNL     1       3.763   3.019  18.332  0.00  0.00    +0.000 OA
ENDBRANCH   1  19
TORSDOF 1
ENDMDL
MODEL 6
REMARK VINA RESULT:      -6.5      3.717      4.911
REMARK  Name = 
REMARK  2 active torsions:
REMARK  status: ('A' for Active; 'I' for Inactive)
REMARK    1  A    between atoms: C_1  and  O_2
REMARK    2  A    between atoms: O_2  and  C_3
REMARK                            x       y       z     vdW  Elec       q    Type
REMARK                         _______ _______ _______ _____ _____    ______ ____
ROOT
ATOM      1  C   UNL     1       4.496   4.315  18.789  0.00  0.00    +0.000 A 
ATOM      2  C   UNL     1       3.555   4.960  19.597  0.00  0.00    +0.000 A 
ATOM      3  C   UNL     1       3.041   6.203  19.212  0.00  0.00    +0.000 A 
ATOM      4  C   UNL     1       2.055   6.902  20.076  0.00  0.00    +0.000 A 
ATOM      5  O   UNL     1       1.639   6.378  21.109  0.00  0.00    +0.000 OA
ATOM      6  C   UNL     1       1.598   8.259  19.646  0.00  0.00    +0.000 A 
ATOM      7  C   UNL     1       2.065   8.760  18.483  0.00  0.00    +0.000 A 
ATOM      8  N   UNL     1       2.940   8.073  17.671  0.00  0.00    +0.000 N 
ATOM      9  C   UNL     1       3.459   6.824  18.027  0.00  0.00    +0.000 A 
ATOM     10  C   UNL     1       4.383   6.170  17.211  0.00  0.00    +0.000 A 
ATOM     11  C   UNL     1       4.904   4.930  17.594  0.00  0.00    +0.000 A 
ATOM     12 CL   UNL     1       6.052   4.178  16.541  0.00  0.00    +0.000 Cl
ATOM     13  C   UNL     1       1.631  10.125  17.993  0.00  0.00    +0.000 C 
ATOM     14  C   UNL     1       0.391  10.661  18.709  0.00  0.00    +0.000 C 
ATOM     15  C   UNL     1       0.525  10.474  20.215  0.00  0.00    +0.000 C 
ATOM     16  C   UNL     1       0.654   8.988  20.561  0.00  0.00    +0.000 C 
ATOM     17  H   UNL     1       3.295   8.535  16.842  0.00  0.00    +0.000 HD
ENDROOT
BRANCH   1  19
ATOM     18  C   UNL     1       4.364   2.290  20.013  0.00  0.00    +0.000 C 
ATOM     19  O   UNL     1       5.094   3.129  19.126  0.00  0.00    +0.000 OA
ENDBRANCH   1  19
TORSDOF 1
ENDMDL
MODEL 7
REMARK VINA RESULT:      -6.4      3.213      6.046
REMARK  Name = 
REMARK  2 active torsions:
REMARK  status: ('A' for Active; 'I' for Inactive)
REMARK    1  A    between atoms: C_1  and  O_2
REMARK    2  A    between atoms: O_2  and  C_3
REMARK                            x       y       z     vdW  Elec       q    Type
REMARK                         _______ _______ _______ _____ _____    ______ ____
ROOT
ATOM      1  C   UNL     1       1.950   4.610  20.116  0.00  0.00    +0.000 A 
ATOM      2  C   UNL     1       2.650   3.775  19.241  0.00  0.00    +0.000 A 
ATOM      3  C   UNL     1       3.483   4.329  18.265  0.00  0.00    +0.000 A 
ATOM      4  C   UNL     1       4.215   3.447  17.319  0.00  0.00    +0.000 A 
ATOM      5  O   UNL     1       4.139   2.222  17.414  0.00  0.00    +0.000 OA
ATOM      6  C   UNL     1       5.033   4.102  16.253  0.00  0.00    +0.000 A 
ATOM      7  C   UNL     1       5.104   5.449  16.229  0.00  0.00    +0.000 A 
ATOM      8  N   UNL     1       4.458   6.248  17.147  0.00  0.00    +0.000 N 
ATOM      9  C   UNL     1       3.629   5.718  18.140  0.00  0.00    +0.000 A 
ATOM     10  C   UNL     1       2.947   6.551  19.027  0.00  0.00    +0.000 A 
ATOM     11  C   UNL     1       2.107   6.001  20.002  0.00  0.00    +0.000 A 
ATOM     12 CL   UNL     1       1.284   7.091  21.064  0.00  0.00    +0.000 Cl
ATOM     13  C   UNL     1       5.924   6.167  15.178  0.00  0.00    +0.000 C 
ATOM     14  C   UNL     1       6.910   5.255  14.449  0.00  0.00    +0.000 C 
ATOM     15  C   UNL     1       6.225   3.960  14.031  0.00  0.00    +0.000 C 
ATOM     16  C   UNL     1       5.713   3.203  15.259  0.00  0.00    +0.000 C 
ATOM     17  H   UNL     1       4.508   7.253  17.032  0.00  0.00    +0.000 HD
ENDROOT
BRANCH   1  19
ATOM     18  C   UNL     1       1.332   2.855  21.584  0.00  0.00    +0.000 C 
ATOM     19  O   UNL     1       1.066   4.149  21.056  0.00  0.00    +0.000 OA
ENDBRANCH   1  19
TORSDOF 1
ENDMDL
MODEL 8
REMARK VINA RESULT:      -6.3      4.042      6.069
REMARK  Name = 
REMARK  2 active torsions:
REMARK  status: ('A' for Active; 'I' for Inactive)
REMARK    1  A    between atoms: C_1  and  O_2
REMARK    2  A    between atoms: O_2  and  C_3
REMARK                            x       y       z     vdW  Elec       q    Type
REMARK                         _______ _______ _______ _____ _____    ______ ____
ROOT
ATOM      1  C   UNL     1       1.017   8.487  20.423  0.00  0.00    +0.000 A 
ATOM      2  C   UNL     1       1.765   7.307  20.383  0.00  0.00    +0.000 A 
ATOM      3  C   UNL     1       2.618   7.059  19.304  0.00  0.00    +0.000 A 
ATOM      4  C   UNL     1       3.401   5.797  19.246  0.00  0.00    +0.000 A 
ATOM      5  O   UNL     1       3.351   4.982  20.167  0.00  0.00    +0.000 OA
ATOM      6  C   UNL     1       4.240   5.558  18.032  0.00  0.00    +0.000 A 
ATOM      7  C   UNL     1       4.280   6.510  17.077  0.00  0.00    +0.000 A 
ATOM      8  N   UNL     1       3.585   7.696  17.173  0.00  0.00    +0.000 N 
ATOM      9  C   UNL     1       2.736   7.973  18.248  0.00  0.00    +0.000 A 
ATOM     10  C   UNL     1       2.004   9.161  18.298  0.00  0.00    +0.000 A 
ATOM     11  C   UNL     1       1.145   9.411  19.373  0.00  0.00    +0.000 A 
ATOM     12 CL   UNL     1       0.261  10.898  19.369  0.00  0.00    +0.000 Cl
ATOM     13  C   UNL     1       5.118   6.326  15.829  0.00  0.00    +0.000 C 
ATOM     14  C   UNL     1       6.150   5.205  15.950  0.00  0.00    +0.000 C 
ATOM     15  C   UNL     1       5.510   3.958  16.547  0.00  0.00    +0.000 C 
ATOM     16  C   UNL     1       4.974   4.249  17.951  0.00  0.00    +0.000 C 
ATOM     17  H   UNL     1       3.615   8.339  16.391  0.00  0.00    +0.000 HD
ENDROOT
BRANCH   1  19
ATOM     18  C   UNL     1       0.648   9.319  22.612  0.00  0.00    +0.000 C 
ATOM     19  O   UNL     1       0.112   8.775  21.412  0.00  0.00    +0.000 OA
ENDBRANCH   1  19
TORSDOF 1
ENDMDL
MODEL 9
REMARK VINA RESULT:      -6.3      2.941      5.649
REMARK  Name = 
REMARK  2 active torsions:
REMARK  status: ('A' for Active; 'I' for Inactive)
REMARK    1  A    between atoms: C_1  and  O_2
REMARK    2  A    between atoms: O_2  and  C_3
REMARK                            x       y       z     vdW  Elec       q    Type
REMARK                         _______ _______ _______ _____ _____    ______ ____
ROOT
ATOM      1  C   UNL     1       2.062   5.520  20.200  0.00  0.00    +0.000 A 
ATOM      2  C   UNL     1       2.734   6.199  19.179  0.00  0.00    +0.000 A 
ATOM      3  C   UNL     1       3.478   5.483  18.238  0.00  0.00    +0.000 A 
ATOM      4  C   UNL     1       4.210   6.201  17.162  0.00  0.00    +0.000 A 
ATOM      5  O   UNL     1       4.130   7.424  17.054  0.00  0.00    +0.000 OA
ATOM      6  C   UNL     1       5.046   5.384  16.230  0.00  0.00    +0.000 A 
ATOM      7  C   UNL     1       5.060   4.044  16.380  0.00  0.00    +0.000 A 
ATOM      8  N   UNL     1       4.334   3.393  17.353  0.00  0.00    +0.000 N 
ATOM      9  C   UNL     1       3.572   4.086  18.299  0.00  0.00    +0.000 A 
ATOM     10  C   UNL     1       2.884   3.406  19.305  0.00  0.00    +0.000 A 
ATOM     11  C   UNL     1       2.142   4.119  20.254  0.00  0.00    +0.000 A 
ATOM     12 CL   UNL     1       1.322   3.216  21.479  0.00  0.00    +0.000 Cl
ATOM     13  C   UNL     1       5.882   3.165  15.461  0.00  0.00    +0.000 C 
ATOM     14  C   UNL     1       6.341   3.879  14.189  0.00  0.00    +0.000 C 
ATOM     15  C   UNL     1       6.907   5.252  14.527  0.00  0.00    +0.000 C 
ATOM     16  C   UNL     1       5.838   6.125  15.189  0.00  0.00    +0.000 C 
ATOM     17  H   UNL     1       4.439   2.389  17.446  0.00  0.00    +0.000 HD
ENDROOT
BRANCH   1  19
ATOM     18  C   UNL     1       1.258   7.566  21.086  0.00  0.00    +0.000 C 
ATOM     19  O   UNL     1       1.365   6.152  21.196  0.00  0.00    +0.000 OA
ENDBRANCH   1  19
TORSDOF 1
ENDMDL
