MODEL 1
REMARK VINA RESULT:      -7.5      0.000      0.000
REMARK  Name = 
REMARK  5 active torsions:
REMARK  status: ('A' for Active; 'I' for Inactive)
REMARK    1  A    between atoms: C_2  and  N_3
REMARK    2  A    between atoms: N_5  and  C_6
REMARK    3  A    between atoms: C_6  and  C_7
REMARK    4  A    between atoms: C_7  and  C_8
REMARK    5  A    between atoms: N_14  and  C_15
REMARK                            x       y       z     vdW  Elec       q    Type
REMARK                         _______ _______ _______ _____ _____    ______ ____
ROOT
ATOM      1  N   UNL     1       5.832   6.492  16.236  0.00  0.00    +0.000 NA
ATOM      2  C   UNL     1       4.710   6.333  16.858  0.00  0.00    +0.000 C 
ATOM      3  N   UNL     1       4.113   5.224  17.406  0.00  0.00    +0.000 N 
ATOM      4  N   UNL     1       3.906   7.447  16.945  0.00  0.00    +0.000 N 
ATOM      5  H   UNL     1       3.116   5.177  17.229  0.00  0.00    +0.000 HD
ATOM      6  H   UNL     1       4.285   8.250  16.448  0.00  0.00    +0.000 HD
ENDROOT
BRANCH   4   7
ATOM      7  C   UNL     1       3.072   7.826  18.019  0.00  0.00    +0.000 A 
ATOM      8  C   UNL     1       2.929   7.050  19.177  0.00  0.00    +0.000 A 
ATOM      9  C   UNL     1       1.989   7.376  20.165  0.00  0.00    +0.000 A 
ATOM     10  C   UNL     1       1.160   8.500  19.986  0.00  0.00    +0.000 A 
ATOM     11  N   UNL     1       0.135   8.917  20.826  0.00  0.00    +0.000 NA
ATOM     12  N   UNL     1      -0.467  10.001  20.370  0.00  0.00    +0.000 NA
ATOM     13  S   UNL     1       0.199  10.568  18.948  0.00  0.00    +0.000 S 
ATOM     14  C   UNL     1       1.354   9.295  18.855  0.00  0.00    +0.000 A 
ATOM     15  C   UNL     1       2.319   9.002  17.880  0.00  0.00    +0.000 A 
ENDBRANCH   4   7
BRANCH   1  17
ATOM     16  N   UNL     1       7.285   4.519  15.754  0.00  0.00    +0.000 NA
ATOM     17  C   UNL     1       6.614   5.442  15.985  0.00  0.00    +0.000 C 
ENDBRANCH   1  17
BRANCH   3  18
ATOM     18  C   UNL     1       4.731   3.982  17.821  0.00  0.00    +0.000 C 
BRANCH  18  19
ATOM     19  C   UNL     1       4.504   3.711  19.319  0.00  0.00    +0.000 C 
BRANCH  19  20
ATOM     20  C   UNL     1       3.514   2.575  19.674  0.00  0.00    +0.000 C 
ATOM     21  C   UNL     1       2.949   2.656  21.100  0.00  0.00    +0.000 C 
ATOM     22  C   UNL     1       1.930   3.778  21.295  0.00  0.00    +0.000 C 
ATOM     23  C   UNL     1       0.825   3.778  20.241  0.00  0.00    +0.000 C 
ATOM     24  C   UNL     1       1.350   3.651  18.816  0.00  0.00    +0.000 C 
ATOM     25  C   UNL     1       2.348   2.504  18.669  0.00  0.00    +0.000 C 
ENDBRANCH  19  20
ENDBRANCH  18  19
ENDBRANCH   3  18
TORSDOF 5
ENDMDL
MODEL 2
REMARK VINA RESULT:      -7.3      2.237      4.301
REMARK  Name = 
REMARK  5 active torsions:
REMARK  status: ('A' for Active; 'I' for Inactive)
REMARK    1  A    between atoms: C_2  and  N_3
REMARK    2  A    between atoms: N_5  and  C_6
REMARK    3  A    between atoms: C_6  and  C_7
REMARK    4  A    between atoms: C_7  and  C_8
REMARK    5  A    between atoms: N_14  and  C_15
REMARK                            x       y       z     vdW  Elec       q    Type
REMARK                         _______ _______ _______ _____ _____    ______ ____
ROOT
ATOM      1  N   UNL     1       2.980   3.687  20.180  0.00  0.00    +0.000 NA
ATOM      2  C   UNL     1       3.244   4.950  20.105  0.00  0.00    +0.000 C 
ATOM      3  N   UNL     1       4.409   5.631  19.845  0.00  0.00    +0.000 N 
ATOM      4  N   UNL     1       2.205   5.803  20.405  0.00  0.00    +0.000 N 
ATOM      5  H   UNL     1       4.539   6.443  20.437  0.00  0.00    +0.000 HD
ATOM      6  H   UNL     1       1.365   5.313  20.707  0.00  0.00    +0.000 HD
ENDROOT
BRANCH   4   7
ATOM      7  C   UNL     1       1.915   7.050  19.812  0.00  0.00    +0.000 A 
ATOM      8  C   UNL     1       2.218   7.341  18.475  0.00  0.00    +0.000 A 
ATOM      9  C   UNL     1       2.051   8.631  17.951  0.00  0.00    +0.000 A 
ATOM     10  C   UNL     1       1.580   9.661  18.788  0.00  0.00    +0.000 A 
ATOM     11  N   UNL     1       1.427  10.999  18.449  0.00  0.00    +0.000 NA
ATOM     12  N   UNL     1       0.979  11.717  19.463  0.00  0.00    +0.000 NA
ATOM     13  S   UNL     1       0.694  10.805  20.833  0.00  0.00    +0.000 S 
ATOM     14  C   UNL     1       1.228   9.341  20.101  0.00  0.00    +0.000 A 
ATOM     15  C   UNL     1       1.353   8.046  20.624  0.00  0.00    +0.000 A 
ENDBRANCH   4   7
BRANCH   1  17
ATOM     16  N   UNL     1       4.805   2.001  19.933  0.00  0.00    +0.000 NA
ATOM     17  C   UNL     1       3.955   2.789  20.040  0.00  0.00    +0.000 C 
ENDBRANCH   1  17
BRANCH   3  18
ATOM     18  C   UNL     1       5.598   5.154  19.172  0.00  0.00    +0.000 C 
BRANCH  18  19
ATOM     19  C   UNL     1       5.850   5.920  17.860  0.00  0.00    +0.000 C 
BRANCH  19  20
ATOM     20  C   UNL     1       4.843   5.673  16.711  0.00  0.00    +0.000 C 
ATOM     21  C   UNL     1       5.306   6.199  15.344  0.00  0.00    +0.000 C 
ATOM     22  C   UNL     1       6.424   5.370  14.713  0.00  0.00    +0.000 C 
ATOM     23  C   UNL     1       6.118   3.875  14.676  0.00  0.00    +0.000 C 
ATOM     24  C   UNL     1       5.610   3.330  16.005  0.00  0.00    +0.000 C 
ATOM     25  C   UNL     1       4.481   4.180  16.584  0.00  0.00    +0.000 C 
ENDBRANCH  19  20
ENDBRANCH  18  19
ENDBRANCH   3  18
TORSDOF 5
ENDMDL
MODEL 3
REMARK VINA RESULT:      -7.2      2.165      4.503
REMARK  Name = 
REMARK  5 active torsions:
REMARK  status: ('A' for Active; 'I' for Inactive)
REMARK    1  A    between atoms: C_2  and  N_3
REMARK    2  A    between atoms: N_5  and  C_6
REMARK    3  A    between atoms: C_6  and  C_7
REMARK    4  A    between atoms: C_7  and  C_8
REMARK    5  A    between atoms: N_14  and  C_15
REMARK                            x       y       z     vdW  Elec       q    Type
REMARK                         _______ _______ _______ _____ _____    ______ ____
ROOT
ATOM      1  N   UNL     1       1.794   4.459  20.754  0.00  0.00    +0.000 NA
ATOM      2  C   UNL     1       2.174   5.478  20.054  0.00  0.00    +0.000 C 
ATOM      3  N   UNL     1       2.775   5.573  18.822  0.00  0.00    +0.000 N 
ATOM      4  N   UNL     1       2.028   6.710  20.652  0.00  0.00    +0.000 N 
ATOM      5  H   UNL     1       3.507   6.273  18.786  0.00  0.00    +0.000 HD
ATOM      6  H   UNL     1       1.686   6.648  21.609  0.00  0.00    +0.000 HD
ENDROOT
BRANCH   4   7
ATOM      7  C   UNL     1       1.681   7.931  20.036  0.00  0.00    +0.000 A 
ATOM      8  C   UNL     1       2.055   8.250  18.724  0.00  0.00    +0.000 A 
ATOM      9  C   UNL     1       1.822   9.524  18.186  0.00  0.00    +0.000 A 
ATOM     10  C   UNL     1       1.209  10.509  18.984  0.00  0.00    +0.000 A 
ATOM     11  N   UNL     1       0.974  11.832  18.632  0.00  0.00    +0.000 NA
ATOM     12  N   UNL     1       0.396  12.508  19.610  0.00  0.00    +0.000 NA
ATOM     13  S   UNL     1       0.089  11.571  20.958  0.00  0.00    +0.000 S 
ATOM     14  C   UNL     1       0.791  10.158  20.269  0.00  0.00    +0.000 A 
ATOM     15  C   UNL     1       0.983   8.876  20.803  0.00  0.00    +0.000 A 
ENDBRANCH   4   7
BRANCH   1  17
ATOM     16  N   UNL     1       2.206   2.143  19.918  0.00  0.00    +0.000 NA
ATOM     17  C   UNL     1       2.020   3.222  20.314  0.00  0.00    +0.000 C 
ENDBRANCH   1  17
BRANCH   3  18
ATOM     18  C   UNL     1       2.794   4.597  17.754  0.00  0.00    +0.000 C 
BRANCH  18  19
ATOM     19  C   UNL     1       4.223   4.095  17.472  0.00  0.00    +0.000 C 
BRANCH  19  20
ATOM     20  C   UNL     1       4.946   4.717  16.253  0.00  0.00    +0.000 C 
ATOM     21  C   UNL     1       4.951   6.252  16.240  0.00  0.00    +0.000 C 
ATOM     22  C   UNL     1       5.888   6.873  17.275  0.00  0.00    +0.000 C 
ATOM     23  C   UNL     1       7.302   6.298  17.230  0.00  0.00    +0.000 C 
ATOM     24  C   UNL     1       7.332   4.774  17.193  0.00  0.00    +0.000 C 
ATOM     25  C   UNL     1       6.395   4.204  16.131  0.00  0.00    +0.000 C 
ENDBRANCH  19  20
ENDBRANCH  18  19
ENDBRANCH   3  18
TORSDOF 5
ENDMDL
MODEL 4
REMARK VINA RESULT:      -7.0      3.258      6.449
REMARK  Name = 
REMARK  5 active torsions:
REMARK  status: ('A' for Active; 'I' for Inactive)
REMARK    1  A    between atoms: C_2  and  N_3
REMARK    2  A    between atoms: N_5  and  C_6
REMARK    3  A    between atoms: C_6  and  C_7
REMARK    4  A    between atoms: C_7  and  C_8
REMARK    5  A    between atoms: N_14  and  C_15
REMARK                            x       y       z     vdW  Elec       q    Type
REMARK                         _______ _______ _______ _____ _____    ______ ____
ROOT
ATOM      1  N   UNL     1       3.425   2.841  20.738  0.00  0.00    +0.000 NA
ATOM      2  C   UNL     1       3.688   3.108  19.501  0.00  0.00    +0.000 C 
ATOM      3  N   UNL     1       2.887   3.502  18.456  0.00  0.00    +0.000 N 
ATOM      4  N   UNL     1       4.990   2.900  19.102  0.00  0.00    +0.000 N 
ATOM      5  H   UNL     1       3.111   3.039  17.583  0.00  0.00    +0.000 HD
ATOM      6  H   UNL     1       5.571   2.503  19.837  0.00  0.00    +0.000 HD
ENDROOT
BRANCH   4   7
ATOM      7  C   UNL     1       5.739   3.659  18.177  0.00  0.00    +0.000 A 
ATOM      8  C   UNL     1       6.488   4.782  18.550  0.00  0.00    +0.000 A 
ATOM      9  C   UNL     1       7.106   5.600  17.594  0.00  0.00    +0.000 A 
ATOM     10  C   UNL     1       6.961   5.295  16.227  0.00  0.00    +0.000 A 
ATOM     11  N   UNL     1       7.444   6.037  15.156  0.00  0.00    +0.000 NA
ATOM     12  N   UNL     1       7.128   5.492  13.995  0.00  0.00    +0.000 NA
ATOM     13  S   UNL     1       6.278   4.063  14.155  0.00  0.00    +0.000 S 
ATOM     14  C   UNL     1       6.260   4.140  15.875  0.00  0.00    +0.000 A 
ATOM     15  C   UNL     1       5.672   3.293  16.825  0.00  0.00    +0.000 A 
ENDBRANCH   4   7
BRANCH   1  17
ATOM     16  N   UNL     1       1.071   2.901  21.567  0.00  0.00    +0.000 NA
ATOM     17  C   UNL     1       2.169   2.882  21.180  0.00  0.00    +0.000 C 
ENDBRANCH   1  17
BRANCH   3  18
ATOM     18  C   UNL     1       1.588   4.138  18.509  0.00  0.00    +0.000 C 
BRANCH  18  19
ATOM     19  C   UNL     1       1.623   5.548  17.891  0.00  0.00    +0.000 C 
BRANCH  19  20
ATOM     20  C   UNL     1       2.753   6.488  18.375  0.00  0.00    +0.000 C 
ATOM     21  C   UNL     1       2.810   7.834  17.637  0.00  0.00    +0.000 C 
ATOM     22  C   UNL     1       1.679   8.790  18.012  0.00  0.00    +0.000 C 
ATOM     23  C   UNL     1       1.518   8.972  19.519  0.00  0.00    +0.000 C 
ATOM     24  C   UNL     1       1.505   7.656  20.287  0.00  0.00    +0.000 C 
ATOM     25  C   UNL     1       2.665   6.745  19.892  0.00  0.00    +0.000 C 
ENDBRANCH  19  20
ENDBRANCH  18  19
ENDBRANCH   3  18
TORSDOF 5
ENDMDL
MODEL 5
REMARK VINA RESULT:      -7.0      2.244      4.371
REMARK  Name = 
REMARK  5 active torsions:
REMARK  status: ('A' for Active; 'I' for Inactive)
REMARK    1  A    between atoms: C_2  and  N_3
REMARK    2  A    between atoms: N_5  and  C_6
REMARK    3  A    between atoms: C_6  and  C_7
REMARK    4  A    between atoms: C_7  and  C_8
REMARK    5  A    between atoms: N_14  and  C_15
REMARK                            x       y       z     vdW  Elec       q    Type
REMARK                         _______ _______ _______ _____ _____    ______ ____
ROOT
ATOM      1  N   UNL     1       3.008   3.395  20.390  0.00  0.00    +0.000 NA
ATOM      2  C   UNL     1       3.311   4.639  20.209  0.00  0.00    +0.000 C 
ATOM      3  N   UNL     1       4.483   5.255  19.844  0.00  0.00    +0.000 N 
ATOM      4  N   UNL     1       2.318   5.550  20.494  0.00  0.00    +0.000 N 
ATOM      5  H   UNL     1       4.671   6.102  20.367  0.00  0.00    +0.000 HD
ATOM      6  H   UNL     1       1.478   5.116  20.871  0.00  0.00    +0.000 HD
ENDROOT
BRANCH   4   7
ATOM      7  C   UNL     1       2.041   6.761  19.824  0.00  0.00    +0.000 A 
ATOM      8  C   UNL     1       2.381   6.978  18.482  0.00  0.00    +0.000 A 
ATOM      9  C   UNL     1       2.225   8.236  17.883  0.00  0.00    +0.000 A 
ATOM     10  C   UNL     1       1.728   9.309  18.647  0.00  0.00    +0.000 A 
ATOM     11  N   UNL     1       1.582  10.626  18.230  0.00  0.00    +0.000 NA
ATOM     12  N   UNL     1       1.104  11.398  19.190  0.00  0.00    +0.000 NA
ATOM     13  S   UNL     1       0.783  10.562  20.600  0.00  0.00    +0.000 S 
ATOM     14  C   UNL     1       1.341   9.062  19.965  0.00  0.00    +0.000 A 
ATOM     15  C   UNL     1       1.455   7.799  20.563  0.00  0.00    +0.000 A 
ENDBRANCH   4   7
BRANCH   1  17
ATOM     16  N   UNL     1       4.747   1.619  20.161  0.00  0.00    +0.000 NA
ATOM     17  C   UNL     1       3.942   2.453  20.270  0.00  0.00    +0.000 C 
ENDBRANCH   1  17
BRANCH   3  18
ATOM     18  C   UNL     1       5.620   4.685  19.152  0.00  0.00    +0.000 C 
BRANCH  18  19
ATOM     19  C   UNL     1       6.795   5.678  19.084  0.00  0.00    +0.000 C 
BRANCH  19  20
ATOM     20  C   UNL     1       7.446   5.885  17.695  0.00  0.00    +0.000 C 
ATOM     21  C   UNL     1       7.412   4.642  16.793  0.00  0.00    +0.000 C 
ATOM     22  C   UNL     1       6.025   4.323  16.238  0.00  0.00    +0.000 C 
ATOM     23  C   UNL     1       5.347   5.524  15.581  0.00  0.00    +0.000 C 
ATOM     24  C   UNL     1       5.405   6.788  16.431  0.00  0.00    +0.000 C 
ATOM     25  C   UNL     1       6.815   7.074  16.944  0.00  0.00    +0.000 C 
ENDBRANCH  19  20
ENDBRANCH  18  19
ENDBRANCH   3  18
TORSDOF 5
ENDMDL
MODEL 6
REMARK VINA RESULT:      -7.0      2.337      4.581
REMARK  Name = 
REMARK  5 active torsions:
REMARK  status: ('A' for Active; 'I' for Inactive)
REMARK    1  A    between atoms: C_2  and  N_3
REMARK    2  A    between atoms: N_5  and  C_6
REMARK    3  A    between atoms: C_6  and  C_7
REMARK    4  A    between atoms: C_7  and  C_8
REMARK    5  A    between atoms: N_14  and  C_15
REMARK                            x       y       z     vdW  Elec       q    Type
REMARK                         _______ _______ _______ _____ _____    ______ ____
ROOT
ATOM      1  N   UNL     1       2.283   4.072  20.607  0.00  0.00    +0.000 NA
ATOM      2  C   UNL     1       2.633   5.307  20.459  0.00  0.00    +0.000 C 
ATOM      3  N   UNL     1       3.784   5.885  19.981  0.00  0.00    +0.000 N 
ATOM      4  N   UNL     1       1.739   6.248  20.920  0.00  0.00    +0.000 N 
ATOM      5  H   UNL     1       4.086   6.686  20.523  0.00  0.00    +0.000 HD
ATOM      6  H   UNL     1       0.929   5.834  21.378  0.00  0.00    +0.000 HD
ENDROOT
BRANCH   4   7
ATOM      7  C   UNL     1       1.451   7.511  20.361  0.00  0.00    +0.000 A 
ATOM      8  C   UNL     1       1.824   7.864  19.058  0.00  0.00    +0.000 A 
ATOM      9  C   UNL     1       1.654   9.170  18.577  0.00  0.00    +0.000 A 
ATOM     10  C   UNL     1       1.109  10.154  19.425  0.00  0.00    +0.000 A 
ATOM     11  N   UNL     1       0.943  11.501  19.131  0.00  0.00    +0.000 NA
ATOM     12  N   UNL     1       0.418  12.166  20.145  0.00  0.00    +0.000 NA
ATOM     13  S   UNL     1       0.078  11.192  21.459  0.00  0.00    +0.000 S 
ATOM     14  C   UNL     1       0.691   9.772  20.701  0.00  0.00    +0.000 A 
ATOM     15  C   UNL     1       0.819   8.460  21.178  0.00  0.00    +0.000 A 
ENDBRANCH   4   7
BRANCH   1  17
ATOM     16  N   UNL     1       3.873   2.229  20.051  0.00  0.00    +0.000 NA
ATOM     17  C   UNL     1       3.138   3.093  20.314  0.00  0.00    +0.000 C 
ENDBRANCH   1  17
BRANCH   3  18
ATOM     18  C   UNL     1       4.790   5.303  19.117  0.00  0.00    +0.000 C 
BRANCH  18  19
ATOM     19  C   UNL     1       4.460   5.534  17.631  0.00  0.00    +0.000 C 
BRANCH  19  20
ATOM     20  C   UNL     1       5.499   6.335  16.808  0.00  0.00    +0.000 C 
ATOM     21  C   UNL     1       6.959   5.968  17.110  0.00  0.00    +0.000 C 
ATOM     22  C   UNL     1       7.379   4.607  16.556  0.00  0.00    +0.000 C 
ATOM     23  C   UNL     1       7.039   4.428  15.078  0.00  0.00    +0.000 C 
ATOM     24  C   UNL     1       5.609   4.830  14.735  0.00  0.00    +0.000 C 
ATOM     25  C   UNL     1       5.245   6.204  15.293  0.00  0.00    +0.000 C 
ENDBRANCH  19  20
ENDBRANCH  18  19
ENDBRANCH   3  18
TORSDOF 5
ENDMDL
MODEL 7
REMARK VINA RESULT:      -6.9      2.942      5.009
REMARK  Name = 
REMARK  5 active torsions:
REMARK  status: ('A' for Active; 'I' for Inactive)
REMARK    1  A    between atoms: C_2  and  N_3
REMARK    2  A    between atoms: N_5  and  C_6
REMARK    3  A    between atoms: C_6  and  C_7
REMARK    4  A    between atoms: C_7  and  C_8
REMARK    5  A    between atoms: N_14  and  C_15
REMARK                            x       y       z     vdW  Elec       q    Type
REMARK                         _______ _______ _______ _____ _____    ______ ____
ROOT
ATOM      1  N   UNL     1       6.085   3.696  15.228  0.00  0.00    +0.000 NA
ATOM      2  C   UNL     1       5.502   3.920  16.360  0.00  0.00    +0.000 C 
ATOM      3  N   UNL     1       5.324   5.070  17.090  0.00  0.00    +0.000 N 
ATOM      4  N   UNL     1       5.020   2.811  17.020  0.00  0.00    +0.000 N 
ATOM      5  H   UNL     1       5.465   4.938  18.085  0.00  0.00    +0.000 HD
ATOM      6  H   UNL     1       5.241   1.939  16.544  0.00  0.00    +0.000 HD
ENDROOT
BRANCH   4   7
ATOM      7  C   UNL     1       3.847   2.714  17.799  0.00  0.00    +0.000 A 
ATOM      8  C   UNL     1       2.562   2.794  17.245  0.00  0.00    +0.000 A 
ATOM      9  C   UNL     1       1.418   2.839  18.055  0.00  0.00    +0.000 A 
ATOM     10  C   UNL     1       1.562   2.816  19.455  0.00  0.00    +0.000 A 
ATOM     11  N   UNL     1       0.544   2.925  20.395  0.00  0.00    +0.000 NA
ATOM     12  N   UNL     1       1.007   2.885  21.631  0.00  0.00    +0.000 NA
ATOM     13  S   UNL     1       2.663   2.679  21.702  0.00  0.00    +0.000 S 
ATOM     14  C   UNL     1       2.844   2.679  19.989  0.00  0.00    +0.000 A 
ATOM     15  C   UNL     1       3.992   2.592  19.189  0.00  0.00    +0.000 A 
ENDBRANCH   4   7
BRANCH   1  17
ATOM     16  N   UNL     1       7.222   5.561  14.018  0.00  0.00    +0.000 NA
ATOM     17  C   UNL     1       6.700   4.687  14.583  0.00  0.00    +0.000 C 
ENDBRANCH   1  17
BRANCH   3  18
ATOM     18  C   UNL     1       5.368   6.442  16.631  0.00  0.00    +0.000 C 
BRANCH  18  19
ATOM     19  C   UNL     1       4.475   7.354  17.493  0.00  0.00    +0.000 C 
BRANCH  19  20
ATOM     20  C   UNL     1       2.952   7.083  17.440  0.00  0.00    +0.000 C 
ATOM     21  C   UNL     1       2.450   6.105  18.512  0.00  0.00    +0.000 C 
ATOM     22  C   UNL     1       2.425   6.697  19.921  0.00  0.00    +0.000 C 
ATOM     23  C   UNL     1       1.710   8.044  19.997  0.00  0.00    +0.000 C 
ATOM     24  C   UNL     1       2.152   9.023  18.915  0.00  0.00    +0.000 C 
ATOM     25  C   UNL     1       2.141   8.391  17.525  0.00  0.00    +0.000 C 
ENDBRANCH  19  20
ENDBRANCH  18  19
ENDBRANCH   3  18
TORSDOF 5
ENDMDL
MODEL 8
REMARK VINA RESULT:      -6.9      3.023      6.241
REMARK  Name = 
REMARK  5 active torsions:
REMARK  status: ('A' for Active; 'I' for Inactive)
REMARK    1  A    between atoms: C_2  and  N_3
REMARK    2  A    between atoms: N_5  and  C_6
REMARK    3  A    between atoms: C_6  and  C_7
REMARK    4  A    between atoms: C_7  and  C_8
REMARK    5  A    between atoms: N_14  and  C_15
REMARK                            x       y       z     vdW  Elec       q    Type
REMARK                         _______ _______ _______ _____ _____    ______ ____
ROOT
ATOM      1  N   UNL     1       3.496   2.529  21.174  0.00  0.00    +0.000 NA
ATOM      2  C   UNL     1       3.534   2.963  19.957  0.00  0.00    +0.000 C 
ATOM      3  N   UNL     1       2.552   3.434  19.119  0.00  0.00    +0.000 N 
ATOM      4  N   UNL     1       4.757   2.889  19.328  0.00  0.00    +0.000 N 
ATOM      5  H   UNL     1       2.643   3.098  18.167  0.00  0.00    +0.000 HD
ATOM      6  H   UNL     1       5.470   2.440  19.898  0.00  0.00    +0.000 HD
ENDROOT
BRANCH   4   7
ATOM      7  C   UNL     1       5.306   3.801  18.402  0.00  0.00    +0.000 A 
ATOM      8  C   UNL     1       5.231   3.612  17.016  0.00  0.00    +0.000 A 
ATOM      9  C   UNL     1       5.907   4.457  16.124  0.00  0.00    +0.000 A 
ATOM     10  C   UNL     1       6.690   5.512  16.631  0.00  0.00    +0.000 A 
ATOM     11  N   UNL     1       7.476   6.389  15.894  0.00  0.00    +0.000 NA
ATOM     12  N   UNL     1       8.103   7.258  16.666  0.00  0.00    +0.000 NA
ATOM     13  S   UNL     1       7.741   7.072  18.286  0.00  0.00    +0.000 S 
ATOM     14  C   UNL     1       6.709   5.721  18.011  0.00  0.00    +0.000 A 
ATOM     15  C   UNL     1       6.004   4.908  18.910  0.00  0.00    +0.000 A 
ENDBRANCH   4   7
BRANCH   1  17
ATOM     16  N   UNL     1       1.324   2.352  22.393  0.00  0.00    +0.000 NA
ATOM     17  C   UNL     1       2.332   2.436  21.817  0.00  0.00    +0.000 C 
ENDBRANCH   1  17
BRANCH   3  18
ATOM     18  C   UNL     1       1.257   3.976  19.468  0.00  0.00    +0.000 C 
BRANCH  18  19
ATOM     19  C   UNL     1       1.159   5.474  19.123  0.00  0.00    +0.000 C 
BRANCH  19  20
ATOM     20  C   UNL     1       2.386   6.347  19.479  0.00  0.00    +0.000 C 
ATOM     21  C   UNL     1       3.072   6.992  18.266  0.00  0.00    +0.000 C 
ATOM     22  C   UNL     1       2.275   8.139  17.646  0.00  0.00    +0.000 C 
ATOM     23  C   UNL     1       1.825   9.181  18.668  0.00  0.00    +0.000 C 
ATOM     24  C   UNL     1       1.182   8.571  19.908  0.00  0.00    +0.000 C 
ATOM     25  C   UNL     1       2.025   7.444  20.501  0.00  0.00    +0.000 C 
ENDBRANCH  19  20
ENDBRANCH  18  19
ENDBRANCH   3  18
TORSDOF 5
ENDMDL
MODEL 9
REMARK VINA RESULT:      -6.9      2.298      4.491
REMARK  Name = 
REMARK  5 active torsions:
REMARK  status: ('A' for Active; 'I' for Inactive)
REMARK    1  A    between atoms: C_2  and  N_3
REMARK    2  A    between atoms: N_5  and  C_6
REMARK    3  A    between atoms: C_6  and  C_7
REMARK    4  A    between atoms: C_7  and  C_8
REMARK    5  A    between atoms: N_14  and  C_15
REMARK                            x       y       z     vdW  Elec       q    Type
REMARK                         _______ _______ _______ _____ _____    ______ ____
ROOT
ATOM      1  N   UNL     1       1.904   4.866  21.034  0.00  0.00    +0.000 NA
ATOM      2  C   UNL     1       2.090   5.844  20.208  0.00  0.00    +0.000 C 
ATOM      3  N   UNL     1       2.456   5.872  18.885  0.00  0.00    +0.000 N 
ATOM      4  N   UNL     1       1.977   7.110  20.738  0.00  0.00    +0.000 N 
ATOM      5  H   UNL     1       3.125   6.602  18.669  0.00  0.00    +0.000 HD
ATOM      6  H   UNL     1       1.814   7.107  21.743  0.00  0.00    +0.000 HD
ENDROOT
BRANCH   4   7
ATOM      7  C   UNL     1       1.451   8.262  20.114  0.00  0.00    +0.000 A 
ATOM      8  C   UNL     1       1.841   8.673  18.833  0.00  0.00    +0.000 A 
ATOM      9  C   UNL     1       1.413   9.895  18.294  0.00  0.00    +0.000 A 
ATOM     10  C   UNL     1       0.582  10.734  19.061  0.00  0.00    +0.000 A 
ATOM     11  N   UNL     1       0.131  12.000  18.708  0.00  0.00    +0.000 NA
ATOM     12  N   UNL     1      -0.620  12.537  19.653  0.00  0.00    +0.000 NA
ATOM     13  S   UNL     1      -0.835  11.530  20.968  0.00  0.00    +0.000 S 
ATOM     14  C   UNL     1       0.156  10.284  20.312  0.00  0.00    +0.000 A 
ATOM     15  C   UNL     1       0.546   9.047  20.844  0.00  0.00    +0.000 A 
ENDBRANCH   4   7
BRANCH   1  17
ATOM     16  N   UNL     1       2.318   2.519  20.290  0.00  0.00    +0.000 NA
ATOM     17  C   UNL     1       2.124   3.611  20.645  0.00  0.00    +0.000 C 
ENDBRANCH   1  17
BRANCH   3  18
ATOM     18  C   UNL     1       2.346   4.818  17.899  0.00  0.00    +0.000 C 
BRANCH  18  19
ATOM     19  C   UNL     1       3.718   4.458  17.300  0.00  0.00    +0.000 C 
BRANCH  19  20
ATOM     20  C   UNL     1       4.683   5.637  17.025  0.00  0.00    +0.000 C 
ATOM     21  C   UNL     1       5.814   5.777  18.055  0.00  0.00    +0.000 C 
ATOM     22  C   UNL     1       6.891   4.700  17.936  0.00  0.00    +0.000 C 
ATOM     23  C   UNL     1       7.429   4.539  16.517  0.00  0.00    +0.000 C 
ATOM     24  C   UNL     1       6.332   4.445  15.463  0.00  0.00    +0.000 C 
ATOM     25  C   UNL     1       5.292   5.553  15.611  0.00  0.00    +0.000 C 
ENDBRANCH  19  20
ENDBRANCH  18  19
ENDBRANCH   3  18
TORSDOF 5
ENDMDL
