MODEL 1
REMARK VINA RESULT:      -7.3      0.000      0.000
REMARK  Name = 
REMARK  5 active torsions:
REMARK  status: ('A' for Active; 'I' for Inactive)
REMARK    1  A    between atoms: C_1  and  C_2
REMARK    2  A    between atoms: C_3  and  C_4
REMARK    3  A    between atoms: N_9  and  C_10
REMARK    4  A    between atoms: C_24  and  C_25
REMARK    5  A    between atoms: C_24  and  C_26
REMARK                            x       y       z     vdW  Elec       q    Type
REMARK                         _______ _______ _______ _____ _____    ______ ____
ROOT
ATOM      1  C   UNL     1       1.392  10.531  18.832  0.00  0.00    +0.000 C 
ATOM      2  O   UNL     1       2.256  11.393  18.670  0.00  0.00    +0.000 OA
ATOM      3  N   UNL     1       0.036  10.867  18.816  0.00  0.00    +0.000 N 
ATOM      4  C   UNL     1      -0.387  12.199  18.370  0.00  0.00    +0.000 C 
ATOM      5  C   UNL     1      -1.640  12.124  17.462  0.00  0.00    +0.000 C 
ATOM      6  N   UNL     1      -2.686  11.310  18.107  0.00  0.00    +0.000 N 
ATOM      7  C   UNL     1      -2.257   9.966  18.531  0.00  0.00    +0.000 C 
ATOM      8  C   UNL     1      -1.037  10.089  19.458  0.00  0.00    +0.000 C 
ENDROOT
BRANCH   1  11
ATOM      9  C   UNL     1       1.031   8.453  21.384  0.00  0.00    +0.000 C 
ATOM     10  C   UNL     1       1.637   8.227  20.046  0.00  0.00    +0.000 A 
ATOM     11  C   UNL     1       1.734   9.121  18.978  0.00  0.00    +0.000 A 
ATOM     12  O   UNL     1       2.367   8.507  17.923  0.00  0.00    +0.000 OA
ATOM     13  C   UNL     1       2.625   7.244  18.300  0.00  0.00    +0.000 A 
ATOM     14  C   UNL     1       2.250   7.017  19.599  0.00  0.00    +0.000 A 
ATOM     15  C   UNL     1       2.504   5.723  20.207  0.00  0.00    +0.000 C 
ATOM     16  O   UNL     1       2.139   5.443  21.347  0.00  0.00    +0.000 OA
ATOM     17  C   UNL     1       3.340   4.749  19.362  0.00  0.00    +0.000 C 
ATOM     18  C   UNL     1       3.062   4.856  17.830  0.00  0.00    +0.000 C 
ATOM     19  C   UNL     1       4.043   3.961  17.052  0.00  0.00    +0.000 C 
ATOM     20  C   UNL     1       1.629   4.361  17.533  0.00  0.00    +0.000 C 
ATOM     21  C   UNL     1       3.258   6.319  17.341  0.00  0.00    +0.000 C 
ENDBRANCH   1  11
BRANCH   6  22
ATOM     22  C   UNL     1      -4.007  11.705  18.160  0.00  0.00    +0.000 A 
ATOM     23  C   UNL     1      -4.813  11.781  17.014  0.00  0.00    +0.000 A 
ATOM     24  C   UNL     1      -6.138  12.231  17.071  0.00  0.00    +0.000 A 
ATOM     25  C   UNL     1      -6.691  12.621  18.285  0.00  0.00    +0.000 A 
ATOM     26  C   UNL     1      -5.922  12.548  19.440  0.00  0.00    +0.000 A 
ATOM     27  C   UNL     1      -4.601  12.091  19.372  0.00  0.00    +0.000 A 
ENDBRANCH   6  22
TORSDOF 2
ENDMDL
MODEL 2
REMARK VINA RESULT:      -7.2      3.249      8.734
REMARK  Name = 
REMARK  5 active torsions:
REMARK  status: ('A' for Active; 'I' for Inactive)
REMARK    1  A    between atoms: C_1  and  C_2
REMARK    2  A    between atoms: C_3  and  C_4
REMARK    3  A    between atoms: N_9  and  C_10
REMARK    4  A    between atoms: C_24  and  C_25
REMARK    5  A    between atoms: C_24  and  C_26
REMARK                            x       y       z     vdW  Elec       q    Type
REMARK                         _______ _______ _______ _____ _____    ______ ____
ROOT
ATOM      1  C   UNL     1      -0.839  12.071  18.937  0.00  0.00    +0.000 C 
ATOM      2  O   UNL     1      -0.873  12.727  17.896  0.00  0.00    +0.000 OA
ATOM      3  N   UNL     1      -0.205  10.827  18.978  0.00  0.00    +0.000 N 
ATOM      4  C   UNL     1       0.635  10.392  17.856  0.00  0.00    +0.000 C 
ATOM      5  C   UNL     1       1.938   9.716  18.348  0.00  0.00    +0.000 C 
ATOM      6  N   UNL     1       1.626   8.677  19.346  0.00  0.00    +0.000 N 
ATOM      7  C   UNL     1       0.801   9.130  20.480  0.00  0.00    +0.000 C 
ATOM      8  C   UNL     1      -0.496   9.759  19.949  0.00  0.00    +0.000 C 
ENDROOT
BRANCH   1  11
ATOM      9  C   UNL     1       0.591  13.637  21.480  0.00  0.00    +0.000 C 
ATOM     10  C   UNL     1      -0.820  13.210  21.292  0.00  0.00    +0.000 A 
ATOM     11  C   UNL     1      -1.394  12.585  20.184  0.00  0.00    +0.000 A 
ATOM     12  O   UNL     1      -2.730  12.365  20.424  0.00  0.00    +0.000 OA
ATOM     13  C   UNL     1      -3.002  12.875  21.636  0.00  0.00    +0.000 A 
ATOM     14  C   UNL     1      -1.875  13.365  22.243  0.00  0.00    +0.000 A 
ATOM     15  C   UNL     1      -1.956  13.905  23.588  0.00  0.00    +0.000 C 
ATOM     16  O   UNL     1      -0.992  14.409  24.160  0.00  0.00    +0.000 OA
ATOM     17  C   UNL     1      -3.312  13.727  24.289  0.00  0.00    +0.000 C 
ATOM     18  C   UNL     1      -4.533  13.836  23.323  0.00  0.00    +0.000 C 
ATOM     19  C   UNL     1      -5.832  13.497  24.075  0.00  0.00    +0.000 C 
ATOM     20  C   UNL     1      -4.649  15.287  22.805  0.00  0.00    +0.000 C 
ATOM     21  C   UNL     1      -4.387  12.833  22.144  0.00  0.00    +0.000 C 
ENDBRANCH   1  11
BRANCH   6  22
ATOM     22  C   UNL     1       2.196   7.421  19.315  0.00  0.00    +0.000 A 
ATOM     23  C   UNL     1       3.004   6.992  18.252  0.00  0.00    +0.000 A 
ATOM     24  C   UNL     1       3.537   5.698  18.205  0.00  0.00    +0.000 A 
ATOM     25  C   UNL     1       3.270   4.795  19.228  0.00  0.00    +0.000 A 
ATOM     26  C   UNL     1       2.482   5.194  20.301  0.00  0.00    +0.000 A 
ATOM     27  C   UNL     1       1.959   6.491  20.339  0.00  0.00    +0.000 A 
ENDBRANCH   6  22
TORSDOF 2
ENDMDL
MODEL 3
REMARK VINA RESULT:      -7.2      3.426      8.874
REMARK  Name = 
REMARK  5 active torsions:
REMARK  status: ('A' for Active; 'I' for Inactive)
REMARK    1  A    between atoms: C_1  and  C_2
REMARK    2  A    between atoms: C_3  and  C_4
REMARK    3  A    between atoms: N_9  and  C_10
REMARK    4  A    between atoms: C_24  and  C_25
REMARK    5  A    between atoms: C_24  and  C_26
REMARK                            x       y       z     vdW  Elec       q    Type
REMARK                         _______ _______ _______ _____ _____    ______ ____
ROOT
ATOM      1  C   UNL     1      -1.356  13.164  19.781  0.00  0.00    +0.000 C 
ATOM      2  O   UNL     1      -1.079  14.186  19.152  0.00  0.00    +0.000 OA
ATOM      3  N   UNL     1      -0.665  11.973  19.548  0.00  0.00    +0.000 N 
ATOM      4  C   UNL     1       0.555  11.976  18.734  0.00  0.00    +0.000 C 
ATOM      5  C   UNL     1       1.655  11.078  19.351  0.00  0.00    +0.000 C 
ATOM      6  N   UNL     1       1.106   9.746  19.664  0.00  0.00    +0.000 N 
ATOM      7  C   UNL     1      -0.106   9.753  20.501  0.00  0.00    +0.000 C 
ATOM      8  C   UNL     1      -1.182  10.624  19.835  0.00  0.00    +0.000 C 
ENDROOT
BRANCH   1  11
ATOM      9  C   UNL     1      -1.111  13.738  23.032  0.00  0.00    +0.000 C 
ATOM     10  C   UNL     1      -2.293  13.358  22.215  0.00  0.00    +0.000 A 
ATOM     11  C   UNL     1      -2.364  13.164  20.835  0.00  0.00    +0.000 A 
ATOM     12  O   UNL     1      -3.650  12.823  20.486  0.00  0.00    +0.000 OA
ATOM     13  C   UNL     1      -4.381  12.842  21.612  0.00  0.00    +0.000 A 
ATOM     14  C   UNL     1      -3.610  13.115  22.712  0.00  0.00    +0.000 A 
ATOM     15  C   UNL     1      -4.213  13.120  24.033  0.00  0.00    +0.000 C 
ATOM     16  O   UNL     1      -3.584  13.413  25.048  0.00  0.00    +0.000 OA
ATOM     17  C   UNL     1      -5.674  12.648  24.093  0.00  0.00    +0.000 C 
ATOM     18  C   UNL     1      -6.514  13.060  22.844  0.00  0.00    +0.000 C 
ATOM     19  C   UNL     1      -7.913  12.421  22.915  0.00  0.00    +0.000 C 
ATOM     20  C   UNL     1      -6.693  14.594  22.829  0.00  0.00    +0.000 C 
ATOM     21  C   UNL     1      -5.829  12.566  21.538  0.00  0.00    +0.000 C 
ENDBRANCH   1  11
BRANCH   6  22
ATOM     22  C   UNL     1       1.765   8.577  19.343  0.00  0.00    +0.000 A 
ATOM     23  C   UNL     1       2.430   8.403  18.121  0.00  0.00    +0.000 A 
ATOM     24  C   UNL     1       3.052   7.194  17.784  0.00  0.00    +0.000 A 
ATOM     25  C   UNL     1       3.021   6.122  18.669  0.00  0.00    +0.000 A 
ATOM     26  C   UNL     1       2.379   6.267  19.893  0.00  0.00    +0.000 A 
ATOM     27  C   UNL     1       1.765   7.481  20.220  0.00  0.00    +0.000 A 
ENDBRANCH   6  22
TORSDOF 2
ENDMDL
MODEL 4
REMARK VINA RESULT:      -7.1      6.154      8.138
REMARK  Name = 
REMARK  5 active torsions:
REMARK  status: ('A' for Active; 'I' for Inactive)
REMARK    1  A    between atoms: C_1  and  C_2
REMARK    2  A    between atoms: C_3  and  C_4
REMARK    3  A    between atoms: N_9  and  C_10
REMARK    4  A    between atoms: C_24  and  C_25
REMARK    5  A    between atoms: C_24  and  C_26
REMARK                            x       y       z     vdW  Elec       q    Type
REMARK                         _______ _______ _______ _____ _____    ______ ____
ROOT
ATOM      1  C   UNL     1       3.770  15.494  17.957  0.00  0.00    +0.000 C 
ATOM      2  O   UNL     1       3.328  16.104  16.983  0.00  0.00    +0.000 OA
ATOM      3  N   UNL     1       2.905  14.904  18.881  0.00  0.00    +0.000 N 
ATOM      4  C   UNL     1       1.473  14.792  18.584  0.00  0.00    +0.000 C 
ATOM      5  C   UNL     1       0.910  13.410  19.000  0.00  0.00    +0.000 C 
ATOM      6  N   UNL     1       1.293  13.104  20.390  0.00  0.00    +0.000 N 
ATOM      7  C   UNL     1       2.737  13.197  20.673  0.00  0.00    +0.000 C 
ATOM      8  C   UNL     1       3.245  14.593  20.280  0.00  0.00    +0.000 C 
ENDROOT
BRANCH   1  11
ATOM      9  C   UNL     1       6.050  17.413  19.399  0.00  0.00    +0.000 C 
ATOM     10  C   UNL     1       6.198  16.101  18.717  0.00  0.00    +0.000 A 
ATOM     11  C   UNL     1       5.201  15.301  18.155  0.00  0.00    +0.000 A 
ATOM     12  O   UNL     1       5.770  14.166  17.627  0.00  0.00    +0.000 OA
ATOM     13  C   UNL     1       7.086  14.227  17.886  0.00  0.00    +0.000 A 
ATOM     14  C   UNL     1       7.425  15.401  18.507  0.00  0.00    +0.000 A 
ATOM     15  C   UNL     1       8.816  15.678  18.815  0.00  0.00    +0.000 C 
ATOM     16  O   UNL     1       9.173  16.687  19.421  0.00  0.00    +0.000 OA
ATOM     17  C   UNL     1       9.830  14.668  18.256  0.00  0.00    +0.000 C 
ATOM     18  C   UNL     1       9.305  13.198  18.247  0.00  0.00    +0.000 C 
ATOM     19  C   UNL     1      10.316  12.281  17.536  0.00  0.00    +0.000 C 
ATOM     20  C   UNL     1       9.151  12.699  19.701  0.00  0.00    +0.000 C 
ATOM     21  C   UNL     1       7.955  13.106  17.481  0.00  0.00    +0.000 C 
ENDBRANCH   1  11
BRANCH   6  22
ATOM     22  C   UNL     1       0.399  12.606  21.315  0.00  0.00    +0.000 A 
ATOM     23  C   UNL     1       0.201  11.229  21.497  0.00  0.00    +0.000 A 
ATOM     24  C   UNL     1      -0.745  10.733  22.403  0.00  0.00    +0.000 A 
ATOM     25  C   UNL     1      -1.524  11.610  23.150  0.00  0.00    +0.000 A 
ATOM     26  C   UNL     1      -1.344  12.980  22.999  0.00  0.00    +0.000 A 
ATOM     27  C   UNL     1      -0.391  13.464  22.095  0.00  0.00    +0.000 A 
ENDBRANCH   6  22
TORSDOF 2
ENDMDL
MODEL 5
REMARK VINA RESULT:      -7.1      2.656      4.004
REMARK  Name = 
REMARK  5 active torsions:
REMARK  status: ('A' for Active; 'I' for Inactive)
REMARK    1  A    between atoms: C_1  and  C_2
REMARK    2  A    between atoms: C_3  and  C_4
REMARK    3  A    between atoms: N_9  and  C_10
REMARK    4  A    between atoms: C_24  and  C_25
REMARK    5  A    between atoms: C_24  and  C_26
REMARK                            x       y       z     vdW  Elec       q    Type
REMARK                         _______ _______ _______ _____ _____    ______ ____
ROOT
ATOM      1  C   UNL     1       2.732   8.079  17.879  0.00  0.00    +0.000 C 
ATOM      2  O   UNL     1       3.219   8.539  16.846  0.00  0.00    +0.000 OA
ATOM      3  N   UNL     1       1.960   8.880  18.723  0.00  0.00    +0.000 N 
ATOM      4  C   UNL     1       1.516  10.205  18.277  0.00  0.00    +0.000 C 
ATOM      5  C   UNL     1       0.044  10.476  18.672  0.00  0.00    +0.000 C 
ATOM      6  N   UNL     1      -0.159  10.189  20.103  0.00  0.00    +0.000 N 
ATOM      7  C   UNL     1       0.269   8.847  20.536  0.00  0.00    +0.000 C 
ATOM      8  C   UNL     1       1.743   8.635  20.159  0.00  0.00    +0.000 C 
ENDROOT
BRANCH   1  11
ATOM      9  C   UNL     1       5.388   6.328  18.799  0.00  0.00    +0.000 C 
ATOM     10  C   UNL     1       3.983   5.893  18.585  0.00  0.00    +0.000 A 
ATOM     11  C   UNL     1       2.880   6.672  18.235  0.00  0.00    +0.000 A 
ATOM     12  O   UNL     1       1.765   5.872  18.142  0.00  0.00    +0.000 OA
ATOM     13  C   UNL     1       2.147   4.626  18.465  0.00  0.00    +0.000 A 
ATOM     14  C   UNL     1       3.496   4.555  18.702  0.00  0.00    +0.000 A 
ATOM     15  C   UNL     1       4.108   3.275  19.009  0.00  0.00    +0.000 C 
ATOM     16  O   UNL     1       5.300   3.160  19.285  0.00  0.00    +0.000 OA
ATOM     17  C   UNL     1       3.184   2.054  18.880  0.00  0.00    +0.000 C 
ATOM     18  C   UNL     1       1.709   2.341  19.301  0.00  0.00    +0.000 C 
ATOM     19  C   UNL     1       0.826   1.116  18.999  0.00  0.00    +0.000 C 
ATOM     20  C   UNL     1       1.652   2.603  20.822  0.00  0.00    +0.000 C 
ATOM     21  C   UNL     1       1.139   3.549  18.506  0.00  0.00    +0.000 C 
ENDBRANCH   1  11
BRANCH   6  22
ATOM     22  C   UNL     1      -0.849  11.040  20.941  0.00  0.00    +0.000 A 
ATOM     23  C   UNL     1      -0.820  10.903  22.337  0.00  0.00    +0.000 A 
ATOM     24  C   UNL     1      -1.564  11.741  23.177  0.00  0.00    +0.000 A 
ATOM     25  C   UNL     1      -2.364  12.741  22.636  0.00  0.00    +0.000 A 
ATOM     26  C   UNL     1      -2.406  12.909  21.257  0.00  0.00    +0.000 A 
ATOM     27  C   UNL     1      -1.654  12.070  20.428  0.00  0.00    +0.000 A 
ENDBRANCH   6  22
TORSDOF 2
ENDMDL
MODEL 6
REMARK VINA RESULT:      -7.1      6.367      8.424
REMARK  Name = 
REMARK  5 active torsions:
REMARK  status: ('A' for Active; 'I' for Inactive)
REMARK    1  A    between atoms: C_1  and  C_2
REMARK    2  A    between atoms: C_3  and  C_4
REMARK    3  A    between atoms: N_9  and  C_10
REMARK    4  A    between atoms: C_24  and  C_25
REMARK    5  A    between atoms: C_24  and  C_26
REMARK                            x       y       z     vdW  Elec       q    Type
REMARK                         _______ _______ _______ _____ _____    ______ ____
ROOT
ATOM      1  C   UNL     1       3.730  16.237  18.444  0.00  0.00    +0.000 C 
ATOM      2  O   UNL     1       3.297  17.038  17.615  0.00  0.00    +0.000 OA
ATOM      3  N   UNL     1       2.859  15.517  19.264  0.00  0.00    +0.000 N 
ATOM      4  C   UNL     1       1.417  15.521  18.991  0.00  0.00    +0.000 C 
ATOM      5  C   UNL     1       0.802  14.109  19.155  0.00  0.00    +0.000 C 
ATOM      6  N   UNL     1       1.199  13.531  20.451  0.00  0.00    +0.000 N 
ATOM      7  C   UNL     1       2.650  13.511  20.707  0.00  0.00    +0.000 C 
ATOM      8  C   UNL     1       3.212  14.934  20.570  0.00  0.00    +0.000 C 
ENDROOT
BRANCH   1  11
ATOM      9  C   UNL     1       6.163  17.891  19.962  0.00  0.00    +0.000 C 
ATOM     10  C   UNL     1       6.214  16.644  19.154  0.00  0.00    +0.000 A 
ATOM     11  C   UNL     1       5.156  15.954  18.562  0.00  0.00    +0.000 A 
ATOM     12  O   UNL     1       5.641  14.847  17.906  0.00  0.00    +0.000 OA
ATOM     13  C   UNL     1       6.967  14.816  18.114  0.00  0.00    +0.000 A 
ATOM     14  C   UNL     1       7.393  15.906  18.828  0.00  0.00    +0.000 A 
ATOM     15  C   UNL     1       8.808  16.081  19.102  0.00  0.00    +0.000 C 
ATOM     16  O   UNL     1       9.242  17.008  19.784  0.00  0.00    +0.000 OA
ATOM     17  C   UNL     1       9.743  15.079  18.408  0.00  0.00    +0.000 C 
ATOM     18  C   UNL     1       9.138  13.646  18.283  0.00  0.00    +0.000 C 
ATOM     19  C   UNL     1      10.071  12.751  17.447  0.00  0.00    +0.000 C 
ATOM     20  C   UNL     1       9.012  13.017  19.688  0.00  0.00    +0.000 C 
ATOM     21  C   UNL     1       7.758  13.696  17.569  0.00  0.00    +0.000 C 
ENDBRANCH   1  11
BRANCH   6  22
ATOM     22  C   UNL     1       0.302  12.902  21.291  0.00  0.00    +0.000 A 
ATOM     23  C   UNL     1      -0.477  13.608  22.218  0.00  0.00    +0.000 A 
ATOM     24  C   UNL     1      -1.347  12.956  23.100  0.00  0.00    +0.000 A 
ATOM     25  C   UNL     1      -1.456  11.570  23.077  0.00  0.00    +0.000 A 
ATOM     26  C   UNL     1      -0.704  10.842  22.163  0.00  0.00    +0.000 A 
ATOM     27  C   UNL     1       0.158  11.505  21.282  0.00  0.00    +0.000 A 
ENDBRANCH   6  22
TORSDOF 2
ENDMDL
MODEL 7
REMARK VINA RESULT:      -7.0      3.518      8.806
REMARK  Name = 
REMARK  5 active torsions:
REMARK  status: ('A' for Active; 'I' for Inactive)
REMARK    1  A    between atoms: C_1  and  C_2
REMARK    2  A    between atoms: C_3  and  C_4
REMARK    3  A    between atoms: N_9  and  C_10
REMARK    4  A    between atoms: C_24  and  C_25
REMARK    5  A    between atoms: C_24  and  C_26
REMARK                            x       y       z     vdW  Elec       q    Type
REMARK                         _______ _______ _______ _____ _____    ______ ____
ROOT
ATOM      1  C   UNL     1      -1.017  11.790  18.914  0.00  0.00    +0.000 C 
ATOM      2  O   UNL     1      -1.476  12.152  17.831  0.00  0.00    +0.000 OA
ATOM      3  N   UNL     1      -0.347  10.571  19.035  0.00  0.00    +0.000 N 
ATOM      4  C   UNL     1       0.031   9.816  17.835  0.00  0.00    +0.000 C 
ATOM      5  C   UNL     1       1.459   9.229  17.957  0.00  0.00    +0.000 C 
ATOM      6  N   UNL     1       1.602   8.504  19.233  0.00  0.00    +0.000 N 
ATOM      7  C   UNL     1       1.241   9.278  20.434  0.00  0.00    +0.000 C 
ATOM      8  C   UNL     1      -0.193   9.809  20.286  0.00  0.00    +0.000 C 
ENDROOT
BRANCH   1  11
ATOM      9  C   UNL     1       1.202  13.842  20.267  0.00  0.00    +0.000 C 
ATOM     10  C   UNL     1      -0.167  13.481  20.720  0.00  0.00    +0.000 A 
ATOM     11  C   UNL     1      -1.090  12.639  20.098  0.00  0.00    +0.000 A 
ATOM     12  O   UNL     1      -2.238  12.581  20.853  0.00  0.00    +0.000 OA
ATOM     13  C   UNL     1      -2.059  13.397  21.905  0.00  0.00    +0.000 A 
ATOM     14  C   UNL     1      -0.802  13.943  21.913  0.00  0.00    +0.000 A 
ATOM     15  C   UNL     1      -0.399  14.809  23.007  0.00  0.00    +0.000 C 
ATOM     16  O   UNL     1       0.693  15.372  23.039  0.00  0.00    +0.000 OA
ATOM     17  C   UNL     1      -1.397  14.909  24.171  0.00  0.00    +0.000 C 
ATOM     18  C   UNL     1      -2.890  14.856  23.719  0.00  0.00    +0.000 C 
ATOM     19  C   UNL     1      -3.812  14.809  24.951  0.00  0.00    +0.000 C 
ATOM     20  C   UNL     1      -3.230  16.134  22.921  0.00  0.00    +0.000 C 
ATOM     21  C   UNL     1      -3.159  13.581  22.871  0.00  0.00    +0.000 C 
ENDBRANCH   1  11
BRANCH   6  22
ATOM     22  C   UNL     1       2.187   7.257  19.317  0.00  0.00    +0.000 A 
ATOM     23  C   UNL     1       3.075   6.779  18.342  0.00  0.00    +0.000 A 
ATOM     24  C   UNL     1       3.624   5.493  18.410  0.00  0.00    +0.000 A 
ATOM     25  C   UNL     1       3.293   4.647  19.462  0.00  0.00    +0.000 A 
ATOM     26  C   UNL     1       2.423   5.095  20.450  0.00  0.00    +0.000 A 
ATOM     27  C   UNL     1       1.885   6.384  20.374  0.00  0.00    +0.000 A 
ENDBRANCH   6  22
TORSDOF 2
ENDMDL
MODEL 8
REMARK VINA RESULT:      -6.9      1.399      2.534
REMARK  Name = 
REMARK  5 active torsions:
REMARK  status: ('A' for Active; 'I' for Inactive)
REMARK    1  A    between atoms: C_1  and  C_2
REMARK    2  A    between atoms: C_3  and  C_4
REMARK    3  A    between atoms: N_9  and  C_10
REMARK    4  A    between atoms: C_24  and  C_25
REMARK    5  A    between atoms: C_24  and  C_26
REMARK                            x       y       z     vdW  Elec       q    Type
REMARK                         _______ _______ _______ _____ _____    ______ ____
ROOT
ATOM      1  C   UNL     1       0.851   9.550  21.016  0.00  0.00    +0.000 C 
ATOM      2  O   UNL     1       1.293   9.953  22.092  0.00  0.00    +0.000 OA
ATOM      3  N   UNL     1      -0.360  10.033  20.515  0.00  0.00    +0.000 N 
ATOM      4  C   UNL     1      -1.002  11.197  21.136  0.00  0.00    +0.000 C 
ATOM      5  C   UNL     1      -1.566  12.172  20.073  0.00  0.00    +0.000 C 
ATOM      6  N   UNL     1      -2.393  11.437  19.099  0.00  0.00    +0.000 N 
ATOM      7  C   UNL     1      -1.731  10.283  18.464  0.00  0.00    +0.000 C 
ATOM      8  C   UNL     1      -1.220   9.326  19.551  0.00  0.00    +0.000 C 
ENDROOT
BRANCH   1  11
ATOM      9  C   UNL     1       2.193   9.879  18.007  0.00  0.00    +0.000 C 
ATOM     10  C   UNL     1       2.137   8.695  18.904  0.00  0.00    +0.000 A 
ATOM     11  C   UNL     1       1.595   8.608  20.187  0.00  0.00    +0.000 A 
ATOM     12  O   UNL     1       1.755   7.328  20.665  0.00  0.00    +0.000 OA
ATOM     13  C   UNL     1       2.418   6.636  19.724  0.00  0.00    +0.000 A 
ATOM     14  C   UNL     1       2.643   7.393  18.604  0.00  0.00    +0.000 A 
ATOM     15  C   UNL     1       3.295   6.800  17.452  0.00  0.00    +0.000 C 
ATOM     16  O   UNL     1       3.574   7.444  16.442  0.00  0.00    +0.000 OA
ATOM     17  C   UNL     1       3.539   5.285  17.539  0.00  0.00    +0.000 C 
ATOM     18  C   UNL     1       3.884   4.791  18.978  0.00  0.00    +0.000 C 
ATOM     19  C   UNL     1       3.962   3.254  19.004  0.00  0.00    +0.000 C 
ATOM     20  C   UNL     1       5.266   5.344  19.393  0.00  0.00    +0.000 C 
ATOM     21  C   UNL     1       2.784   5.231  19.985  0.00  0.00    +0.000 C 
ENDBRANCH   1  11
BRANCH   6  22
ATOM     22  C   UNL     1      -3.630  11.888  18.684  0.00  0.00    +0.000 A 
ATOM     23  C   UNL     1      -4.511  12.554  19.547  0.00  0.00    +0.000 A 
ATOM     24  C   UNL     1      -5.784  12.963  19.131  0.00  0.00    +0.000 A 
ATOM     25  C   UNL     1      -6.210  12.709  17.832  0.00  0.00    +0.000 A 
ATOM     26  C   UNL     1      -5.355  12.058  16.950  0.00  0.00    +0.000 A 
ATOM     27  C   UNL     1      -4.083  11.660  17.375  0.00  0.00    +0.000 A 
ENDBRANCH   6  22
TORSDOF 2
ENDMDL
MODEL 9
REMARK VINA RESULT:      -6.9      3.219      8.941
REMARK  Name = 
REMARK  5 active torsions:
REMARK  status: ('A' for Active; 'I' for Inactive)
REMARK    1  A    between atoms: C_1  and  C_2
REMARK    2  A    between atoms: C_3  and  C_4
REMARK    3  A    between atoms: N_9  and  C_10
REMARK    4  A    between atoms: C_24  and  C_25
REMARK    5  A    between atoms: C_24  and  C_26
REMARK                            x       y       z     vdW  Elec       q    Type
REMARK                         _______ _______ _______ _____ _____    ______ ____
ROOT
ATOM      1  C   UNL     1      -1.318  12.801  21.847  0.00  0.00    +0.000 C 
ATOM      2  O   UNL     1      -0.770  13.571  22.636  0.00  0.00    +0.000 OA
ATOM      3  N   UNL     1      -0.576  11.842  21.153  0.00  0.00    +0.000 N 
ATOM      4  C   UNL     1       0.816  11.575  21.528  0.00  0.00    +0.000 C 
ATOM      5  C   UNL     1       1.127  10.058  21.525  0.00  0.00    +0.000 C 
ATOM      6  N   UNL     1       0.686   9.452  20.256  0.00  0.00    +0.000 N 
ATOM      7  C   UNL     1      -0.721   9.707  19.899  0.00  0.00    +0.000 C 
ATOM      8  C   UNL     1      -0.976  11.222  19.878  0.00  0.00    +0.000 C 
ENDROOT
BRANCH   1  11
ATOM      9  C   UNL     1      -3.812  12.413  23.989  0.00  0.00    +0.000 C 
ATOM     10  C   UNL     1      -3.839  12.606  22.516  0.00  0.00    +0.000 A 
ATOM     11  C   UNL     1      -2.763  12.807  21.650  0.00  0.00    +0.000 A 
ATOM     12  O   UNL     1      -3.229  12.943  20.364  0.00  0.00    +0.000 OA
ATOM     13  C   UNL     1      -4.569  12.871  20.421  0.00  0.00    +0.000 A 
ATOM     14  C   UNL     1      -5.008  12.620  21.695  0.00  0.00    +0.000 A 
ATOM     15  C   UNL     1      -6.427  12.449  21.948  0.00  0.00    +0.000 C 
ATOM     16  O   UNL     1      -6.884  12.279  23.077  0.00  0.00    +0.000 OA
ATOM     17  C   UNL     1      -7.320  12.406  20.698  0.00  0.00    +0.000 C 
ATOM     18  C   UNL     1      -6.834  13.348  19.553  0.00  0.00    +0.000 C 
ATOM     19  C   UNL     1      -7.691  13.131  18.292  0.00  0.00    +0.000 C 
ATOM     20  C   UNL     1      -7.001  14.819  19.992  0.00  0.00    +0.000 C 
ATOM     21  C   UNL     1      -5.355  13.041  19.184  0.00  0.00    +0.000 C 
ENDBRANCH   1  11
BRANCH   6  22
ATOM     22  C   UNL     1       1.472   8.575  19.538  0.00  0.00    +0.000 A 
ATOM     23  C   UNL     1       1.956   7.379  20.089  0.00  0.00    +0.000 A 
ATOM     24  C   UNL     1       2.795   6.520  19.369  0.00  0.00    +0.000 A 
ATOM     25  C   UNL     1       3.176   6.841  18.072  0.00  0.00    +0.000 A 
ATOM     26  C   UNL     1       2.706   8.014  17.494  0.00  0.00    +0.000 A 
ATOM     27  C   UNL     1       1.863   8.862  18.220  0.00  0.00    +0.000 A 
ENDBRANCH   6  22
TORSDOF 2
ENDMDL
