MODEL 1
REMARK VINA RESULT:      -9.1      0.000      0.000
REMARK  Name = 
REMARK  6 active torsions:
REMARK  status: ('A' for Active; 'I' for Inactive)
REMARK    1  A    between atoms: C_2  and  C_22
REMARK    2  A    between atoms: N_3  and  O_4
REMARK    3  A    between atoms: O_4  and  C_5
REMARK    4  A    between atoms: C_5  and  C_7
REMARK    5  A    between atoms: N_10  and  C_11
REMARK    6  A    between atoms: C_17  and  C_18
REMARK                            x       y       z     vdW  Elec       q    Type
REMARK                         _______ _______ _______ _____ _____    ______ ____
ROOT
ATOM      1  C   UNL     1       5.941   6.609  16.544  0.00  0.00    +0.000 C 
ATOM      2  O   UNL     1       5.285   6.960  15.572  0.00  0.00    +0.000 OA
ENDROOT
BRANCH   1   3
ATOM      3  C   UNL     1       5.445   5.700  17.554  0.00  0.00    +0.000 A 
ATOM      4  C   UNL     1       6.091   4.564  18.068  0.00  0.00    +0.000 A 
ATOM      5  N   UNL     1       5.345   3.914  18.954  0.00  0.00    +0.000 NA
ATOM      6  N   UNL     1       4.140   4.547  18.935  0.00  0.00    +0.000 N 
ATOM      7  C   UNL     1       4.216   5.723  18.208  0.00  0.00    +0.000 A 
BRANCH   6   8
ATOM      8  C   UNL     1       3.049   3.938  19.615  0.00  0.00    +0.000 A 
ATOM      9  C   UNL     1       3.088   3.874  21.017  0.00  0.00    +0.000 A 
ATOM     10  C   UNL     1       2.018   3.318  21.726  0.00  0.00    +0.000 A 
ATOM     11  C   UNL     1       0.921   2.805  21.044  0.00  0.00    +0.000 A 
ATOM     12  C   UNL     1       0.904   2.803  19.654  0.00  0.00    +0.000 A 
ATOM     13  C   UNL     1       1.967   3.366  18.940  0.00  0.00    +0.000 A 
ENDBRANCH   6   8
BRANCH   7  14
ATOM     14  C   UNL     1       3.176   6.766  18.276  0.00  0.00    +0.000 C 
ATOM     15  F   UNL     1       2.049   6.436  17.604  0.00  0.00    +0.000 F 
ATOM     16  F   UNL     1       2.799   7.039  19.547  0.00  0.00    +0.000 F 
ATOM     17  F   UNL     1       3.601   7.929  17.720  0.00  0.00    +0.000 F 
ENDBRANCH   7  14
ENDBRANCH   1   3
BRANCH   1  18
ATOM     18  O   UNL     1       7.287   6.864  16.701  0.00  0.00    +0.000 OA
BRANCH  18  21
ATOM     19  N   UNL     1       8.565   7.450  19.052  0.00  0.00    +0.000 NA
ATOM     20  C   UNL     1       8.242   8.389  18.221  0.00  0.00    +0.000 C 
ATOM     21  N   UNL     1       7.489   8.189  17.093  0.00  0.00    +0.000 N 
ATOM     22  H   UNL     1       8.144   6.577  18.718  0.00  0.00    +0.000 HD
ATOM     23  H   UNL     1       7.693   8.805  16.309  0.00  0.00    +0.000 HD
BRANCH  20  24
ATOM     24  C   UNL     1       8.687   9.788  18.493  0.00  0.00    +0.000 A 
ATOM     25  C   UNL     1       8.372  10.813  17.593  0.00  0.00    +0.000 A 
ATOM     26  C   UNL     1       8.794  12.119  17.859  0.00  0.00    +0.000 A 
ATOM     27  C   UNL     1       9.529  12.397  19.015  0.00  0.00    +0.000 A 
ATOM     28 CL   UNL     1      10.063  14.001  19.327  0.00  0.00    +0.000 Cl
ATOM     29  C   UNL     1       9.851  11.377  19.913  0.00  0.00    +0.000 A 
ATOM     30  C   UNL     1       9.427  10.074  19.652  0.00  0.00    +0.000 A 
ENDBRANCH  20  24
ENDBRANCH  18  21
ENDBRANCH   1  18
TORSDOF 6
ENDMDL
MODEL 2
REMARK VINA RESULT:      -8.9      1.742      2.266
REMARK  Name = 
REMARK  6 active torsions:
REMARK  status: ('A' for Active; 'I' for Inactive)
REMARK    1  A    between atoms: C_2  and  C_22
REMARK    2  A    between atoms: N_3  and  O_4
REMARK    3  A    between atoms: O_4  and  C_5
REMARK    4  A    between atoms: C_5  and  C_7
REMARK    5  A    between atoms: N_10  and  C_11
REMARK    6  A    between atoms: C_17  and  C_18
REMARK                            x       y       z     vdW  Elec       q    Type
REMARK                         _______ _______ _______ _____ _____    ______ ____
ROOT
ATOM      1  C   UNL     1       7.643   7.239  17.722  0.00  0.00    +0.000 C 
ATOM      2  O   UNL     1       7.823   7.271  16.511  0.00  0.00    +0.000 OA
ENDROOT
BRANCH   1   3
ATOM      3  C   UNL     1       6.798   6.264  18.376  0.00  0.00    +0.000 A 
ATOM      4  C   UNL     1       7.145   5.411  19.436  0.00  0.00    +0.000 A 
ATOM      5  N   UNL     1       6.152   4.598  19.779  0.00  0.00    +0.000 NA
ATOM      6  N   UNL     1       5.178   4.820  18.855  0.00  0.00    +0.000 N 
ATOM      7  C   UNL     1       5.479   5.928  18.082  0.00  0.00    +0.000 A 
BRANCH   6   8
ATOM      8  C   UNL     1       4.069   3.929  18.820  0.00  0.00    +0.000 A 
ATOM      9  C   UNL     1       3.138   3.979  19.870  0.00  0.00    +0.000 A 
ATOM     10  C   UNL     1       2.014   3.148  19.853  0.00  0.00    +0.000 A 
ATOM     11  C   UNL     1       1.825   2.250  18.807  0.00  0.00    +0.000 A 
ATOM     12  C   UNL     1       2.776   2.147  17.799  0.00  0.00    +0.000 A 
ATOM     13  C   UNL     1       3.898   2.982  17.805  0.00  0.00    +0.000 A 
ENDBRANCH   6   8
BRANCH   7  14
ATOM     14  C   UNL     1       4.480   6.594  17.227  0.00  0.00    +0.000 C 
ATOM     15  F   UNL     1       3.230   6.099  17.387  0.00  0.00    +0.000 F 
ATOM     16  F   UNL     1       4.398   7.925  17.464  0.00  0.00    +0.000 F 
ATOM     17  F   UNL     1       4.765   6.435  15.910  0.00  0.00    +0.000 F 
ENDBRANCH   7  14
ENDBRANCH   1   3
BRANCH   1  18
ATOM     18  O   UNL     1       8.366   7.981  18.630  0.00  0.00    +0.000 OA
BRANCH  18  21
ATOM     19  N   UNL     1       9.206   9.999  20.282  0.00  0.00    +0.000 NA
ATOM     20  C   UNL     1       9.145  10.173  19.000  0.00  0.00    +0.000 C 
ATOM     21  N   UNL     1       8.614   9.260  18.127  0.00  0.00    +0.000 N 
ATOM     22  H   UNL     1       8.777   9.093  20.496  0.00  0.00    +0.000 HD
ATOM     23  H   UNL     1       9.027   9.244  17.196  0.00  0.00    +0.000 HD
BRANCH  20  24
ATOM     24  C   UNL     1       9.660  11.446  18.412  0.00  0.00    +0.000 A 
ATOM     25  C   UNL     1      10.979  11.522  17.950  0.00  0.00    +0.000 A 
ATOM     26  C   UNL     1      11.449  12.720  17.401  0.00  0.00    +0.000 A 
ATOM     27  C   UNL     1      10.608  13.832  17.320  0.00  0.00    +0.000 A 
ATOM     28 CL   UNL     1      11.198  15.308  16.663  0.00  0.00    +0.000 Cl
ATOM     29  C   UNL     1       9.293  13.763  17.786  0.00  0.00    +0.000 A 
ATOM     30  C   UNL     1       8.820  12.568  18.330  0.00  0.00    +0.000 A 
ENDBRANCH  20  24
ENDBRANCH  18  21
ENDBRANCH   1  18
TORSDOF 6
ENDMDL
MODEL 3
REMARK VINA RESULT:      -8.9      1.700      2.029
REMARK  Name = 
REMARK  6 active torsions:
REMARK  status: ('A' for Active; 'I' for Inactive)
REMARK    1  A    between atoms: C_2  and  C_22
REMARK    2  A    between atoms: N_3  and  O_4
REMARK    3  A    between atoms: O_4  and  C_5
REMARK    4  A    between atoms: C_5  and  C_7
REMARK    5  A    between atoms: N_10  and  C_11
REMARK    6  A    between atoms: C_17  and  C_18
REMARK                            x       y       z     vdW  Elec       q    Type
REMARK                         _______ _______ _______ _____ _____    ______ ____
ROOT
ATOM      1  C   UNL     1       5.464   6.779  16.152  0.00  0.00    +0.000 C 
ATOM      2  O   UNL     1       5.335   6.828  14.935  0.00  0.00    +0.000 OA
ENDROOT
BRANCH   1   3
ATOM      3  C   UNL     1       4.376   6.479  17.058  0.00  0.00    +0.000 A 
ATOM      4  C   UNL     1       3.577   7.394  17.762  0.00  0.00    +0.000 A 
ATOM      5  N   UNL     1       2.693   6.794  18.549  0.00  0.00    +0.000 NA
ATOM      6  N   UNL     1       2.990   5.468  18.470  0.00  0.00    +0.000 N 
ATOM      7  C   UNL     1       3.908   5.231  17.461  0.00  0.00    +0.000 A 
BRANCH   6   8
ATOM      8  C   UNL     1       2.358   4.581  19.386  0.00  0.00    +0.000 A 
ATOM      9  C   UNL     1       2.879   4.481  20.686  0.00  0.00    +0.000 A 
ATOM     10  C   UNL     1       2.263   3.651  21.628  0.00  0.00    +0.000 A 
ATOM     11  C   UNL     1       1.145   2.902  21.274  0.00  0.00    +0.000 A 
ATOM     12  C   UNL     1       0.664   2.944  19.970  0.00  0.00    +0.000 A 
ATOM     13  C   UNL     1       1.270   3.780  19.026  0.00  0.00    +0.000 A 
ENDBRANCH   6   8
BRANCH   7  14
ATOM     14  C   UNL     1       4.175   3.881  16.933  0.00  0.00    +0.000 C 
ATOM     15  F   UNL     1       4.631   3.023  17.876  0.00  0.00    +0.000 F 
ATOM     16  F   UNL     1       3.074   3.307  16.393  0.00  0.00    +0.000 F 
ATOM     17  F   UNL     1       5.133   3.903  15.971  0.00  0.00    +0.000 F 
ENDBRANCH   7  14
ENDBRANCH   1   3
BRANCH   1  18
ATOM     18  O   UNL     1       6.680   6.799  16.801  0.00  0.00    +0.000 OA
BRANCH  18  21
ATOM     19  N   UNL     1       8.440   7.261  18.849  0.00  0.00    +0.000 NA
ATOM     20  C   UNL     1       7.985   8.239  18.132  0.00  0.00    +0.000 C 
ATOM     21  N   UNL     1       7.007   8.102  17.182  0.00  0.00    +0.000 N 
ATOM     22  H   UNL     1       7.928   6.413  18.584  0.00  0.00    +0.000 HD
ATOM     23  H   UNL     1       7.065   8.741  16.391  0.00  0.00    +0.000 HD
BRANCH  20  24
ATOM     24  C   UNL     1       8.527   9.614  18.347  0.00  0.00    +0.000 A 
ATOM     25  C   UNL     1       8.148  10.659  17.496  0.00  0.00    +0.000 A 
ATOM     26  C   UNL     1       8.662  11.942  17.708  0.00  0.00    +0.000 A 
ATOM     27  C   UNL     1       9.551  12.177  18.761  0.00  0.00    +0.000 A 
ATOM     28 CL   UNL     1      10.196  13.752  19.004  0.00  0.00    +0.000 Cl
ATOM     29  C   UNL     1       9.937  11.135  19.608  0.00  0.00    +0.000 A 
ATOM     30  C   UNL     1       9.422   9.856  19.401  0.00  0.00    +0.000 A 
ENDBRANCH  20  24
ENDBRANCH  18  21
ENDBRANCH   1  18
TORSDOF 6
ENDMDL
MODEL 4
REMARK VINA RESULT:      -8.8      1.754      2.340
REMARK  Name = 
REMARK  6 active torsions:
REMARK  status: ('A' for Active; 'I' for Inactive)
REMARK    1  A    between atoms: C_2  and  C_22
REMARK    2  A    between atoms: N_3  and  O_4
REMARK    3  A    between atoms: O_4  and  C_5
REMARK    4  A    between atoms: C_5  and  C_7
REMARK    5  A    between atoms: N_10  and  C_11
REMARK    6  A    between atoms: C_17  and  C_18
REMARK                            x       y       z     vdW  Elec       q    Type
REMARK                         _______ _______ _______ _____ _____    ______ ____
ROOT
ATOM      1  C   UNL     1       7.639   7.273  17.718  0.00  0.00    +0.000 C 
ATOM      2  O   UNL     1       7.797   7.314  16.504  0.00  0.00    +0.000 OA
ENDROOT
BRANCH   1   3
ATOM      3  C   UNL     1       6.803   6.297  18.381  0.00  0.00    +0.000 A 
ATOM      4  C   UNL     1       7.163   5.443  19.436  0.00  0.00    +0.000 A 
ATOM      5  N   UNL     1       6.176   4.630  19.790  0.00  0.00    +0.000 NA
ATOM      6  N   UNL     1       5.190   4.852  18.878  0.00  0.00    +0.000 N 
ATOM      7  C   UNL     1       5.481   5.960  18.103  0.00  0.00    +0.000 A 
BRANCH   6   8
ATOM      8  C   UNL     1       4.081   3.960  18.855  0.00  0.00    +0.000 A 
ATOM      9  C   UNL     1       3.991   3.032  17.805  0.00  0.00    +0.000 A 
ATOM     10  C   UNL     1       2.939   2.112  17.767  0.00  0.00    +0.000 A 
ATOM     11  C   UNL     1       1.963   2.127  18.759  0.00  0.00    +0.000 A 
ATOM     12  C   UNL     1       2.008   3.085  19.765  0.00  0.00    +0.000 A 
ATOM     13  C   UNL     1       3.063   4.002  19.813  0.00  0.00    +0.000 A 
ENDBRANCH   6   8
BRANCH   7  14
ATOM     14  C   UNL     1       4.471   6.627  17.260  0.00  0.00    +0.000 C 
ATOM     15  F   UNL     1       3.231   6.103  17.403  0.00  0.00    +0.000 F 
ATOM     16  F   UNL     1       4.361   7.949  17.531  0.00  0.00    +0.000 F 
ATOM     17  F   UNL     1       4.764   6.506  15.941  0.00  0.00    +0.000 F 
ENDBRANCH   7  14
ENDBRANCH   1   3
BRANCH   1  18
ATOM     18  O   UNL     1       8.382   8.007  18.618  0.00  0.00    +0.000 OA
BRANCH  18  21
ATOM     19  N   UNL     1       9.165  10.029  20.292  0.00  0.00    +0.000 NA
ATOM     20  C   UNL     1       9.116  10.211  19.010  0.00  0.00    +0.000 C 
ATOM     21  N   UNL     1       8.612   9.293  18.125  0.00  0.00    +0.000 N 
ATOM     22  H   UNL     1       8.750   9.115  20.495  0.00  0.00    +0.000 HD
ATOM     23  H   UNL     1       9.037   9.291  17.200  0.00  0.00    +0.000 HD
BRANCH  20  24
ATOM     24  C   UNL     1       9.615  11.496  18.436  0.00  0.00    +0.000 A 
ATOM     25  C   UNL     1       8.858  12.666  18.572  0.00  0.00    +0.000 A 
ATOM     26  C   UNL     1       9.336  13.863  18.030  0.00  0.00    +0.000 A 
ATOM     27  C   UNL     1      10.559  13.889  17.354  0.00  0.00    +0.000 A 
ATOM     28 CL   UNL     1      11.131  15.360  16.673  0.00  0.00    +0.000 Cl
ATOM     29  C   UNL     1      11.314  12.723  17.210  0.00  0.00    +0.000 A 
ATOM     30  C   UNL     1      10.842  11.528  17.754  0.00  0.00    +0.000 A 
ENDBRANCH  20  24
ENDBRANCH  18  21
ENDBRANCH   1  18
TORSDOF 6
ENDMDL
MODEL 5
REMARK VINA RESULT:      -8.7      1.697      2.349
REMARK  Name = 
REMARK  6 active torsions:
REMARK  status: ('A' for Active; 'I' for Inactive)
REMARK    1  A    between atoms: C_2  and  C_22
REMARK    2  A    between atoms: N_3  and  O_4
REMARK    3  A    between atoms: O_4  and  C_5
REMARK    4  A    between atoms: C_5  and  C_7
REMARK    5  A    between atoms: N_10  and  C_11
REMARK    6  A    between atoms: C_17  and  C_18
REMARK                            x       y       z     vdW  Elec       q    Type
REMARK                         _______ _______ _______ _____ _____    ______ ____
ROOT
ATOM      1  C   UNL     1       7.575   7.158  17.704  0.00  0.00    +0.000 C 
ATOM      2  O   UNL     1       7.759   7.166  16.493  0.00  0.00    +0.000 OA
ENDROOT
BRANCH   1   3
ATOM      3  C   UNL     1       6.697   6.221  18.370  0.00  0.00    +0.000 A 
ATOM      4  C   UNL     1       7.013   5.372  19.443  0.00  0.00    +0.000 A 
ATOM      5  N   UNL     1       5.993   4.599  19.795  0.00  0.00    +0.000 NA
ATOM      6  N   UNL     1       5.028   4.840  18.865  0.00  0.00    +0.000 N 
ATOM      7  C   UNL     1       5.368   5.925  18.077  0.00  0.00    +0.000 A 
BRANCH   6   8
ATOM      8  C   UNL     1       3.890   3.986  18.840  0.00  0.00    +0.000 A 
ATOM      9  C   UNL     1       3.784   3.044  17.804  0.00  0.00    +0.000 A 
ATOM     10  C   UNL     1       2.701   2.160  17.766  0.00  0.00    +0.000 A 
ATOM     11  C   UNL     1       1.712   2.225  18.741  0.00  0.00    +0.000 A 
ATOM     12  C   UNL     1       1.775   3.198  19.732  0.00  0.00    +0.000 A 
ATOM     13  C   UNL     1       2.860   4.079  19.781  0.00  0.00    +0.000 A 
ENDBRANCH   6   8
BRANCH   7  14
ATOM     14  C   UNL     1       4.393   6.613  17.210  0.00  0.00    +0.000 C 
ATOM     15  F   UNL     1       4.686   6.505  15.893  0.00  0.00    +0.000 F 
ATOM     16  F   UNL     1       3.136   6.134  17.363  0.00  0.00    +0.000 F 
ATOM     17  F   UNL     1       4.353   7.945  17.465  0.00  0.00    +0.000 F 
ENDBRANCH   7  14
ENDBRANCH   1   3
BRANCH   1  18
ATOM     18  O   UNL     1       8.320   7.890  18.603  0.00  0.00    +0.000 OA
BRANCH  18  21
ATOM     19  N   UNL     1       9.237   9.885  20.242  0.00  0.00    +0.000 NA
ATOM     20  C   UNL     1       9.143  10.067  18.963  0.00  0.00    +0.000 C 
ATOM     21  N   UNL     1       8.574   9.167  18.100  0.00  0.00    +0.000 N 
ATOM     22  H   UNL     1       8.800   8.985  20.463  0.00  0.00    +0.000 HD
ATOM     23  H   UNL     1       8.960   9.151  17.158  0.00  0.00    +0.000 HD
BRANCH  20  24
ATOM     24  C   UNL     1       9.662  11.335  18.367  0.00  0.00    +0.000 A 
ATOM     25  C   UNL     1      11.028  11.477  18.099  0.00  0.00    +0.000 A 
ATOM     26  C   UNL     1      11.502  12.669  17.541  0.00  0.00    +0.000 A 
ATOM     27  C   UNL     1      10.615  13.712  17.258  0.00  0.00    +0.000 A 
ATOM     28 CL   UNL     1      11.206  15.182  16.592  0.00  0.00    +0.000 Cl
ATOM     29  C   UNL     1       9.252  13.577  17.531  0.00  0.00    +0.000 A 
ATOM     30  C   UNL     1       8.777  12.387  18.083  0.00  0.00    +0.000 A 
ENDBRANCH  20  24
ENDBRANCH  18  21
ENDBRANCH   1  18
TORSDOF 6
ENDMDL
MODEL 6
REMARK VINA RESULT:      -8.7      1.739      2.430
REMARK  Name = 
REMARK  6 active torsions:
REMARK  status: ('A' for Active; 'I' for Inactive)
REMARK    1  A    between atoms: C_2  and  C_22
REMARK    2  A    between atoms: N_3  and  O_4
REMARK    3  A    between atoms: O_4  and  C_5
REMARK    4  A    between atoms: C_5  and  C_7
REMARK    5  A    between atoms: N_10  and  C_11
REMARK    6  A    between atoms: C_17  and  C_18
REMARK                            x       y       z     vdW  Elec       q    Type
REMARK                         _______ _______ _______ _____ _____    ______ ____
ROOT
ATOM      1  C   UNL     1       5.852   6.438  16.052  0.00  0.00    +0.000 C 
ATOM      2  O   UNL     1       5.788   6.319  14.835  0.00  0.00    +0.000 OA
ENDROOT
BRANCH   1   3
ATOM      3  C   UNL     1       4.718   6.249  16.931  0.00  0.00    +0.000 A 
ATOM      4  C   UNL     1       3.926   7.245  17.524  0.00  0.00    +0.000 A 
ATOM      5  N   UNL     1       2.988   6.741  18.318  0.00  0.00    +0.000 NA
ATOM      6  N   UNL     1       3.240   5.403  18.358  0.00  0.00    +0.000 N 
ATOM      7  C   UNL     1       4.188   5.055  17.412  0.00  0.00    +0.000 A 
BRANCH   6   8
ATOM      8  C   UNL     1       2.540   4.616  19.314  0.00  0.00    +0.000 A 
ATOM      9  C   UNL     1       1.450   3.846  18.877  0.00  0.00    +0.000 A 
ATOM     10  C   UNL     1       0.760   3.028  19.777  0.00  0.00    +0.000 A 
ATOM     11  C   UNL     1       1.136   2.992  21.116  0.00  0.00    +0.000 A 
ATOM     12  C   UNL     1       2.169   3.802  21.570  0.00  0.00    +0.000 A 
ATOM     13  C   UNL     1       2.870   4.615  20.673  0.00  0.00    +0.000 A 
ENDBRANCH   6   8
BRANCH   7  14
ATOM     14  C   UNL     1       4.427   3.658  17.006  0.00  0.00    +0.000 C 
ATOM     15  F   UNL     1       5.480   3.522  16.166  0.00  0.00    +0.000 F 
ATOM     16  F   UNL     1       4.672   2.846  18.062  0.00  0.00    +0.000 F 
ATOM     17  F   UNL     1       3.363   3.145  16.338  0.00  0.00    +0.000 F 
ENDBRANCH   7  14
ENDBRANCH   1   3
BRANCH   1  18
ATOM     18  O   UNL     1       7.030   6.563  16.756  0.00  0.00    +0.000 OA
BRANCH  18  21
ATOM     19  N   UNL     1       8.449   7.232  19.002  0.00  0.00    +0.000 NA
ATOM     20  C   UNL     1       8.083   8.140  18.154  0.00  0.00    +0.000 C 
ATOM     21  N   UNL     1       7.263   7.901  17.081  0.00  0.00    +0.000 N 
ATOM     22  H   UNL     1       8.004   6.350  18.729  0.00  0.00    +0.000 HD
ATOM     23  H   UNL     1       7.424   8.484  16.262  0.00  0.00    +0.000 HD
BRANCH  20  24
ATOM     24  C   UNL     1       8.552   9.545  18.343  0.00  0.00    +0.000 A 
ATOM     25  C   UNL     1       9.459   9.851  19.364  0.00  0.00    +0.000 A 
ATOM     26  C   UNL     1       9.890  11.171  19.531  0.00  0.00    +0.000 A 
ATOM     27  C   UNL     1       9.415  12.177  18.685  0.00  0.00    +0.000 A 
ATOM     28 CL   UNL     1       9.933  13.801  18.907  0.00  0.00    +0.000 Cl
ATOM     29  C   UNL     1       8.504  11.877  17.669  0.00  0.00    +0.000 A 
ATOM     30  C   UNL     1       8.076  10.561  17.498  0.00  0.00    +0.000 A 
ENDBRANCH  20  24
ENDBRANCH  18  21
ENDBRANCH   1  18
TORSDOF 6
ENDMDL
MODEL 7
REMARK VINA RESULT:      -8.6      1.758      2.276
REMARK  Name = 
REMARK  6 active torsions:
REMARK  status: ('A' for Active; 'I' for Inactive)
REMARK    1  A    between atoms: C_2  and  C_22
REMARK    2  A    between atoms: N_3  and  O_4
REMARK    3  A    between atoms: O_4  and  C_5
REMARK    4  A    between atoms: C_5  and  C_7
REMARK    5  A    between atoms: N_10  and  C_11
REMARK    6  A    between atoms: C_17  and  C_18
REMARK                            x       y       z     vdW  Elec       q    Type
REMARK                         _______ _______ _______ _____ _____    ______ ____
ROOT
ATOM      1  C   UNL     1       5.903   6.344  16.006  0.00  0.00    +0.000 C 
ATOM      2  O   UNL     1       5.841   6.184  14.794  0.00  0.00    +0.000 OA
ENDROOT
BRANCH   1   3
ATOM      3  C   UNL     1       4.768   6.190  16.890  0.00  0.00    +0.000 A 
ATOM      4  C   UNL     1       4.033   7.209  17.517  0.00  0.00    +0.000 A 
ATOM      5  N   UNL     1       3.077   6.733  18.305  0.00  0.00    +0.000 NA
ATOM      6  N   UNL     1       3.259   5.383  18.307  0.00  0.00    +0.000 N 
ATOM      7  C   UNL     1       4.180   5.013  17.343  0.00  0.00    +0.000 A 
BRANCH   6   8
ATOM      8  C   UNL     1       2.525   4.607  19.247  0.00  0.00    +0.000 A 
ATOM      9  C   UNL     1       1.503   3.771  18.771  0.00  0.00    +0.000 A 
ATOM     10  C   UNL     1       0.785   2.962  19.658  0.00  0.00    +0.000 A 
ATOM     11  C   UNL     1       1.065   3.001  21.020  0.00  0.00    +0.000 A 
ATOM     12  C   UNL     1       2.028   3.876  21.508  0.00  0.00    +0.000 A 
ATOM     13  C   UNL     1       2.756   4.680  20.624  0.00  0.00    +0.000 A 
ENDBRANCH   6   8
BRANCH   7  14
ATOM     14  C   UNL     1       4.343   3.616  16.897  0.00  0.00    +0.000 C 
ATOM     15  F   UNL     1       3.266   3.145  16.225  0.00  0.00    +0.000 F 
ATOM     16  F   UNL     1       5.408   3.455  16.077  0.00  0.00    +0.000 F 
ATOM     17  F   UNL     1       4.510   2.774  17.948  0.00  0.00    +0.000 F 
ENDBRANCH   7  14
ENDBRANCH   1   3
BRANCH   1  18
ATOM     18  O   UNL     1       7.082   6.487  16.707  0.00  0.00    +0.000 OA
BRANCH  18  21
ATOM     19  N   UNL     1       8.442   7.155  18.989  0.00  0.00    +0.000 NA
ATOM     20  C   UNL     1       8.076   8.066  18.144  0.00  0.00    +0.000 C 
ATOM     21  N   UNL     1       7.283   7.825  17.052  0.00  0.00    +0.000 N 
ATOM     22  H   UNL     1       8.020   6.268  18.697  0.00  0.00    +0.000 HD
ATOM     23  H   UNL     1       7.449   8.420  16.244  0.00  0.00    +0.000 HD
BRANCH  20  24
ATOM     24  C   UNL     1       8.515   9.477  18.359  0.00  0.00    +0.000 A 
ATOM     25  C   UNL     1       8.072  10.489  17.498  0.00  0.00    +0.000 A 
ATOM     26  C   UNL     1       8.489  11.807  17.710  0.00  0.00    +0.000 A 
ATOM     27  C   UNL     1       9.346  12.109  18.772  0.00  0.00    +0.000 A 
ATOM     28 CL   UNL     1       9.871  13.728  19.014  0.00  0.00    +0.000 Cl
ATOM     29  C   UNL     1       9.796  11.102  19.629  0.00  0.00    +0.000 A 
ATOM     30  C   UNL     1       9.377   9.788  19.422  0.00  0.00    +0.000 A 
ENDBRANCH  20  24
ENDBRANCH  18  21
ENDBRANCH   1  18
TORSDOF 6
ENDMDL
MODEL 8
REMARK VINA RESULT:      -8.4      2.168      2.837
REMARK  Name = 
REMARK  6 active torsions:
REMARK  status: ('A' for Active; 'I' for Inactive)
REMARK    1  A    between atoms: C_2  and  C_22
REMARK    2  A    between atoms: N_3  and  O_4
REMARK    3  A    between atoms: O_4  and  C_5
REMARK    4  A    between atoms: C_5  and  C_7
REMARK    5  A    between atoms: N_10  and  C_11
REMARK    6  A    between atoms: C_17  and  C_18
REMARK                            x       y       z     vdW  Elec       q    Type
REMARK                         _______ _______ _______ _____ _____    ______ ____
ROOT
ATOM      1  C   UNL     1       7.216   7.084  17.127  0.00  0.00    +0.000 C 
ATOM      2  O   UNL     1       7.842   6.611  16.187  0.00  0.00    +0.000 OA
ENDROOT
BRANCH   1   3
ATOM      3  C   UNL     1       5.815   6.814  17.368  0.00  0.00    +0.000 A 
ATOM      4  C   UNL     1       4.740   7.708  17.233  0.00  0.00    +0.000 A 
ATOM      5  N   UNL     1       3.580   7.161  17.577  0.00  0.00    +0.000 NA
ATOM      6  N   UNL     1       3.900   5.933  18.070  0.00  0.00    +0.000 N 
ATOM      7  C   UNL     1       5.228   5.635  17.819  0.00  0.00    +0.000 A 
BRANCH   6   8
ATOM      8  C   UNL     1       2.884   5.190  18.734  0.00  0.00    +0.000 A 
ATOM      9  C   UNL     1       2.120   4.283  17.984  0.00  0.00    +0.000 A 
ATOM     10  C   UNL     1       1.139   3.505  18.607  0.00  0.00    +0.000 A 
ATOM     11  C   UNL     1       0.900   3.644  19.970  0.00  0.00    +0.000 A 
ATOM     12  C   UNL     1       1.606   4.588  20.707  0.00  0.00    +0.000 A 
ATOM     13  C   UNL     1       2.595   5.362  20.091  0.00  0.00    +0.000 A 
ENDBRANCH   6   8
BRANCH   7  14
ATOM     14  C   UNL     1       5.772   4.271  17.945  0.00  0.00    +0.000 C 
ATOM     15  F   UNL     1       5.281   3.415  17.019  0.00  0.00    +0.000 F 
ATOM     16  F   UNL     1       7.120   4.237  17.821  0.00  0.00    +0.000 F 
ATOM     17  F   UNL     1       5.462   3.720  19.146  0.00  0.00    +0.000 F 
ENDBRANCH   7  14
ENDBRANCH   1   3
BRANCH   1  18
ATOM     18  O   UNL     1       7.796   7.759  18.179  0.00  0.00    +0.000 OA
BRANCH  18  21
ATOM     19  N   UNL     1       9.013   9.467  19.941  0.00  0.00    +0.000 NA
ATOM     20  C   UNL     1       8.859   9.796  18.698  0.00  0.00    +0.000 C 
ATOM     21  N   UNL     1       8.147   9.054  17.791  0.00  0.00    +0.000 N 
ATOM     22  H   UNL     1       8.501   8.594  20.100  0.00  0.00    +0.000 HD
ATOM     23  H   UNL     1       8.470   9.103  16.827  0.00  0.00    +0.000 HD
BRANCH  20  24
ATOM     24  C   UNL     1       9.467  11.066  18.199  0.00  0.00    +0.000 A 
ATOM     25  C   UNL     1      10.856  11.176  18.071  0.00  0.00    +0.000 A 
ATOM     26  C   UNL     1      11.413  12.371  17.603  0.00  0.00    +0.000 A 
ATOM     27  C   UNL     1      10.587  13.447  17.268  0.00  0.00    +0.000 A 
ATOM     28 CL   UNL     1      11.278  14.919  16.713  0.00  0.00    +0.000 Cl
ATOM     29  C   UNL     1       9.200  13.344  17.401  0.00  0.00    +0.000 A 
ATOM     30  C   UNL     1       8.642  12.152  17.864  0.00  0.00    +0.000 A 
ENDBRANCH  20  24
ENDBRANCH  18  21
ENDBRANCH   1  18
TORSDOF 6
ENDMDL
MODEL 9
REMARK VINA RESULT:      -8.4      2.177      2.705
REMARK  Name = 
REMARK  6 active torsions:
REMARK  status: ('A' for Active; 'I' for Inactive)
REMARK    1  A    between atoms: C_2  and  C_22
REMARK    2  A    between atoms: N_3  and  O_4
REMARK    3  A    between atoms: O_4  and  C_5
REMARK    4  A    between atoms: C_5  and  C_7
REMARK    5  A    between atoms: N_10  and  C_11
REMARK    6  A    between atoms: C_17  and  C_18
REMARK                            x       y       z     vdW  Elec       q    Type
REMARK                         _______ _______ _______ _____ _____    ______ ____
ROOT
ATOM      1  C   UNL     1       7.233   7.106  17.119  0.00  0.00    +0.000 C 
ATOM      2  O   UNL     1       7.868   6.641  16.181  0.00  0.00    +0.000 OA
ENDROOT
BRANCH   1   3
ATOM      3  C   UNL     1       5.833   6.822  17.352  0.00  0.00    +0.000 A 
ATOM      4  C   UNL     1       4.752   7.709  17.223  0.00  0.00    +0.000 A 
ATOM      5  N   UNL     1       3.595   7.150  17.555  0.00  0.00    +0.000 NA
ATOM      6  N   UNL     1       3.922   5.918  18.036  0.00  0.00    +0.000 N 
ATOM      7  C   UNL     1       5.254   5.634  17.787  0.00  0.00    +0.000 A 
BRANCH   6   8
ATOM      8  C   UNL     1       2.910   5.160  18.688  0.00  0.00    +0.000 A 
ATOM      9  C   UNL     1       2.708   5.359  20.063  0.00  0.00    +0.000 A 
ATOM     10  C   UNL     1       1.697   4.663  20.733  0.00  0.00    +0.000 A 
ATOM     11  C   UNL     1       0.903   3.752  20.045  0.00  0.00    +0.000 A 
ATOM     12  C   UNL     1       1.140   3.500  18.699  0.00  0.00    +0.000 A 
ATOM     13  C   UNL     1       2.143   4.200  18.021  0.00  0.00    +0.000 A 
ENDBRANCH   6   8
BRANCH   7  14
ATOM     14  C   UNL     1       5.809   4.272  17.900  0.00  0.00    +0.000 C 
ATOM     15  F   UNL     1       7.160   4.243  17.838  0.00  0.00    +0.000 F 
ATOM     16  F   UNL     1       5.466   3.668  19.063  0.00  0.00    +0.000 F 
ATOM     17  F   UNL     1       5.382   3.475  16.889  0.00  0.00    +0.000 F 
ENDBRANCH   7  14
ENDBRANCH   1   3
BRANCH   1  18
ATOM     18  O   UNL     1       7.801   7.783  18.177  0.00  0.00    +0.000 OA
BRANCH  18  21
ATOM     19  N   UNL     1       9.043   9.477  19.935  0.00  0.00    +0.000 NA
ATOM     20  C   UNL     1       8.872   9.816  18.697  0.00  0.00    +0.000 C 
ATOM     21  N   UNL     1       8.147   9.080  17.795  0.00  0.00    +0.000 N 
ATOM     22  H   UNL     1       8.533   8.603  20.095  0.00  0.00    +0.000 HD
ATOM     23  H   UNL     1       8.457   9.137  16.827  0.00  0.00    +0.000 HD
BRANCH  20  24
ATOM     24  C   UNL     1       9.472  11.089  18.199  0.00  0.00    +0.000 A 
ATOM     25  C   UNL     1      10.860  11.198  18.047  0.00  0.00    +0.000 A 
ATOM     26  C   UNL     1      11.411  12.396  17.580  0.00  0.00    +0.000 A 
ATOM     27  C   UNL     1      10.580  13.477  17.272  0.00  0.00    +0.000 A 
ATOM     28 CL   UNL     1      11.264  14.953  16.718  0.00  0.00    +0.000 Cl
ATOM     29  C   UNL     1       9.196  13.375  17.429  0.00  0.00    +0.000 A 
ATOM     30  C   UNL     1       8.644  12.179  17.890  0.00  0.00    +0.000 A 
ENDBRANCH  20  24
ENDBRANCH  18  21
ENDBRANCH   1  18
TORSDOF 6
ENDMDL
