MODEL 1
REMARK VINA RESULT:      -7.1      0.000      0.000
REMARK  Name = 
REMARK  6 active torsions:
REMARK  status: ('A' for Active; 'I' for Inactive)
REMARK    1  A    between atoms: O_1  and  C_2
REMARK    2  A    between atoms: C_7  and  C_8
REMARK    3  A    between atoms: C_8  and  O_9
REMARK    4  A    between atoms: C_8  and  C_10
REMARK    5  A    between atoms: C_10  and  C_11
REMARK    6  A    between atoms: C_11  and  C_12
REMARK                            x       y       z     vdW  Elec       q    Type
REMARK                         _______ _______ _______ _____ _____    ______ ____
ROOT
ATOM      1  C   UNL     1       5.281   4.205  16.162  0.00  0.00    +0.000 C 
ENDROOT
BRANCH   1   7
ATOM      2  C   UNL     1       6.285   6.525  16.605  0.00  0.00    +0.000 A 
ATOM      3  C   UNL     1       7.128   7.372  17.326  0.00  0.00    +0.000 A 
ATOM      4  C   UNL     1       7.874   6.866  18.390  0.00  0.00    +0.000 A 
ATOM      5  C   UNL     1       7.769   5.522  18.733  0.00  0.00    +0.000 A 
ATOM      6  C   UNL     1       6.928   4.678  18.004  0.00  0.00    +0.000 A 
ATOM      7  C   UNL     1       6.180   5.163  16.917  0.00  0.00    +0.000 A 
BRANCH   2   8
ATOM      8  O   UNL     1       5.519   7.036  15.593  0.00  0.00    +0.000 OA
ATOM      9  H   UNL     1       4.805   6.405  15.397  0.00  0.00    +0.000 HD
ENDBRANCH   2   8
ENDBRANCH   1   7
BRANCH   1  10
ATOM     10  O   UNL     1       6.032   3.038  15.819  0.00  0.00    +0.000 OA
ATOM     11  H   UNL     1       5.378   2.402  15.471  0.00  0.00    +0.000 HD
ENDBRANCH   1  10
BRANCH   1  12
ATOM     12  C   UNL     1       4.013   3.754  16.898  0.00  0.00    +0.000 C 
BRANCH  12  13
ATOM     13  C   UNL     1       3.265   4.880  17.612  0.00  0.00    +0.000 C 
BRANCH  13  14
ATOM     14  C   UNL     1       2.486   4.329  18.785  0.00  0.00    +0.000 A 
ATOM     15  C   UNL     1       2.808   4.712  20.095  0.00  0.00    +0.000 A 
ATOM     16  C   UNL     1       2.137   4.148  21.182  0.00  0.00    +0.000 A 
ATOM     17  C   UNL     1       1.141   3.196  20.972  0.00  0.00    +0.000 A 
ATOM     18  C   UNL     1       0.811   2.812  19.674  0.00  0.00    +0.000 A 
ATOM     19  C   UNL     1       1.480   3.374  18.585  0.00  0.00    +0.000 A 
ENDBRANCH  13  14
ENDBRANCH  12  13
ENDBRANCH   1  12
TORSDOF 6
ENDMDL
MODEL 2
REMARK VINA RESULT:      -7.1      1.405      2.029
REMARK  Name = 
REMARK  6 active torsions:
REMARK  status: ('A' for Active; 'I' for Inactive)
REMARK    1  A    between atoms: O_1  and  C_2
REMARK    2  A    between atoms: C_7  and  C_8
REMARK    3  A    between atoms: C_8  and  O_9
REMARK    4  A    between atoms: C_8  and  C_10
REMARK    5  A    between atoms: C_10  and  C_11
REMARK    6  A    between atoms: C_11  and  C_12
REMARK                            x       y       z     vdW  Elec       q    Type
REMARK                         _______ _______ _______ _____ _____    ______ ____
ROOT
ATOM      1  C   UNL     1       4.319   5.639  17.116  0.00  0.00    +0.000 C 
ENDROOT
BRANCH   1   7
ATOM      2  C   UNL     1       6.268   5.323  18.755  0.00  0.00    +0.000 A 
ATOM      3  C   UNL     1       7.510   5.708  19.262  0.00  0.00    +0.000 A 
ATOM      4  C   UNL     1       8.179   6.797  18.706  0.00  0.00    +0.000 A 
ATOM      5  C   UNL     1       7.610   7.490  17.642  0.00  0.00    +0.000 A 
ATOM      6  C   UNL     1       6.365   7.103  17.142  0.00  0.00    +0.000 A 
ATOM      7  C   UNL     1       5.664   6.018  17.699  0.00  0.00    +0.000 A 
BRANCH   2   8
ATOM      8  O   UNL     1       5.637   4.224  19.273  0.00  0.00    +0.000 OA
ATOM      9  H   UNL     1       5.362   4.427  20.183  0.00  0.00    +0.000 HD
ENDBRANCH   2   8
ENDBRANCH   1   7
BRANCH   1  10
ATOM     10  O   UNL     1       4.273   4.220  16.940  0.00  0.00    +0.000 OA
ATOM     11  H   UNL     1       3.627   3.899  17.598  0.00  0.00    +0.000 HD
ENDBRANCH   1  10
BRANCH   1  12
ATOM     12  C   UNL     1       3.090   6.056  17.935  0.00  0.00    +0.000 C 
BRANCH  12  13
ATOM     13  C   UNL     1       1.921   5.074  17.860  0.00  0.00    +0.000 C 
BRANCH  13  14
ATOM     14  C   UNL     1       1.791   4.315  19.161  0.00  0.00    +0.000 A 
ATOM     15  C   UNL     1       2.329   4.837  20.345  0.00  0.00    +0.000 A 
ATOM     16  C   UNL     1       2.273   4.104  21.532  0.00  0.00    +0.000 A 
ATOM     17  C   UNL     1       1.681   2.842  21.547  0.00  0.00    +0.000 A 
ATOM     18  C   UNL     1       1.139   2.316  20.375  0.00  0.00    +0.000 A 
ATOM     19  C   UNL     1       1.194   3.048  19.187  0.00  0.00    +0.000 A 
ENDBRANCH  13  14
ENDBRANCH  12  13
ENDBRANCH   1  12
TORSDOF 6
ENDMDL
MODEL 3
REMARK VINA RESULT:      -7.1      1.224      1.901
REMARK  Name = 
REMARK  6 active torsions:
REMARK  status: ('A' for Active; 'I' for Inactive)
REMARK    1  A    between atoms: O_1  and  C_2
REMARK    2  A    between atoms: C_7  and  C_8
REMARK    3  A    between atoms: C_8  and  O_9
REMARK    4  A    between atoms: C_8  and  C_10
REMARK    5  A    between atoms: C_10  and  C_11
REMARK    6  A    between atoms: C_11  and  C_12
REMARK                            x       y       z     vdW  Elec       q    Type
REMARK                         _______ _______ _______ _____ _____    ______ ____
ROOT
ATOM      1  C   UNL     1       5.107   4.816  16.437  0.00  0.00    +0.000 C 
ENDROOT
BRANCH   1   7
ATOM      2  C   UNL     1       6.751   5.097  18.387  0.00  0.00    +0.000 A 
ATOM      3  C   UNL     1       7.710   5.841  19.076  0.00  0.00    +0.000 A 
ATOM      4  C   UNL     1       8.098   7.090  18.593  0.00  0.00    +0.000 A 
ATOM      5  C   UNL     1       7.533   7.586  17.423  0.00  0.00    +0.000 A 
ATOM      6  C   UNL     1       6.570   6.840  16.740  0.00  0.00    +0.000 A 
ATOM      7  C   UNL     1       6.152   5.585  17.218  0.00  0.00    +0.000 A 
BRANCH   2   8
ATOM      8  O   UNL     1       6.409   3.851  18.838  0.00  0.00    +0.000 OA
ATOM      9  H   UNL     1       6.610   3.204  18.140  0.00  0.00    +0.000 HD
ENDBRANCH   2   8
ENDBRANCH   1   7
BRANCH   1  10
ATOM     10  O   UNL     1       5.568   3.475  16.241  0.00  0.00    +0.000 OA
ATOM     11  H   UNL     1       6.025   3.236  17.070  0.00  0.00    +0.000 HD
ENDBRANCH   1  10
BRANCH   1  12
ATOM     12  C   UNL     1       3.710   4.750  17.068  0.00  0.00    +0.000 C 
BRANCH  12  13
ATOM     13  C   UNL     1       3.265   3.342  17.464  0.00  0.00    +0.000 C 
BRANCH  13  14
ATOM     14  C   UNL     1       2.677   3.352  18.856  0.00  0.00    +0.000 A 
ATOM     15  C   UNL     1       3.282   2.622  19.889  0.00  0.00    +0.000 A 
ATOM     16  C   UNL     1       2.699   2.573  21.157  0.00  0.00    +0.000 A 
ATOM     17  C   UNL     1       1.506   3.250  21.405  0.00  0.00    +0.000 A 
ATOM     18  C   UNL     1       0.899   3.983  20.386  0.00  0.00    +0.000 A 
ATOM     19  C   UNL     1       1.480   4.033  19.118  0.00  0.00    +0.000 A 
ENDBRANCH  13  14
ENDBRANCH  12  13
ENDBRANCH   1  12
TORSDOF 6
ENDMDL
MODEL 4
REMARK VINA RESULT:      -7.1      0.143      1.175
REMARK  Name = 
REMARK  6 active torsions:
REMARK  status: ('A' for Active; 'I' for Inactive)
REMARK    1  A    between atoms: O_1  and  C_2
REMARK    2  A    between atoms: C_7  and  C_8
REMARK    3  A    between atoms: C_8  and  O_9
REMARK    4  A    between atoms: C_8  and  C_10
REMARK    5  A    between atoms: C_10  and  C_11
REMARK    6  A    between atoms: C_11  and  C_12
REMARK                            x       y       z     vdW  Elec       q    Type
REMARK                         _______ _______ _______ _____ _____    ______ ____
ROOT
ATOM      1  C   UNL     1       5.349   4.177  16.178  0.00  0.00    +0.000 C 
ENDROOT
BRANCH   1   7
ATOM      2  C   UNL     1       6.295   6.519  16.632  0.00  0.00    +0.000 A 
ATOM      3  C   UNL     1       7.119   7.382  17.356  0.00  0.00    +0.000 A 
ATOM      4  C   UNL     1       7.884   6.888  18.412  0.00  0.00    +0.000 A 
ATOM      5  C   UNL     1       7.816   5.539  18.745  0.00  0.00    +0.000 A 
ATOM      6  C   UNL     1       6.993   4.679  18.014  0.00  0.00    +0.000 A 
ATOM      7  C   UNL     1       6.226   5.153  16.935  0.00  0.00    +0.000 A 
BRANCH   2   8
ATOM      8  O   UNL     1       5.510   7.017  15.628  0.00  0.00    +0.000 OA
ATOM      9  H   UNL     1       4.867   6.334  15.371  0.00  0.00    +0.000 HD
ENDBRANCH   2   8
ENDBRANCH   1   7
BRANCH   1  10
ATOM     10  O   UNL     1       6.151   3.078  15.738  0.00  0.00    +0.000 OA
ATOM     11  H   UNL     1       6.229   3.186  14.771  0.00  0.00    +0.000 HD
ENDBRANCH   1  10
BRANCH   1  12
ATOM     12  C   UNL     1       4.151   3.611  16.952  0.00  0.00    +0.000 C 
BRANCH  12  13
ATOM     13  C   UNL     1       3.200   4.672  17.503  0.00  0.00    +0.000 C 
BRANCH  13  14
ATOM     14  C   UNL     1       2.529   4.170  18.762  0.00  0.00    +0.000 A 
ATOM     15  C   UNL     1       1.413   3.325  18.684  0.00  0.00    +0.000 A 
ATOM     16  C   UNL     1       0.750   2.920  19.844  0.00  0.00    +0.000 A 
ATOM     17  C   UNL     1       1.193   3.356  21.091  0.00  0.00    +0.000 A 
ATOM     18  C   UNL     1       2.304   4.193  21.180  0.00  0.00    +0.000 A 
ATOM     19  C   UNL     1       2.969   4.599  20.021  0.00  0.00    +0.000 A 
ENDBRANCH  13  14
ENDBRANCH  12  13
ENDBRANCH   1  12
TORSDOF 6
ENDMDL
MODEL 5
REMARK VINA RESULT:      -7.0      2.259      3.444
REMARK  Name = 
REMARK  6 active torsions:
REMARK  status: ('A' for Active; 'I' for Inactive)
REMARK    1  A    between atoms: O_1  and  C_2
REMARK    2  A    between atoms: C_7  and  C_8
REMARK    3  A    between atoms: C_8  and  O_9
REMARK    4  A    between atoms: C_8  and  C_10
REMARK    5  A    between atoms: C_10  and  C_11
REMARK    6  A    between atoms: C_11  and  C_12
REMARK                            x       y       z     vdW  Elec       q    Type
REMARK                         _______ _______ _______ _____ _____    ______ ____
ROOT
ATOM      1  C   UNL     1       3.432   1.849  17.974  0.00  0.00    +0.000 C 
ENDROOT
BRANCH   1   7
ATOM      2  C   UNL     1       4.973   3.640  18.976  0.00  0.00    +0.000 A 
ATOM      3  C   UNL     1       5.740   4.798  18.848  0.00  0.00    +0.000 A 
ATOM      4  C   UNL     1       5.836   5.435  17.610  0.00  0.00    +0.000 A 
ATOM      5  C   UNL     1       5.172   4.908  16.507  0.00  0.00    +0.000 A 
ATOM      6  C   UNL     1       4.401   3.751  16.643  0.00  0.00    +0.000 A 
ATOM      7  C   UNL     1       4.278   3.102  17.884  0.00  0.00    +0.000 A 
BRANCH   2   8
ATOM      8  O   UNL     1       4.922   2.992  20.180  0.00  0.00    +0.000 OA
ATOM      9  H   UNL     1       4.029   2.622  20.294  0.00  0.00    +0.000 HD
ENDBRANCH   2   8
ENDBRANCH   1   7
BRANCH   1  10
ATOM     10  O   UNL     1       4.252   0.768  18.426  0.00  0.00    +0.000 OA
ATOM     11  H   UNL     1       3.971  -0.006  17.902  0.00  0.00    +0.000 HD
ENDBRANCH   1  10
BRANCH   1  12
ATOM     12  C   UNL     1       2.206   1.930  18.893  0.00  0.00    +0.000 C 
BRANCH  12  13
ATOM     13  C   UNL     1       1.140   2.925  18.434  0.00  0.00    +0.000 C 
BRANCH  13  14
ATOM     14  C   UNL     1       1.502   4.323  18.884  0.00  0.00    +0.000 A 
ATOM     15  C   UNL     1       1.805   5.317  17.943  0.00  0.00    +0.000 A 
ATOM     16  C   UNL     1       2.208   6.587  18.359  0.00  0.00    +0.000 A 
ATOM     17  C   UNL     1       2.315   6.876  19.719  0.00  0.00    +0.000 A 
ATOM     18  C   UNL     1       2.011   5.896  20.663  0.00  0.00    +0.000 A 
ATOM     19  C   UNL     1       1.607   4.625  20.248  0.00  0.00    +0.000 A 
ENDBRANCH  13  14
ENDBRANCH  12  13
ENDBRANCH   1  12
TORSDOF 6
ENDMDL
MODEL 6
REMARK VINA RESULT:      -7.0      1.939      5.652
REMARK  Name = 
REMARK  6 active torsions:
REMARK  status: ('A' for Active; 'I' for Inactive)
REMARK    1  A    between atoms: O_1  and  C_2
REMARK    2  A    between atoms: C_7  and  C_8
REMARK    3  A    between atoms: C_8  and  O_9
REMARK    4  A    between atoms: C_8  and  C_10
REMARK    5  A    between atoms: C_10  and  C_11
REMARK    6  A    between atoms: C_11  and  C_12
REMARK                            x       y       z     vdW  Elec       q    Type
REMARK                         _______ _______ _______ _____ _____    ______ ____
ROOT
ATOM      1  C   UNL     1       2.451   3.436  17.474  0.00  0.00    +0.000 C 
ENDROOT
BRANCH   1   7
ATOM      2  C   UNL     1       3.415   2.512  19.665  0.00  0.00    +0.000 A 
ATOM      3  C   UNL     1       3.342   2.323  21.046  0.00  0.00    +0.000 A 
ATOM      4  C   UNL     1       2.263   2.843  21.761  0.00  0.00    +0.000 A 
ATOM      5  C   UNL     1       1.270   3.555  21.096  0.00  0.00    +0.000 A 
ATOM      6  C   UNL     1       1.347   3.737  19.714  0.00  0.00    +0.000 A 
ATOM      7  C   UNL     1       2.416   3.207  18.970  0.00  0.00    +0.000 A 
BRANCH   2   8
ATOM      8  O   UNL     1       4.499   2.042  18.976  0.00  0.00    +0.000 OA
ATOM      9  H   UNL     1       4.463   1.070  18.969  0.00  0.00    +0.000 HD
ENDBRANCH   2   8
ENDBRANCH   1   7
BRANCH   1  10
ATOM     10  O   UNL     1       1.222   4.047  17.070  0.00  0.00    +0.000 OA
ATOM     11  H   UNL     1       0.703   4.148  17.890  0.00  0.00    +0.000 HD
ENDBRANCH   1  10
BRANCH   1  12
ATOM     12  C   UNL     1       3.605   4.303  16.954  0.00  0.00    +0.000 C 
BRANCH  12  13
ATOM     13  C   UNL     1       3.702   5.680  17.609  0.00  0.00    +0.000 C 
BRANCH  13  14
ATOM     14  C   UNL     1       5.139   5.991  17.964  0.00  0.00    +0.000 A 
ATOM     15  C   UNL     1       5.878   6.904  17.199  0.00  0.00    +0.000 A 
ATOM     16  C   UNL     1       7.226   7.136  17.482  0.00  0.00    +0.000 A 
ATOM     17  C   UNL     1       7.847   6.459  18.529  0.00  0.00    +0.000 A 
ATOM     18  C   UNL     1       7.119   5.553  19.299  0.00  0.00    +0.000 A 
ATOM     19  C   UNL     1       5.772   5.319  19.018  0.00  0.00    +0.000 A 
ENDBRANCH  13  14
ENDBRANCH  12  13
ENDBRANCH   1  12
TORSDOF 6
ENDMDL
MODEL 7
REMARK VINA RESULT:      -7.0      0.728      1.011
REMARK  Name = 
REMARK  6 active torsions:
REMARK  status: ('A' for Active; 'I' for Inactive)
REMARK    1  A    between atoms: O_1  and  C_2
REMARK    2  A    between atoms: C_7  and  C_8
REMARK    3  A    between atoms: C_8  and  O_9
REMARK    4  A    between atoms: C_8  and  C_10
REMARK    5  A    between atoms: C_10  and  C_11
REMARK    6  A    between atoms: C_11  and  C_12
REMARK                            x       y       z     vdW  Elec       q    Type
REMARK                         _______ _______ _______ _____ _____    ______ ____
ROOT
ATOM      1  C   UNL     1       5.249   4.029  16.333  0.00  0.00    +0.000 C 
ENDROOT
BRANCH   1   7
ATOM      2  C   UNL     1       6.213   6.392  16.603  0.00  0.00    +0.000 A 
ATOM      3  C   UNL     1       7.043   7.303  17.258  0.00  0.00    +0.000 A 
ATOM      4  C   UNL     1       7.802   6.888  18.352  0.00  0.00    +0.000 A 
ATOM      5  C   UNL     1       7.724   5.570  18.790  0.00  0.00    +0.000 A 
ATOM      6  C   UNL     1       6.895   4.662  18.127  0.00  0.00    +0.000 A 
ATOM      7  C   UNL     1       6.133   5.055  17.012  0.00  0.00    +0.000 A 
BRANCH   2   8
ATOM      8  O   UNL     1       5.433   6.816  15.562  0.00  0.00    +0.000 OA
ATOM      9  H   UNL     1       5.929   7.483  15.056  0.00  0.00    +0.000 HD
ENDBRANCH   2   8
ENDBRANCH   1   7
BRANCH   1  10
ATOM     10  O   UNL     1       6.071   3.140  15.572  0.00  0.00    +0.000 OA
ATOM     11  H   UNL     1       6.306   2.417  16.185  0.00  0.00    +0.000 HD
ENDBRANCH   1  10
BRANCH   1  12
ATOM     12  C   UNL     1       4.366   3.184  17.260  0.00  0.00    +0.000 C 
BRANCH  12  13
ATOM     13  C   UNL     1       2.868   3.449  17.118  0.00  0.00    +0.000 C 
BRANCH  13  14
ATOM     14  C   UNL     1       2.333   4.112  18.366  0.00  0.00    +0.000 A 
ATOM     15  C   UNL     1       2.816   5.366  18.768  0.00  0.00    +0.000 A 
ATOM     16  C   UNL     1       2.375   5.946  19.960  0.00  0.00    +0.000 A 
ATOM     17  C   UNL     1       1.450   5.279  20.761  0.00  0.00    +0.000 A 
ATOM     18  C   UNL     1       0.961   4.034  20.369  0.00  0.00    +0.000 A 
ATOM     19  C   UNL     1       1.400   3.453  19.177  0.00  0.00    +0.000 A 
ENDBRANCH  13  14
ENDBRANCH  12  13
ENDBRANCH   1  12
TORSDOF 6
ENDMDL
MODEL 8
REMARK VINA RESULT:      -7.0      2.005      5.704
REMARK  Name = 
REMARK  6 active torsions:
REMARK  status: ('A' for Active; 'I' for Inactive)
REMARK    1  A    between atoms: O_1  and  C_2
REMARK    2  A    between atoms: C_7  and  C_8
REMARK    3  A    between atoms: C_8  and  O_9
REMARK    4  A    between atoms: C_8  and  C_10
REMARK    5  A    between atoms: C_10  and  C_11
REMARK    6  A    between atoms: C_11  and  C_12
REMARK                            x       y       z     vdW  Elec       q    Type
REMARK                         _______ _______ _______ _____ _____    ______ ____
ROOT
ATOM      1  C   UNL     1       3.381   2.840  17.645  0.00  0.00    +0.000 C 
ENDROOT
BRANCH   1   7
ATOM      2  C   UNL     1       3.564   2.530  20.186  0.00  0.00    +0.000 A 
ATOM      3  C   UNL     1       3.011   2.597  21.465  0.00  0.00    +0.000 A 
ATOM      4  C   UNL     1       1.703   3.050  21.634  0.00  0.00    +0.000 A 
ATOM      5  C   UNL     1       0.957   3.440  20.526  0.00  0.00    +0.000 A 
ATOM      6  C   UNL     1       1.514   3.366  19.247  0.00  0.00    +0.000 A 
ATOM      7  C   UNL     1       2.825   2.897  19.053  0.00  0.00    +0.000 A 
BRANCH   2   8
ATOM      8  O   UNL     1       4.863   2.131  20.031  0.00  0.00    +0.000 OA
ATOM      9  H   UNL     1       5.239   1.955  20.911  0.00  0.00    +0.000 HD
ENDBRANCH   2   8
ENDBRANCH   1   7
BRANCH   1  10
ATOM     10  O   UNL     1       2.397   2.261  16.782  0.00  0.00    +0.000 OA
ATOM     11  H   UNL     1       2.168   2.963  16.144  0.00  0.00    +0.000 HD
ENDBRANCH   1  10
BRANCH   1  12
ATOM     12  C   UNL     1       3.813   4.181  17.039  0.00  0.00    +0.000 C 
BRANCH  12  13
ATOM     13  C   UNL     1       3.932   5.320  18.052  0.00  0.00    +0.000 C 
BRANCH  13  14
ATOM     14  C   UNL     1       5.369   5.779  18.155  0.00  0.00    +0.000 A 
ATOM     15  C   UNL     1       6.201   5.287  19.171  0.00  0.00    +0.000 A 
ATOM     16  C   UNL     1       7.505   5.765  19.312  0.00  0.00    +0.000 A 
ATOM     17  C   UNL     1       7.991   6.739  18.441  0.00  0.00    +0.000 A 
ATOM     18  C   UNL     1       7.173   7.231  17.424  0.00  0.00    +0.000 A 
ATOM     19  C   UNL     1       5.868   6.754  17.282  0.00  0.00    +0.000 A 
ENDBRANCH  13  14
ENDBRANCH  12  13
ENDBRANCH   1  12
TORSDOF 6
ENDMDL
MODEL 9
REMARK VINA RESULT:      -7.0      1.091      1.756
REMARK  Name = 
REMARK  6 active torsions:
REMARK  status: ('A' for Active; 'I' for Inactive)
REMARK    1  A    between atoms: O_1  and  C_2
REMARK    2  A    between atoms: C_7  and  C_8
REMARK    3  A    between atoms: C_8  and  O_9
REMARK    4  A    between atoms: C_8  and  C_10
REMARK    5  A    between atoms: C_10  and  C_11
REMARK    6  A    between atoms: C_11  and  C_12
REMARK                            x       y       z     vdW  Elec       q    Type
REMARK                         _______ _______ _______ _____ _____    ______ ____
ROOT
ATOM      1  C   UNL     1       5.588   5.040  16.068  0.00  0.00    +0.000 C 
ENDROOT
BRANCH   1   7
ATOM      2  C   UNL     1       7.070   5.203  18.157  0.00  0.00    +0.000 A 
ATOM      3  C   UNL     1       7.909   5.929  19.004  0.00  0.00    +0.000 A 
ATOM      4  C   UNL     1       8.207   7.259  18.712  0.00  0.00    +0.000 A 
ATOM      5  C   UNL     1       7.674   7.855  17.573  0.00  0.00    +0.000 A 
ATOM      6  C   UNL     1       6.831   7.124  16.732  0.00  0.00    +0.000 A 
ATOM      7  C   UNL     1       6.504   5.787  17.016  0.00  0.00    +0.000 A 
BRANCH   2   8
ATOM      8  O   UNL     1       6.820   3.884  18.422  0.00  0.00    +0.000 OA
ATOM      9  H   UNL     1       6.180   3.832  19.153  0.00  0.00    +0.000 HD
ENDBRANCH   2   8
ENDBRANCH   1   7
BRANCH   1  10
ATOM     10  O   UNL     1       6.253   3.856  15.619  0.00  0.00    +0.000 OA
ATOM     11  H   UNL     1       7.018   4.170  15.101  0.00  0.00    +0.000 HD
ENDBRANCH   1  10
BRANCH   1  12
ATOM     12  C   UNL     1       4.223   4.632  16.636  0.00  0.00    +0.000 C 
BRANCH  12  13
ATOM     13  C   UNL     1       3.598   5.662  17.576  0.00  0.00    +0.000 C 
BRANCH  13  14
ATOM     14  C   UNL     1       2.622   4.990  18.514  0.00  0.00    +0.000 A 
ATOM     15  C   UNL     1       2.501   5.421  19.843  0.00  0.00    +0.000 A 
ATOM     16  C   UNL     1       1.653   4.754  20.729  0.00  0.00    +0.000 A 
ATOM     17  C   UNL     1       0.920   3.650  20.299  0.00  0.00    +0.000 A 
ATOM     18  C   UNL     1       1.029   3.216  18.978  0.00  0.00    +0.000 A 
ATOM     19  C   UNL     1       1.877   3.882  18.090  0.00  0.00    +0.000 A 
ENDBRANCH  13  14
ENDBRANCH  12  13
ENDBRANCH   1  12
TORSDOF 6
ENDMDL
