MODEL 1
REMARK VINA RESULT:      -8.8      0.000      0.000
REMARK  Name = 
REMARK  6 active torsions:
REMARK  status: ('A' for Active; 'I' for Inactive)
REMARK    1  A    between atoms: C_1  and  C_2
REMARK    2  A    between atoms: C_4  and  C_5
REMARK    3  A    between atoms: C_13  and  N_14
REMARK    4  A    between atoms: N_14  and  C_15
REMARK    5  A    between atoms: C_15  and  C_16
REMARK    6  A    between atoms: C_23  and  C_24
REMARK                            x       y       z     vdW  Elec       q    Type
REMARK                         _______ _______ _______ _____ _____    ______ ____
ROOT
ATOM      1  C   UNL     1       4.501   3.994  18.741  0.00  0.00    +0.000 C 
ATOM      2  O   UNL     1       4.388   2.872  19.232  0.00  0.00    +0.000 OA
ATOM      3  N   UNL     1       3.659   5.053  19.117  0.00  0.00    +0.000 N 
ATOM      4  C   UNL     1       2.686   4.750  20.180  0.00  0.00    +0.000 C 
ATOM      5  C   UNL     1       2.186   5.995  20.930  0.00  0.00    +0.000 C 
ATOM      6  C   UNL     1       1.971   7.155  20.006  0.00  0.00    +0.000 A 
ATOM      7  C   UNL     1       2.467   7.143  18.725  0.00  0.00    +0.000 A 
ATOM      8  S   UNL     1       2.115   8.573  17.878  0.00  0.00    +0.000 S 
ATOM      9  C   UNL     1       1.356   9.294  19.250  0.00  0.00    +0.000 A 
ATOM     10  C   UNL     1       1.297   8.383  20.298  0.00  0.00    +0.000 A 
ATOM     11  C   UNL     1       3.216   6.016  18.091  0.00  0.00    +0.000 C 
ENDROOT
BRANCH   1  15
ATOM     12  C   UNL     1       7.204   4.706  14.518  0.00  0.00    +0.000 C 
ATOM     13  C   UNL     1       6.733   4.570  15.915  0.00  0.00    +0.000 A 
ATOM     14  C   UNL     1       5.402   4.469  16.369  0.00  0.00    +0.000 A 
ATOM     15  C   UNL     1       5.491   4.252  17.729  0.00  0.00    +0.000 A 
ATOM     16  N   UNL     1       6.821   4.393  18.018  0.00  0.00    +0.000 N 
ATOM     17  N   UNL     1       7.603   4.512  16.930  0.00  0.00    +0.000 NA
ATOM     18  H   UNL     1       7.256   4.364  18.936  0.00  0.00    +0.000 HD
ENDBRANCH   1  15
BRANCH   9  19
ATOM     19  N   UNL     1       0.913  10.577  19.133  0.00  0.00    +0.000 N 
ATOM     20  H   UNL     1       1.578  11.314  18.920  0.00  0.00    +0.000 HD
BRANCH  19  21
ATOM     21  C   UNL     1      -0.374  11.036  19.626  0.00  0.00    +0.000 C 
BRANCH  21  22
ATOM     22  C   UNL     1      -1.459  11.016  18.570  0.00  0.00    +0.000 A 
ATOM     23  C   UNL     1      -1.324  10.118  17.493  0.00  0.00    +0.000 A 
ATOM     24  C   UNL     1      -2.340   9.977  16.548  0.00  0.00    +0.000 A 
ATOM     25  C   UNL     1      -3.501  10.727  16.677  0.00  0.00    +0.000 A 
ATOM     26  F   UNL     1      -4.479  10.585  15.772  0.00  0.00    +0.000 F 
ATOM     27  C   UNL     1      -3.668  11.608  17.738  0.00  0.00    +0.000 A 
ATOM     28  C   UNL     1      -2.653  11.746  18.691  0.00  0.00    +0.000 A 
ENDBRANCH  21  22
ENDBRANCH  19  21
ENDBRANCH   9  19
BRANCH  10  29
ATOM     29  C   UNL     1       0.633   8.618  21.545  0.00  0.00    +0.000 C 
ATOM     30  N   UNL     1       0.097   8.828  22.552  0.00  0.00    +0.000 NA
ENDBRANCH  10  29
TORSDOF 5
ENDMDL
MODEL 2
REMARK VINA RESULT:      -8.8      0.673      1.110
REMARK  Name = 
REMARK  6 active torsions:
REMARK  status: ('A' for Active; 'I' for Inactive)
REMARK    1  A    between atoms: C_1  and  C_2
REMARK    2  A    between atoms: C_4  and  C_5
REMARK    3  A    between atoms: C_13  and  N_14
REMARK    4  A    between atoms: N_14  and  C_15
REMARK    5  A    between atoms: C_15  and  C_16
REMARK    6  A    between atoms: C_23  and  C_24
REMARK                            x       y       z     vdW  Elec       q    Type
REMARK                         _______ _______ _______ _____ _____    ______ ____
ROOT
ATOM      1  C   UNL     1       4.250   4.006  18.681  0.00  0.00    +0.000 C 
ATOM      2  O   UNL     1       4.055   2.863  19.091  0.00  0.00    +0.000 OA
ATOM      3  N   UNL     1       3.451   5.085  19.093  0.00  0.00    +0.000 N 
ATOM      4  C   UNL     1       2.416   4.770  20.092  0.00  0.00    +0.000 C 
ATOM      5  C   UNL     1       1.951   5.989  20.902  0.00  0.00    +0.000 C 
ATOM      6  C   UNL     1       1.842   7.217  20.051  0.00  0.00    +0.000 A 
ATOM      7  C   UNL     1       2.394   7.260  18.794  0.00  0.00    +0.000 A 
ATOM      8  S   UNL     1       2.160   8.760  18.032  0.00  0.00    +0.000 S 
ATOM      9  C   UNL     1       1.380   9.433  19.417  0.00  0.00    +0.000 A 
ATOM     10  C   UNL     1       1.224   8.461  20.396  0.00  0.00    +0.000 A 
ATOM     11  C   UNL     1       3.108   6.136  18.117  0.00  0.00    +0.000 C 
ENDROOT
BRANCH   1  15
ATOM     12  C   UNL     1       7.186   4.794  14.630  0.00  0.00    +0.000 C 
ATOM     13  C   UNL     1       6.640   4.620  15.996  0.00  0.00    +0.000 A 
ATOM     14  C   UNL     1       5.284   4.542  16.377  0.00  0.00    +0.000 A 
ATOM     15  C   UNL     1       5.298   4.272  17.731  0.00  0.00    +0.000 A 
ATOM     16  N   UNL     1       6.615   4.363  18.092  0.00  0.00    +0.000 N 
ATOM     17  N   UNL     1       7.454   4.499  17.050  0.00  0.00    +0.000 NA
ATOM     18  H   UNL     1       7.001   4.287  19.029  0.00  0.00    +0.000 HD
ENDBRANCH   1  15
BRANCH   9  19
ATOM     19  N   UNL     1       1.013  10.745  19.368  0.00  0.00    +0.000 N 
ATOM     20  H   UNL     1       0.973  11.280  20.229  0.00  0.00    +0.000 HD
BRANCH  19  21
ATOM     21  C   UNL     1       0.341  11.355  18.234  0.00  0.00    +0.000 C 
BRANCH  21  22
ATOM     22  C   UNL     1      -1.141  11.049  18.183  0.00  0.00    +0.000 A 
ATOM     23  C   UNL     1      -2.026  11.935  18.826  0.00  0.00    +0.000 A 
ATOM     24  C   UNL     1      -3.407  11.766  18.724  0.00  0.00    +0.000 A 
ATOM     25  C   UNL     1      -3.912  10.715  17.971  0.00  0.00    +0.000 A 
ATOM     26  F   UNL     1      -5.238  10.558  17.867  0.00  0.00    +0.000 F 
ATOM     27  C   UNL     1      -3.062   9.835  17.312  0.00  0.00    +0.000 A 
ATOM     28  C   UNL     1      -1.677  10.007  17.408  0.00  0.00    +0.000 A 
ENDBRANCH  21  22
ENDBRANCH  19  21
ENDBRANCH   9  19
BRANCH  10  29
ATOM     29  C   UNL     1       0.518   8.652  21.628  0.00  0.00    +0.000 C 
ATOM     30  N   UNL     1      -0.059   8.825  22.619  0.00  0.00    +0.000 NA
ENDBRANCH  10  29
TORSDOF 5
ENDMDL
MODEL 3
REMARK VINA RESULT:      -8.3      2.026      2.685
REMARK  Name = 
REMARK  6 active torsions:
REMARK  status: ('A' for Active; 'I' for Inactive)
REMARK    1  A    between atoms: C_1  and  C_2
REMARK    2  A    between atoms: C_4  and  C_5
REMARK    3  A    between atoms: C_13  and  N_14
REMARK    4  A    between atoms: N_14  and  C_15
REMARK    5  A    between atoms: C_15  and  C_16
REMARK    6  A    between atoms: C_23  and  C_24
REMARK                            x       y       z     vdW  Elec       q    Type
REMARK                         _______ _______ _______ _____ _____    ______ ____
ROOT
ATOM      1  C   UNL     1       4.305   4.005  18.597  0.00  0.00    +0.000 C 
ATOM      2  O   UNL     1       4.113   2.869  19.026  0.00  0.00    +0.000 OA
ATOM      3  N   UNL     1       3.508   5.090  18.997  0.00  0.00    +0.000 N 
ATOM      4  C   UNL     1       2.481   4.790  20.009  0.00  0.00    +0.000 C 
ATOM      5  C   UNL     1       2.022   6.023  20.803  0.00  0.00    +0.000 C 
ATOM      6  C   UNL     1       1.905   7.237  19.933  0.00  0.00    +0.000 A 
ATOM      7  C   UNL     1       2.447   7.259  18.671  0.00  0.00    +0.000 A 
ATOM      8  S   UNL     1       2.206   8.747  17.887  0.00  0.00    +0.000 S 
ATOM      9  C   UNL     1       1.436   9.442  19.267  0.00  0.00    +0.000 A 
ATOM     10  C   UNL     1       1.288   8.485  20.263  0.00  0.00    +0.000 A 
ATOM     11  C   UNL     1       3.157   6.125  18.007  0.00  0.00    +0.000 C 
ENDROOT
BRANCH   1  15
ATOM     12  C   UNL     1       7.208   4.730  14.511  0.00  0.00    +0.000 C 
ATOM     13  C   UNL     1       6.673   4.577  15.884  0.00  0.00    +0.000 A 
ATOM     14  C   UNL     1       5.321   4.505  16.277  0.00  0.00    +0.000 A 
ATOM     15  C   UNL     1       5.345   4.256  17.635  0.00  0.00    +0.000 A 
ATOM     16  N   UNL     1       6.665   4.352  17.984  0.00  0.00    +0.000 N 
ATOM     17  N   UNL     1       7.496   4.472  16.933  0.00  0.00    +0.000 NA
ATOM     18  H   UNL     1       7.059   4.290  18.918  0.00  0.00    +0.000 HD
ENDBRANCH   1  15
BRANCH   9  19
ATOM     19  N   UNL     1       1.068  10.752  19.200  0.00  0.00    +0.000 N 
ATOM     20  H   UNL     1       1.693  11.462  19.568  0.00  0.00    +0.000 HD
BRANCH  19  21
ATOM     21  C   UNL     1      -0.293  11.198  18.959  0.00  0.00    +0.000 C 
BRANCH  21  22
ATOM     22  C   UNL     1      -0.889  11.955  20.127  0.00  0.00    +0.000 A 
ATOM     23  C   UNL     1      -2.265  12.249  20.097  0.00  0.00    +0.000 A 
ATOM     24  C   UNL     1      -2.893  12.849  21.189  0.00  0.00    +0.000 A 
ATOM     25  C   UNL     1      -2.149  13.152  22.321  0.00  0.00    +0.000 A 
ATOM     26  F   UNL     1      -2.754  13.721  23.372  0.00  0.00    +0.000 F 
ATOM     27  C   UNL     1      -0.792  12.858  22.385  0.00  0.00    +0.000 A 
ATOM     28  C   UNL     1      -0.163  12.250  21.293  0.00  0.00    +0.000 A 
ENDBRANCH  21  22
ENDBRANCH  19  21
ENDBRANCH   9  19
BRANCH  10  29
ATOM     29  C   UNL     1       0.592   8.696  21.497  0.00  0.00    +0.000 C 
ATOM     30  N   UNL     1       0.012   8.873  22.486  0.00  0.00    +0.000 NA
ENDBRANCH  10  29
TORSDOF 5
ENDMDL
MODEL 4
REMARK VINA RESULT:      -8.1      2.469      3.007
REMARK  Name = 
REMARK  6 active torsions:
REMARK  status: ('A' for Active; 'I' for Inactive)
REMARK    1  A    between atoms: C_1  and  C_2
REMARK    2  A    between atoms: C_4  and  C_5
REMARK    3  A    between atoms: C_13  and  N_14
REMARK    4  A    between atoms: N_14  and  C_15
REMARK    5  A    between atoms: C_15  and  C_16
REMARK    6  A    between atoms: C_23  and  C_24
REMARK                            x       y       z     vdW  Elec       q    Type
REMARK                         _______ _______ _______ _____ _____    ______ ____
ROOT
ATOM      1  C   UNL     1       4.305   4.012  18.611  0.00  0.00    +0.000 C 
ATOM      2  O   UNL     1       4.105   2.882  19.053  0.00  0.00    +0.000 OA
ATOM      3  N   UNL     1       3.517   5.107  19.000  0.00  0.00    +0.000 N 
ATOM      4  C   UNL     1       2.487   4.827  20.015  0.00  0.00    +0.000 C 
ATOM      5  C   UNL     1       2.038   6.071  20.796  0.00  0.00    +0.000 C 
ATOM      6  C   UNL     1       1.931   7.276  19.913  0.00  0.00    +0.000 A 
ATOM      7  C   UNL     1       2.473   7.281  18.651  0.00  0.00    +0.000 A 
ATOM      8  S   UNL     1       2.243   8.762  17.850  0.00  0.00    +0.000 S 
ATOM      9  C   UNL     1       1.479   9.477  19.222  0.00  0.00    +0.000 A 
ATOM     10  C   UNL     1       1.323   8.533  20.229  0.00  0.00    +0.000 A 
ATOM     11  C   UNL     1       3.174   6.135  17.999  0.00  0.00    +0.000 C 
ENDROOT
BRANCH   1  15
ATOM     12  C   UNL     1       7.213   4.678  14.518  0.00  0.00    +0.000 C 
ATOM     13  C   UNL     1       6.677   4.540  15.893  0.00  0.00    +0.000 A 
ATOM     14  C   UNL     1       5.325   4.486  16.288  0.00  0.00    +0.000 A 
ATOM     15  C   UNL     1       5.348   4.245  17.647  0.00  0.00    +0.000 A 
ATOM     16  N   UNL     1       6.669   4.327  17.994  0.00  0.00    +0.000 N 
ATOM     17  N   UNL     1       7.500   4.430  16.942  0.00  0.00    +0.000 NA
ATOM     18  H   UNL     1       7.063   4.266  18.929  0.00  0.00    +0.000 HD
ENDBRANCH   1  15
BRANCH   9  19
ATOM     19  N   UNL     1       1.120  10.790  19.141  0.00  0.00    +0.000 N 
ATOM     20  H   UNL     1       0.157  11.053  19.326  0.00  0.00    +0.000 HD
BRANCH  19  21
ATOM     21  C   UNL     1       1.918  11.806  18.478  0.00  0.00    +0.000 C 
BRANCH  21  22
ATOM     22  C   UNL     1       1.332  13.198  18.599  0.00  0.00    +0.000 A 
ATOM     23  C   UNL     1      -0.026  13.320  18.949  0.00  0.00    +0.000 A 
ATOM     24  C   UNL     1      -0.595  14.573  19.180  0.00  0.00    +0.000 A 
ATOM     25  C   UNL     1       0.193  15.711  19.070  0.00  0.00    +0.000 A 
ATOM     26  F   UNL     1      -0.352  16.913  19.299  0.00  0.00    +0.000 F 
ATOM     27  C   UNL     1       1.540  15.618  18.742  0.00  0.00    +0.000 A 
ATOM     28  C   UNL     1       2.114  14.362  18.518  0.00  0.00    +0.000 A 
ENDBRANCH  21  22
ENDBRANCH  19  21
ENDBRANCH   9  19
BRANCH  10  29
ATOM     29  C   UNL     1       0.628   8.762  21.460  0.00  0.00    +0.000 C 
ATOM     30  N   UNL     1       0.049   8.952  22.447  0.00  0.00    +0.000 NA
ENDBRANCH  10  29
TORSDOF 5
ENDMDL
MODEL 5
REMARK VINA RESULT:      -8.0      1.010      1.545
REMARK  Name = 
REMARK  6 active torsions:
REMARK  status: ('A' for Active; 'I' for Inactive)
REMARK    1  A    between atoms: C_1  and  C_2
REMARK    2  A    between atoms: C_4  and  C_5
REMARK    3  A    between atoms: C_13  and  N_14
REMARK    4  A    between atoms: N_14  and  C_15
REMARK    5  A    between atoms: C_15  and  C_16
REMARK    6  A    between atoms: C_23  and  C_24
REMARK                            x       y       z     vdW  Elec       q    Type
REMARK                         _______ _______ _______ _____ _____    ______ ____
ROOT
ATOM      1  C   UNL     1       4.314   4.062  18.678  0.00  0.00    +0.000 C 
ATOM      2  O   UNL     1       4.129   2.936  19.135  0.00  0.00    +0.000 OA
ATOM      3  N   UNL     1       3.508   5.151  19.049  0.00  0.00    +0.000 N 
ATOM      4  C   UNL     1       2.481   4.870  20.066  0.00  0.00    +0.000 C 
ATOM      5  C   UNL     1       2.012   6.119  20.828  0.00  0.00    +0.000 C 
ATOM      6  C   UNL     1       1.889   7.310  19.928  0.00  0.00    +0.000 A 
ATOM      7  C   UNL     1       2.433   7.305  18.667  0.00  0.00    +0.000 A 
ATOM      8  S   UNL     1       2.183   8.770  17.844  0.00  0.00    +0.000 S 
ATOM      9  C   UNL     1       1.406   9.494  19.205  0.00  0.00    +0.000 A 
ATOM     10  C   UNL     1       1.263   8.562  20.225  0.00  0.00    +0.000 A 
ATOM     11  C   UNL     1       3.152   6.159  18.032  0.00  0.00    +0.000 C 
ENDROOT
BRANCH   1  15
ATOM     12  C   UNL     1       7.211   4.747  14.580  0.00  0.00    +0.000 C 
ATOM     13  C   UNL     1       6.679   4.598  15.955  0.00  0.00    +0.000 A 
ATOM     14  C   UNL     1       5.328   4.553  16.355  0.00  0.00    +0.000 A 
ATOM     15  C   UNL     1       5.354   4.296  17.711  0.00  0.00    +0.000 A 
ATOM     16  N   UNL     1       6.677   4.363  18.054  0.00  0.00    +0.000 N 
ATOM     17  N   UNL     1       7.505   4.470  16.999  0.00  0.00    +0.000 NA
ATOM     18  H   UNL     1       7.074   4.288  18.986  0.00  0.00    +0.000 HD
ENDBRANCH   1  15
BRANCH   9  19
ATOM     19  N   UNL     1       1.029  10.799  19.104  0.00  0.00    +0.000 N 
ATOM     20  H   UNL     1       1.476  11.393  18.412  0.00  0.00    +0.000 HD
BRANCH  19  21
ATOM     21  C   UNL     1       0.286  11.508  20.131  0.00  0.00    +0.000 C 
BRANCH  21  22
ATOM     22  C   UNL     1      -1.187  11.652  19.811  0.00  0.00    +0.000 A 
ATOM     23  C   UNL     1      -1.991  12.395  20.696  0.00  0.00    +0.000 A 
ATOM     24  C   UNL     1      -3.330  12.653  20.401  0.00  0.00    +0.000 A 
ATOM     25  C   UNL     1      -3.871  12.177  19.215  0.00  0.00    +0.000 A 
ATOM     26  F   UNL     1      -5.155  12.432  18.928  0.00  0.00    +0.000 F 
ATOM     27  C   UNL     1      -3.096  11.455  18.315  0.00  0.00    +0.000 A 
ATOM     28  C   UNL     1      -1.752  11.202  18.606  0.00  0.00    +0.000 A 
ENDBRANCH  21  22
ENDBRANCH  19  21
ENDBRANCH   9  19
BRANCH  10  29
ATOM     29  C   UNL     1       0.562   8.798  21.452  0.00  0.00    +0.000 C 
ATOM     30  N   UNL     1       0.001   9.009  22.444  0.00  0.00    +0.000 NA
ENDBRANCH  10  29
TORSDOF 5
ENDMDL
MODEL 6
REMARK VINA RESULT:      -8.0      2.811      3.398
REMARK  Name = 
REMARK  6 active torsions:
REMARK  status: ('A' for Active; 'I' for Inactive)
REMARK    1  A    between atoms: C_1  and  C_2
REMARK    2  A    between atoms: C_4  and  C_5
REMARK    3  A    between atoms: C_13  and  N_14
REMARK    4  A    between atoms: N_14  and  C_15
REMARK    5  A    between atoms: C_15  and  C_16
REMARK    6  A    between atoms: C_23  and  C_24
REMARK                            x       y       z     vdW  Elec       q    Type
REMARK                         _______ _______ _______ _____ _____    ______ ____
ROOT
ATOM      1  C   UNL     1       4.316   4.052  18.638  0.00  0.00    +0.000 C 
ATOM      2  O   UNL     1       4.131   2.922  19.086  0.00  0.00    +0.000 OA
ATOM      3  N   UNL     1       3.510   5.138  19.016  0.00  0.00    +0.000 N 
ATOM      4  C   UNL     1       2.482   4.849  20.031  0.00  0.00    +0.000 C 
ATOM      5  C   UNL     1       2.012   6.092  20.802  0.00  0.00    +0.000 C 
ATOM      6  C   UNL     1       1.889   7.289  19.910  0.00  0.00    +0.000 A 
ATOM      7  C   UNL     1       2.434   7.294  18.649  0.00  0.00    +0.000 A 
ATOM      8  S   UNL     1       2.184   8.765  17.838  0.00  0.00    +0.000 S 
ATOM      9  C   UNL     1       1.405   9.479  19.203  0.00  0.00    +0.000 A 
ATOM     10  C   UNL     1       1.262   8.539  20.216  0.00  0.00    +0.000 A 
ATOM     11  C   UNL     1       3.154   6.153  18.007  0.00  0.00    +0.000 C 
ENDROOT
BRANCH   1  15
ATOM     12  C   UNL     1       7.216   4.766  14.547  0.00  0.00    +0.000 C 
ATOM     13  C   UNL     1       6.683   4.609  15.921  0.00  0.00    +0.000 A 
ATOM     14  C   UNL     1       5.332   4.558  16.319  0.00  0.00    +0.000 A 
ATOM     15  C   UNL     1       5.357   4.294  17.674  0.00  0.00    +0.000 A 
ATOM     16  N   UNL     1       6.679   4.361  18.018  0.00  0.00    +0.000 N 
ATOM     17  N   UNL     1       7.508   4.477  16.966  0.00  0.00    +0.000 NA
ATOM     18  H   UNL     1       7.076   4.282  18.951  0.00  0.00    +0.000 HD
ENDBRANCH   1  15
BRANCH   9  19
ATOM     19  N   UNL     1       1.027  10.785  19.112  0.00  0.00    +0.000 N 
ATOM     20  H   UNL     1       0.835  11.182  18.198  0.00  0.00    +0.000 HD
BRANCH  19  21
ATOM     21  C   UNL     1       1.207  11.755  20.177  0.00  0.00    +0.000 C 
BRANCH  21  22
ATOM     22  C   UNL     1       1.697  13.100  19.684  0.00  0.00    +0.000 A 
ATOM     23  C   UNL     1       2.468  13.137  18.507  0.00  0.00    +0.000 A 
ATOM     24  C   UNL     1       2.857  14.353  17.945  0.00  0.00    +0.000 A 
ATOM     25  C   UNL     1       2.471  15.540  18.552  0.00  0.00    +0.000 A 
ATOM     26  F   UNL     1       2.839  16.707  18.008  0.00  0.00    +0.000 F 
ATOM     27  C   UNL     1       1.696  15.534  19.705  0.00  0.00    +0.000 A 
ATOM     28  C   UNL     1       1.299  14.315  20.266  0.00  0.00    +0.000 A 
ENDBRANCH  21  22
ENDBRANCH  19  21
ENDBRANCH   9  19
BRANCH  10  29
ATOM     29  C   UNL     1       0.560   8.766  21.444  0.00  0.00    +0.000 C 
ATOM     30  N   UNL     1      -0.007   8.969  22.435  0.00  0.00    +0.000 NA
ENDBRANCH  10  29
TORSDOF 5
ENDMDL
MODEL 7
REMARK VINA RESULT:      -7.9      3.718      5.244
REMARK  Name = 
REMARK  6 active torsions:
REMARK  status: ('A' for Active; 'I' for Inactive)
REMARK    1  A    between atoms: C_1  and  C_2
REMARK    2  A    between atoms: C_4  and  C_5
REMARK    3  A    between atoms: C_13  and  N_14
REMARK    4  A    between atoms: N_14  and  C_15
REMARK    5  A    between atoms: C_15  and  C_16
REMARK    6  A    between atoms: C_23  and  C_24
REMARK                            x       y       z     vdW  Elec       q    Type
REMARK                         _______ _______ _______ _____ _____    ______ ____
ROOT
ATOM      1  C   UNL     1       2.601   6.147  18.500  0.00  0.00    +0.000 C 
ATOM      2  O   UNL     1       3.404   5.982  17.584  0.00  0.00    +0.000 OA
ATOM      3  N   UNL     1       2.114   7.421  18.834  0.00  0.00    +0.000 N 
ATOM      4  C   UNL     1       2.572   8.527  17.976  0.00  0.00    +0.000 C 
ATOM      5  C   UNL     1       1.645   9.751  18.003  0.00  0.00    +0.000 C 
ATOM      6  C   UNL     1       1.114  10.021  19.378  0.00  0.00    +0.000 A 
ATOM      7  C   UNL     1       1.226   9.085  20.377  0.00  0.00    +0.000 A 
ATOM      8  S   UNL     1       0.535   9.609  21.838  0.00  0.00    +0.000 S 
ATOM      9  C   UNL     1      -0.020  11.086  21.139  0.00  0.00    +0.000 A 
ATOM     10  C   UNL     1       0.427  11.193  19.828  0.00  0.00    +0.000 A 
ATOM     11  C   UNL     1       1.892   7.754  20.254  0.00  0.00    +0.000 C 
ENDROOT
BRANCH   1  15
ATOM     12  C   UNL     1       1.797   2.500  21.921  0.00  0.00    +0.000 C 
ATOM     13  C   UNL     1       1.755   3.403  20.747  0.00  0.00    +0.000 A 
ATOM     14  C   UNL     1       2.425   4.632  20.583  0.00  0.00    +0.000 A 
ATOM     15  C   UNL     1       2.154   5.030  19.289  0.00  0.00    +0.000 A 
ATOM     16  N   UNL     1       1.237   4.123  18.830  0.00  0.00    +0.000 N 
ATOM     17  N   UNL     1       1.035   3.087  19.664  0.00  0.00    +0.000 NA
ATOM     18  H   UNL     1       0.759   4.134  17.934  0.00  0.00    +0.000 HD
ENDBRANCH   1  15
BRANCH   9  19
ATOM     19  N   UNL     1      -0.757  11.924  21.921  0.00  0.00    +0.000 N 
ATOM     20  H   UNL     1      -0.514  12.909  21.959  0.00  0.00    +0.000 HD
BRANCH  19  21
ATOM     21  C   UNL     1      -1.650  11.473  22.973  0.00  0.00    +0.000 C 
BRANCH  21  22
ATOM     22  C   UNL     1      -2.971  12.212  22.995  0.00  0.00    +0.000 A 
ATOM     23  C   UNL     1      -3.489  12.685  21.774  0.00  0.00    +0.000 A 
ATOM     24  C   UNL     1      -4.750  13.279  21.714  0.00  0.00    +0.000 A 
ATOM     25  C   UNL     1      -5.505  13.396  22.873  0.00  0.00    +0.000 A 
ATOM     26  F   UNL     1      -6.719  13.959  22.813  0.00  0.00    +0.000 F 
ATOM     27  C   UNL     1      -5.025  12.924  24.089  0.00  0.00    +0.000 A 
ATOM     28  C   UNL     1      -3.764  12.322  24.149  0.00  0.00    +0.000 A 
ENDBRANCH  21  22
ENDBRANCH  19  21
ENDBRANCH   9  19
BRANCH  10  29
ATOM     29  C   UNL     1       0.241  12.342  18.995  0.00  0.00    +0.000 C 
ATOM     30  N   UNL     1       0.076  13.263  18.309  0.00  0.00    +0.000 NA
ENDBRANCH  10  29
TORSDOF 5
ENDMDL
MODEL 8
REMARK VINA RESULT:      -7.9      4.741      9.759
REMARK  Name = 
REMARK  6 active torsions:
REMARK  status: ('A' for Active; 'I' for Inactive)
REMARK    1  A    between atoms: C_1  and  C_2
REMARK    2  A    between atoms: C_4  and  C_5
REMARK    3  A    between atoms: C_13  and  N_14
REMARK    4  A    between atoms: N_14  and  C_15
REMARK    5  A    between atoms: C_15  and  C_16
REMARK    6  A    between atoms: C_23  and  C_24
REMARK                            x       y       z     vdW  Elec       q    Type
REMARK                         _______ _______ _______ _____ _____    ______ ____
ROOT
ATOM      1  C   UNL     1      -1.439  14.194  20.974  0.00  0.00    +0.000 C 
ATOM      2  O   UNL     1      -1.936  14.966  20.157  0.00  0.00    +0.000 OA
ATOM      3  N   UNL     1      -0.848  12.982  20.580  0.00  0.00    +0.000 N 
ATOM      4  C   UNL     1      -0.803  12.733  19.130  0.00  0.00    +0.000 C 
ATOM      5  C   UNL     1       0.284  11.731  18.710  0.00  0.00    +0.000 C 
ATOM      6  C   UNL     1       0.405  10.599  19.683  0.00  0.00    +0.000 A 
ATOM      7  C   UNL     1      -0.184  10.662  20.923  0.00  0.00    +0.000 A 
ATOM      8  S   UNL     1       0.109   9.271  21.853  0.00  0.00    +0.000 S 
ATOM      9  C   UNL     1       1.119   8.574  20.640  0.00  0.00    +0.000 A 
ATOM     10  C   UNL     1       1.127   9.375  19.506  0.00  0.00    +0.000 A 
ATOM     11  C   UNL     1      -1.016  11.791  21.435  0.00  0.00    +0.000 C 
ENDROOT
BRANCH   1  15
ATOM     12  C   UNL     1      -2.600  15.178  25.804  0.00  0.00    +0.000 C 
ATOM     13  C   UNL     1      -1.919  14.942  24.510  0.00  0.00    +0.000 A 
ATOM     14  C   UNL     1      -2.477  14.417  23.327  0.00  0.00    +0.000 A 
ATOM     15  C   UNL     1      -1.475  14.496  22.381  0.00  0.00    +0.000 A 
ATOM     16  N   UNL     1      -0.368  14.900  23.077  0.00  0.00    +0.000 N 
ATOM     17  N   UNL     1      -0.626  15.248  24.350  0.00  0.00    +0.000 NA
ATOM     18  H   UNL     1       0.577  15.006  22.719  0.00  0.00    +0.000 HD
ENDBRANCH   1  15
BRANCH   9  19
ATOM     19  N   UNL     1       1.723   7.384  20.919  0.00  0.00    +0.000 N 
ATOM     20  H   UNL     1       1.763   7.062  21.881  0.00  0.00    +0.000 HD
BRANCH  19  21
ATOM     21  C   UNL     1       2.619   6.698  20.005  0.00  0.00    +0.000 C 
BRANCH  21  22
ATOM     22  C   UNL     1       2.115   5.333  19.587  0.00  0.00    +0.000 A 
ATOM     23  C   UNL     1       1.446   4.548  20.545  0.00  0.00    +0.000 A 
ATOM     24  C   UNL     1       0.867   3.329  20.194  0.00  0.00    +0.000 A 
ATOM     25  C   UNL     1       0.946   2.890  18.879  0.00  0.00    +0.000 A 
ATOM     26  F   UNL     1       0.383   1.723  18.540  0.00  0.00    +0.000 F 
ATOM     27  C   UNL     1       1.586   3.652  17.909  0.00  0.00    +0.000 A 
ATOM     28  C   UNL     1       2.162   4.878  18.259  0.00  0.00    +0.000 A 
ENDBRANCH  21  22
ENDBRANCH  19  21
ENDBRANCH   9  19
BRANCH  10  29
ATOM     29  C   UNL     1       1.774   9.037  18.274  0.00  0.00    +0.000 C 
ATOM     30  N   UNL     1       2.307   8.781  17.276  0.00  0.00    +0.000 NA
ENDBRANCH  10  29
TORSDOF 5
ENDMDL
MODEL 9
REMARK VINA RESULT:      -7.9      2.942      3.597
REMARK  Name = 
REMARK  6 active torsions:
REMARK  status: ('A' for Active; 'I' for Inactive)
REMARK    1  A    between atoms: C_1  and  C_2
REMARK    2  A    between atoms: C_4  and  C_5
REMARK    3  A    between atoms: C_13  and  N_14
REMARK    4  A    between atoms: N_14  and  C_15
REMARK    5  A    between atoms: C_15  and  C_16
REMARK    6  A    between atoms: C_23  and  C_24
REMARK                            x       y       z     vdW  Elec       q    Type
REMARK                         _______ _______ _______ _____ _____    ______ ____
ROOT
ATOM      1  C   UNL     1       4.385   4.021  18.695  0.00  0.00    +0.000 C 
ATOM      2  O   UNL     1       4.225   2.899  19.171  0.00  0.00    +0.000 OA
ATOM      3  N   UNL     1       3.575   5.106  19.070  0.00  0.00    +0.000 N 
ATOM      4  C   UNL     1       2.575   4.827  20.114  0.00  0.00    +0.000 C 
ATOM      5  C   UNL     1       2.108   6.080  20.870  0.00  0.00    +0.000 C 
ATOM      6  C   UNL     1       1.950   7.257  19.957  0.00  0.00    +0.000 A 
ATOM      7  C   UNL     1       2.466   7.241  18.684  0.00  0.00    +0.000 A 
ATOM      8  S   UNL     1       2.179   8.692  17.848  0.00  0.00    +0.000 S 
ATOM      9  C   UNL     1       1.424   9.425  19.216  0.00  0.00    +0.000 A 
ATOM     10  C   UNL     1       1.315   8.506  20.252  0.00  0.00    +0.000 A 
ATOM     11  C   UNL     1       3.184   6.096  18.049  0.00  0.00    +0.000 C 
ENDROOT
BRANCH   1  15
ATOM     12  C   UNL     1       7.179   4.693  14.524  0.00  0.00    +0.000 C 
ATOM     13  C   UNL     1       6.681   4.552  15.912  0.00  0.00    +0.000 A 
ATOM     14  C   UNL     1       5.340   4.500  16.345  0.00  0.00    +0.000 A 
ATOM     15  C   UNL     1       5.401   4.255  17.702  0.00  0.00    +0.000 A 
ATOM     16  N   UNL     1       6.731   4.334  18.013  0.00  0.00    +0.000 N 
ATOM     17  N   UNL     1       7.533   4.438  16.938  0.00  0.00    +0.000 NA
ATOM     18  H   UNL     1       7.151   4.269  18.936  0.00  0.00    +0.000 HD
ENDBRANCH   1  15
BRANCH   9  19
ATOM     19  N   UNL     1       1.029  10.724  19.107  0.00  0.00    +0.000 N 
ATOM     20  H   UNL     1       0.050  10.958  19.242  0.00  0.00    +0.000 HD
BRANCH  19  21
ATOM     21  C   UNL     1       1.825  11.762  18.475  0.00  0.00    +0.000 C 
BRANCH  21  22
ATOM     22  C   UNL     1       1.776  13.084  19.212  0.00  0.00    +0.000 A 
ATOM     23  C   UNL     1       1.450  13.072  20.581  0.00  0.00    +0.000 A 
ATOM     24  C   UNL     1       1.493  14.243  21.337  0.00  0.00    +0.000 A 
ATOM     25  C   UNL     1       1.869  15.434  20.730  0.00  0.00    +0.000 A 
ATOM     26  F   UNL     1       1.917  16.557  21.459  0.00  0.00    +0.000 F 
ATOM     27  C   UNL     1       2.212  15.472  19.384  0.00  0.00    +0.000 A 
ATOM     28  C   UNL     1       2.176  14.297  18.626  0.00  0.00    +0.000 A 
ENDBRANCH  21  22
ENDBRANCH  19  21
ENDBRANCH   9  19
BRANCH  10  29
ATOM     29  C   UNL     1       0.640   8.750  21.491  0.00  0.00    +0.000 C 
ATOM     30  N   UNL     1       0.078   8.937  22.488  0.00  0.00    +0.000 NA
ENDBRANCH  10  29
TORSDOF 5
ENDMDL
