MODEL 1
REMARK VINA RESULT:      -6.8      0.000      0.000
REMARK  Name = 
REMARK  7 active torsions:
REMARK  status: ('A' for Active; 'I' for Inactive)
REMARK    1  A    between atoms: C_2  and  O_3
REMARK    2  A    between atoms: C_2  and  C_4
REMARK    3  A    between atoms: C_5  and  C_6
REMARK    4  A    between atoms: N_8  and  C_9
REMARK    5  A    between atoms: C_9  and  C_10
REMARK    6  A    between atoms: C_10  and  C_11
REMARK    7  A    between atoms: C_14  and  O_15
REMARK                            x       y       z     vdW  Elec       q    Type
REMARK                         _______ _______ _______ _____ _____    ______ ____
ROOT
ATOM      1  C   UNL     1       6.853   5.019  15.658  0.00  0.00    +0.000 C 
ATOM      2  O   UNL     1       7.530   5.968  16.036  0.00  0.00    +0.000 OA
ATOM      3  N   UNL     1       6.199   4.164  16.509  0.00  0.00    +0.000 N 
ATOM      4  H   UNL     1       5.637   3.405  16.146  0.00  0.00    +0.000 HD
ENDROOT
BRANCH   1   6
ATOM      5  C   UNL     1       5.920   3.657  13.901  0.00  0.00    +0.000 C 
ATOM      6  C   UNL     1       6.685   4.713  14.218  0.00  0.00    +0.000 C 
BRANCH   5   8
ATOM      7  O   UNL     1       4.683   3.514  11.871  0.00  0.00    +0.000 OA
ATOM      8  C   UNL     1       5.706   3.289  12.494  0.00  0.00    +0.000 C 
BRANCH   8   9
ATOM      9  O   UNL     1       6.779   2.670  11.966  0.00  0.00    +0.000 OA
ATOM     10  H   UNL     1       6.743   1.695  11.947  0.00  0.00    +0.000 HD
ENDBRANCH   8   9
ENDBRANCH   5   8
ENDBRANCH   1   6
BRANCH   3  11
ATOM     11  C   UNL     1       6.287   4.382  17.946  0.00  0.00    +0.000 C 
BRANCH  11  12
ATOM     12  C   UNL     1       5.073   5.100  18.535  0.00  0.00    +0.000 C 
BRANCH  12  13
ATOM     13  C   UNL     1       3.827   4.249  18.457  0.00  0.00    +0.000 A 
ATOM     14  C   UNL     1       2.637   4.770  17.926  0.00  0.00    +0.000 A 
ATOM     15  C   UNL     1       1.471   3.996  17.894  0.00  0.00    +0.000 A 
ATOM     16  C   UNL     1       1.495   2.701  18.396  0.00  0.00    +0.000 A 
ATOM     17  C   UNL     1       2.665   2.163  18.917  0.00  0.00    +0.000 A 
ATOM     18  C   UNL     1       3.829   2.936  18.952  0.00  0.00    +0.000 A 
BRANCH  16  19
ATOM     19  O   UNL     1       0.379   1.918  18.400  0.00  0.00    +0.000 OA
ATOM     20  H   UNL     1      -0.402   2.490  18.476  0.00  0.00    +0.000 HD
ENDBRANCH  16  19
ENDBRANCH  12  13
ENDBRANCH  11  12
ENDBRANCH   3  11
TORSDOF 7
ENDMDL
MODEL 2
REMARK VINA RESULT:      -6.6      1.724      2.058
REMARK  Name = 
REMARK  7 active torsions:
REMARK  status: ('A' for Active; 'I' for Inactive)
REMARK    1  A    between atoms: C_2  and  O_3
REMARK    2  A    between atoms: C_2  and  C_4
REMARK    3  A    between atoms: C_5  and  C_6
REMARK    4  A    between atoms: N_8  and  C_9
REMARK    5  A    between atoms: C_9  and  C_10
REMARK    6  A    between atoms: C_10  and  C_11
REMARK    7  A    between atoms: C_14  and  O_15
REMARK                            x       y       z     vdW  Elec       q    Type
REMARK                         _______ _______ _______ _____ _____    ______ ____
ROOT
ATOM      1  C   UNL     1       5.815   4.668  15.938  0.00  0.00    +0.000 C 
ATOM      2  O   UNL     1       5.310   3.728  16.540  0.00  0.00    +0.000 OA
ATOM      3  N   UNL     1       5.788   5.964  16.390  0.00  0.00    +0.000 N 
ATOM      4  H   UNL     1       6.235   6.703  15.864  0.00  0.00    +0.000 HD
ENDROOT
BRANCH   1   6
ATOM      5  C   UNL     1       5.862   3.768  13.702  0.00  0.00    +0.000 C 
ATOM      6  C   UNL     1       6.507   4.475  14.643  0.00  0.00    +0.000 C 
BRANCH   5   8
ATOM      7  O   UNL     1       7.235   4.316  11.835  0.00  0.00    +0.000 OA
ATOM      8  C   UNL     1       6.483   3.535  12.390  0.00  0.00    +0.000 C 
BRANCH   8   9
ATOM      9  O   UNL     1       6.124   2.347  11.867  0.00  0.00    +0.000 OA
ATOM     10  H   UNL     1       5.985   1.623  12.507  0.00  0.00    +0.000 HD
ENDBRANCH   8   9
ENDBRANCH   5   8
ENDBRANCH   1   6
BRANCH   3  11
ATOM     11  C   UNL     1       5.142   6.263  17.660  0.00  0.00    +0.000 C 
BRANCH  11  12
ATOM     12  C   UNL     1       3.661   6.617  17.528  0.00  0.00    +0.000 C 
BRANCH  12  13
ATOM     13  C   UNL     1       2.791   5.708  18.365  0.00  0.00    +0.000 A 
ATOM     14  C   UNL     1       2.678   5.904  19.750  0.00  0.00    +0.000 A 
ATOM     15  C   UNL     1       1.908   5.036  20.532  0.00  0.00    +0.000 A 
ATOM     16  C   UNL     1       1.252   3.969  19.929  0.00  0.00    +0.000 A 
ATOM     17  C   UNL     1       1.345   3.763  18.559  0.00  0.00    +0.000 A 
ATOM     18  C   UNL     1       2.116   4.628  17.777  0.00  0.00    +0.000 A 
BRANCH  16  19
ATOM     19  O   UNL     1       0.505   3.090  20.655  0.00  0.00    +0.000 OA
ATOM     20  H   UNL     1      -0.065   3.592  21.260  0.00  0.00    +0.000 HD
ENDBRANCH  16  19
ENDBRANCH  12  13
ENDBRANCH  11  12
ENDBRANCH   3  11
TORSDOF 7
ENDMDL
MODEL 3
REMARK VINA RESULT:      -6.6      0.306      1.208
REMARK  Name = 
REMARK  7 active torsions:
REMARK  status: ('A' for Active; 'I' for Inactive)
REMARK    1  A    between atoms: C_2  and  O_3
REMARK    2  A    between atoms: C_2  and  C_4
REMARK    3  A    between atoms: C_5  and  C_6
REMARK    4  A    between atoms: N_8  and  C_9
REMARK    5  A    between atoms: C_9  and  C_10
REMARK    6  A    between atoms: C_10  and  C_11
REMARK    7  A    between atoms: C_14  and  O_15
REMARK                            x       y       z     vdW  Elec       q    Type
REMARK                         _______ _______ _______ _____ _____    ______ ____
ROOT
ATOM      1  C   UNL     1       6.624   4.998  15.621  0.00  0.00    +0.000 C 
ATOM      2  O   UNL     1       6.907   6.173  15.822  0.00  0.00    +0.000 OA
ATOM      3  N   UNL     1       6.246   4.127  16.612  0.00  0.00    +0.000 N 
ATOM      4  H   UNL     1       6.004   3.169  16.392  0.00  0.00    +0.000 HD
ENDROOT
BRANCH   1   6
ATOM      5  C   UNL     1       5.515   3.967  13.745  0.00  0.00    +0.000 C 
ATOM      6  C   UNL     1       6.671   4.412  14.261  0.00  0.00    +0.000 C 
BRANCH   5   8
ATOM      7  O   UNL     1       4.552   3.489  11.620  0.00  0.00    +0.000 OA
ATOM      8  C   UNL     1       5.480   3.373  12.401  0.00  0.00    +0.000 C 
BRANCH   8   9
ATOM      9  O   UNL     1       6.603   2.681  12.127  0.00  0.00    +0.000 OA
ATOM     10  H   UNL     1       6.525   2.000  11.433  0.00  0.00    +0.000 HD
ENDBRANCH   8   9
ENDBRANCH   5   8
ENDBRANCH   1   6
BRANCH   3  11
ATOM     11  C   UNL     1       6.155   4.603  17.984  0.00  0.00    +0.000 C 
BRANCH  11  12
ATOM     12  C   UNL     1       4.868   5.370  18.286  0.00  0.00    +0.000 C 
BRANCH  12  13
ATOM     13  C   UNL     1       3.675   4.446  18.374  0.00  0.00    +0.000 A 
ATOM     14  C   UNL     1       3.807   3.156  18.912  0.00  0.00    +0.000 A 
ATOM     15  C   UNL     1       2.712   2.286  18.954  0.00  0.00    +0.000 A 
ATOM     16  C   UNL     1       1.484   2.705  18.456  0.00  0.00    +0.000 A 
ATOM     17  C   UNL     1       1.331   3.980  17.928  0.00  0.00    +0.000 A 
ATOM     18  C   UNL     1       2.424   4.849  17.883  0.00  0.00    +0.000 A 
BRANCH  16  19
ATOM     19  O   UNL     1       0.396   1.884  18.462  0.00  0.00    +0.000 OA
ATOM     20  H   UNL     1       0.148   1.688  17.544  0.00  0.00    +0.000 HD
ENDBRANCH  16  19
ENDBRANCH  12  13
ENDBRANCH  11  12
ENDBRANCH   3  11
TORSDOF 7
ENDMDL
MODEL 4
REMARK VINA RESULT:      -6.5      0.921      1.705
REMARK  Name = 
REMARK  7 active torsions:
REMARK  status: ('A' for Active; 'I' for Inactive)
REMARK    1  A    between atoms: C_2  and  O_3
REMARK    2  A    between atoms: C_2  and  C_4
REMARK    3  A    between atoms: C_5  and  C_6
REMARK    4  A    between atoms: N_8  and  C_9
REMARK    5  A    between atoms: C_9  and  C_10
REMARK    6  A    between atoms: C_10  and  C_11
REMARK    7  A    between atoms: C_14  and  O_15
REMARK                            x       y       z     vdW  Elec       q    Type
REMARK                         _______ _______ _______ _____ _____    ______ ____
ROOT
ATOM      1  C   UNL     1       6.421   4.835  14.833  0.00  0.00    +0.000 C 
ATOM      2  O   UNL     1       7.458   5.366  15.213  0.00  0.00    +0.000 OA
ATOM      3  N   UNL     1       5.205   5.016  15.444  0.00  0.00    +0.000 N 
ATOM      4  H   UNL     1       4.374   4.568  15.081  0.00  0.00    +0.000 HD
ENDROOT
BRANCH   1   6
ATOM      5  C   UNL     1       5.223   3.769  13.033  0.00  0.00    +0.000 C 
ATOM      6  C   UNL     1       6.399   3.933  13.659  0.00  0.00    +0.000 C 
BRANCH   5   8
ATOM      7  O   UNL     1       5.938   2.035  11.565  0.00  0.00    +0.000 OA
ATOM      8  C   UNL     1       5.121   2.890  11.859  0.00  0.00    +0.000 C 
BRANCH   8   9
ATOM      9  O   UNL     1       4.011   3.138  11.139  0.00  0.00    +0.000 OA
ATOM     10  H   UNL     1       3.196   3.296  11.652  0.00  0.00    +0.000 HD
ENDBRANCH   8   9
ENDBRANCH   5   8
ENDBRANCH   1   6
BRANCH   3  11
ATOM     11  C   UNL     1       5.112   5.892  16.602  0.00  0.00    +0.000 C 
BRANCH  11  12
ATOM     12  C   UNL     1       5.101   5.149  17.937  0.00  0.00    +0.000 C 
BRANCH  12  13
ATOM     13  C   UNL     1       3.864   4.294  18.091  0.00  0.00    +0.000 A 
ATOM     14  C   UNL     1       3.973   2.912  18.314  0.00  0.00    +0.000 A 
ATOM     15  C   UNL     1       2.829   2.113  18.413  0.00  0.00    +0.000 A 
ATOM     16  C   UNL     1       1.573   2.696  18.286  0.00  0.00    +0.000 A 
ATOM     17  C   UNL     1       1.444   4.062  18.074  0.00  0.00    +0.000 A 
ATOM     18  C   UNL     1       2.586   4.861  17.973  0.00  0.00    +0.000 A 
BRANCH  16  19
ATOM     19  O   UNL     1       0.432   1.954  18.360  0.00  0.00    +0.000 OA
ATOM     20  H   UNL     1       0.189   1.668  17.464  0.00  0.00    +0.000 HD
ENDBRANCH  16  19
ENDBRANCH  12  13
ENDBRANCH  11  12
ENDBRANCH   3  11
TORSDOF 7
ENDMDL
MODEL 5
REMARK VINA RESULT:      -6.5      1.683      2.163
REMARK  Name = 
REMARK  7 active torsions:
REMARK  status: ('A' for Active; 'I' for Inactive)
REMARK    1  A    between atoms: C_2  and  O_3
REMARK    2  A    between atoms: C_2  and  C_4
REMARK    3  A    between atoms: C_5  and  C_6
REMARK    4  A    between atoms: N_8  and  C_9
REMARK    5  A    between atoms: C_9  and  C_10
REMARK    6  A    between atoms: C_10  and  C_11
REMARK    7  A    between atoms: C_14  and  O_15
REMARK                            x       y       z     vdW  Elec       q    Type
REMARK                         _______ _______ _______ _____ _____    ______ ____
ROOT
ATOM      1  C   UNL     1       6.204   5.094  15.736  0.00  0.00    +0.000 C 
ATOM      2  O   UNL     1       6.289   6.222  16.205  0.00  0.00    +0.000 OA
ATOM      3  N   UNL     1       5.659   4.029  16.410  0.00  0.00    +0.000 N 
ATOM      4  H   UNL     1       5.596   3.119  15.971  0.00  0.00    +0.000 HD
ENDROOT
BRANCH   1   6
ATOM      5  C   UNL     1       6.056   3.818  13.696  0.00  0.00    +0.000 C 
ATOM      6  C   UNL     1       6.697   4.782  14.374  0.00  0.00    +0.000 C 
BRANCH   5   8
ATOM      7  O   UNL     1       7.242   4.117  11.653  0.00  0.00    +0.000 OA
ATOM      8  C   UNL     1       6.485   3.452  12.339  0.00  0.00    +0.000 C 
BRANCH   8   9
ATOM      9  O   UNL     1       5.943   2.288  11.935  0.00  0.00    +0.000 OA
ATOM     10  H   UNL     1       5.019   2.129  12.208  0.00  0.00    +0.000 HD
ENDBRANCH   8   9
ENDBRANCH   5   8
ENDBRANCH   1   6
BRANCH   3  11
ATOM     11  C   UNL     1       5.134   4.227  17.752  0.00  0.00    +0.000 C 
BRANCH  11  12
ATOM     12  C   UNL     1       3.633   4.510  17.790  0.00  0.00    +0.000 C 
BRANCH  12  13
ATOM     13  C   UNL     1       2.995   3.981  19.054  0.00  0.00    +0.000 A 
ATOM     14  C   UNL     1       3.688   3.085  19.884  0.00  0.00    +0.000 A 
ATOM     15  C   UNL     1       3.082   2.562  21.031  0.00  0.00    +0.000 A 
ATOM     16  C   UNL     1       1.780   2.933  21.348  0.00  0.00    +0.000 A 
ATOM     17  C   UNL     1       1.081   3.825  20.546  0.00  0.00    +0.000 A 
ATOM     18  C   UNL     1       1.685   4.347  19.398  0.00  0.00    +0.000 A 
BRANCH  16  19
ATOM     19  O   UNL     1       1.146   2.435  22.447  0.00  0.00    +0.000 OA
ATOM     20  H   UNL     1       0.254   2.817  22.492  0.00  0.00    +0.000 HD
ENDBRANCH  16  19
ENDBRANCH  12  13
ENDBRANCH  11  12
ENDBRANCH   3  11
TORSDOF 7
ENDMDL
MODEL 6
REMARK VINA RESULT:      -6.5      1.050      1.203
REMARK  Name = 
REMARK  7 active torsions:
REMARK  status: ('A' for Active; 'I' for Inactive)
REMARK    1  A    between atoms: C_2  and  O_3
REMARK    2  A    between atoms: C_2  and  C_4
REMARK    3  A    between atoms: C_5  and  C_6
REMARK    4  A    between atoms: N_8  and  C_9
REMARK    5  A    between atoms: C_9  and  C_10
REMARK    6  A    between atoms: C_10  and  C_11
REMARK    7  A    between atoms: C_14  and  O_15
REMARK                            x       y       z     vdW  Elec       q    Type
REMARK                         _______ _______ _______ _____ _____    ______ ____
ROOT
ATOM      1  C   UNL     1       6.469   4.658  15.500  0.00  0.00    +0.000 C 
ATOM      2  O   UNL     1       7.538   4.798  16.081  0.00  0.00    +0.000 OA
ATOM      3  N   UNL     1       5.334   5.364  15.812  0.00  0.00    +0.000 N 
ATOM      4  H   UNL     1       4.479   5.224  15.289  0.00  0.00    +0.000 HD
ENDROOT
BRANCH   1   6
ATOM      5  C   UNL     1       5.608   4.091  13.320  0.00  0.00    +0.000 C 
ATOM      6  C   UNL     1       6.313   3.689  14.390  0.00  0.00    +0.000 C 
BRANCH   5   8
ATOM      7  O   UNL     1       4.399   3.145  11.500  0.00  0.00    +0.000 OA
ATOM      8  C   UNL     1       5.410   3.187  12.178  0.00  0.00    +0.000 C 
BRANCH   8   9
ATOM      9  O   UNL     1       6.485   2.404  11.963  0.00  0.00    +0.000 OA
ATOM     10  H   UNL     1       6.736   1.813  12.699  0.00  0.00    +0.000 HD
ENDBRANCH   8   9
ENDBRANCH   5   8
ENDBRANCH   1   6
BRANCH   3  11
ATOM     11  C   UNL     1       5.380   6.351  16.881  0.00  0.00    +0.000 C 
BRANCH  11  12
ATOM     12  C   UNL     1       4.071   6.474  17.660  0.00  0.00    +0.000 C 
BRANCH  12  13
ATOM     13  C   UNL     1       3.466   5.121  17.956  0.00  0.00    +0.000 A 
ATOM     14  C   UNL     1       2.095   4.892  17.761  0.00  0.00    +0.000 A 
ATOM     15  C   UNL     1       1.527   3.653  18.076  0.00  0.00    +0.000 A 
ATOM     16  C   UNL     1       2.331   2.642  18.590  0.00  0.00    +0.000 A 
ATOM     17  C   UNL     1       3.691   2.845  18.782  0.00  0.00    +0.000 A 
ATOM     18  C   UNL     1       4.259   4.083  18.470  0.00  0.00    +0.000 A 
BRANCH  16  19
ATOM     19  O   UNL     1       1.817   1.425  18.926  0.00  0.00    +0.000 OA
ATOM     20  H   UNL     1       0.862   1.431  18.751  0.00  0.00    +0.000 HD
ENDBRANCH  16  19
ENDBRANCH  12  13
ENDBRANCH  11  12
ENDBRANCH   3  11
TORSDOF 7
ENDMDL
MODEL 7
REMARK VINA RESULT:      -6.5      1.393      1.816
REMARK  Name = 
REMARK  7 active torsions:
REMARK  status: ('A' for Active; 'I' for Inactive)
REMARK    1  A    between atoms: C_2  and  O_3
REMARK    2  A    between atoms: C_2  and  C_4
REMARK    3  A    between atoms: C_5  and  C_6
REMARK    4  A    between atoms: N_8  and  C_9
REMARK    5  A    between atoms: C_9  and  C_10
REMARK    6  A    between atoms: C_10  and  C_11
REMARK    7  A    between atoms: C_14  and  O_15
REMARK                            x       y       z     vdW  Elec       q    Type
REMARK                         _______ _______ _______ _____ _____    ______ ____
ROOT
ATOM      1  C   UNL     1       6.632   4.830  14.692  0.00  0.00    +0.000 C 
ATOM      2  O   UNL     1       7.579   5.561  14.958  0.00  0.00    +0.000 OA
ATOM      3  N   UNL     1       5.603   4.572  15.562  0.00  0.00    +0.000 N 
ATOM      4  H   UNL     1       4.833   3.975  15.288  0.00  0.00    +0.000 HD
ENDROOT
BRANCH   1   6
ATOM      5  C   UNL     1       5.372   3.515  13.112  0.00  0.00    +0.000 C 
ATOM      6  C   UNL     1       6.524   4.150  13.380  0.00  0.00    +0.000 C 
BRANCH   5   8
ATOM      7  O   UNL     1       5.870   1.883  11.451  0.00  0.00    +0.000 OA
ATOM      8  C   UNL     1       5.188   2.818  11.831  0.00  0.00    +0.000 C 
BRANCH   8   9
ATOM      9  O   UNL     1       4.169   3.334  11.118  0.00  0.00    +0.000 OA
ATOM     10  H   UNL     1       3.650   2.696  10.592  0.00  0.00    +0.000 HD
ENDBRANCH   8   9
ENDBRANCH   5   8
ENDBRANCH   1   6
BRANCH   3  11
ATOM     11  C   UNL     1       5.604   5.199  16.875  0.00  0.00    +0.000 C 
BRANCH  11  12
ATOM     12  C   UNL     1       4.379   6.072  17.142  0.00  0.00    +0.000 C 
BRANCH  12  13
ATOM     13  C   UNL     1       3.364   5.362  18.009  0.00  0.00    +0.000 A 
ATOM     14  C   UNL     1       2.596   4.307  17.493  0.00  0.00    +0.000 A 
ATOM     15  C   UNL     1       1.626   3.678  18.282  0.00  0.00    +0.000 A 
ATOM     16  C   UNL     1       1.423   4.107  19.588  0.00  0.00    +0.000 A 
ATOM     17  C   UNL     1       2.179   5.143  20.121  0.00  0.00    +0.000 A 
ATOM     18  C   UNL     1       3.146   5.773  19.333  0.00  0.00    +0.000 A 
BRANCH  16  19
ATOM     19  O   UNL     1       0.478   3.534  20.387  0.00  0.00    +0.000 OA
ATOM     20  H   UNL     1      -0.380   3.580  19.936  0.00  0.00    +0.000 HD
ENDBRANCH  16  19
ENDBRANCH  12  13
ENDBRANCH  11  12
ENDBRANCH   3  11
TORSDOF 7
ENDMDL
MODEL 8
REMARK VINA RESULT:      -6.4      2.982      4.984
REMARK  Name = 
REMARK  7 active torsions:
REMARK  status: ('A' for Active; 'I' for Inactive)
REMARK    1  A    between atoms: C_2  and  O_3
REMARK    2  A    between atoms: C_2  and  C_4
REMARK    3  A    between atoms: C_5  and  C_6
REMARK    4  A    between atoms: N_8  and  C_9
REMARK    5  A    between atoms: C_9  and  C_10
REMARK    6  A    between atoms: C_10  and  C_11
REMARK    7  A    between atoms: C_14  and  O_15
REMARK                            x       y       z     vdW  Elec       q    Type
REMARK                         _______ _______ _______ _____ _____    ______ ____
ROOT
ATOM      1  C   UNL     1       7.059   6.643  17.077  0.00  0.00    +0.000 C 
ATOM      2  O   UNL     1       7.568   6.128  16.088  0.00  0.00    +0.000 OA
ATOM      3  N   UNL     1       5.758   6.434  17.459  0.00  0.00    +0.000 N 
ATOM      4  H   UNL     1       5.389   6.870  18.294  0.00  0.00    +0.000 HD
ENDROOT
BRANCH   1   6
ATOM      5  C   UNL     1       7.938   8.835  17.565  0.00  0.00    +0.000 C 
ATOM      6  C   UNL     1       7.827   7.556  17.956  0.00  0.00    +0.000 C 
BRANCH   5   8
ATOM      7  O   UNL     1       8.840  10.974  18.095  0.00  0.00    +0.000 OA
ATOM      8  C   UNL     1       8.683   9.801  18.384  0.00  0.00    +0.000 C 
BRANCH   8   9
ATOM      9  O   UNL     1       9.178   9.237  19.503  0.00  0.00    +0.000 OA
ATOM     10  H   UNL     1       9.986   9.647  19.865  0.00  0.00    +0.000 HD
ENDBRANCH   8   9
ENDBRANCH   5   8
ENDBRANCH   1   6
BRANCH   3  11
ATOM     11  C   UNL     1       4.917   5.546  16.671  0.00  0.00    +0.000 C 
BRANCH  11  12
ATOM     12  C   UNL     1       4.908   4.102  17.172  0.00  0.00    +0.000 C 
BRANCH  12  13
ATOM     13  C   UNL     1       3.746   3.840  18.103  0.00  0.00    +0.000 A 
ATOM     14  C   UNL     1       3.954   3.236  19.353  0.00  0.00    +0.000 A 
ATOM     15  C   UNL     1       2.874   2.953  20.197  0.00  0.00    +0.000 A 
ATOM     16  C   UNL     1       1.585   3.272  19.789  0.00  0.00    +0.000 A 
ATOM     17  C   UNL     1       1.359   3.877  18.559  0.00  0.00    +0.000 A 
ATOM     18  C   UNL     1       2.437   4.158  17.715  0.00  0.00    +0.000 A 
BRANCH  16  19
ATOM     19  O   UNL     1       0.502   2.999  20.571  0.00  0.00    +0.000 OA
ATOM     20  H   UNL     1       0.813   2.762  21.460  0.00  0.00    +0.000 HD
ENDBRANCH  16  19
ENDBRANCH  12  13
ENDBRANCH  11  12
ENDBRANCH   3  11
TORSDOF 7
ENDMDL
MODEL 9
REMARK VINA RESULT:      -6.4      1.472      1.777
REMARK  Name = 
REMARK  7 active torsions:
REMARK  status: ('A' for Active; 'I' for Inactive)
REMARK    1  A    between atoms: C_2  and  O_3
REMARK    2  A    between atoms: C_2  and  C_4
REMARK    3  A    between atoms: C_5  and  C_6
REMARK    4  A    between atoms: N_8  and  C_9
REMARK    5  A    between atoms: C_9  and  C_10
REMARK    6  A    between atoms: C_10  and  C_11
REMARK    7  A    between atoms: C_14  and  O_15
REMARK                            x       y       z     vdW  Elec       q    Type
REMARK                         _______ _______ _______ _____ _____    ______ ____
ROOT
ATOM      1  C   UNL     1       6.125   4.757  15.379  0.00  0.00    +0.000 C 
ATOM      2  O   UNL     1       7.096   5.503  15.336  0.00  0.00    +0.000 OA
ATOM      3  N   UNL     1       5.146   4.837  16.338  0.00  0.00    +0.000 N 
ATOM      4  H   UNL     1       4.354   4.208  16.320  0.00  0.00    +0.000 HD
ENDROOT
BRANCH   1   6
ATOM      5  C   UNL     1       6.241   3.970  13.103  0.00  0.00    +0.000 C 
ATOM      6  C   UNL     1       5.929   3.684  14.377  0.00  0.00    +0.000 C 
BRANCH   5   8
ATOM      7  O   UNL     1       5.002   2.630  11.573  0.00  0.00    +0.000 OA
ATOM      8  C   UNL     1       6.074   2.957  12.052  0.00  0.00    +0.000 C 
BRANCH   8   9
ATOM      9  O   UNL     1       7.252   2.425  11.672  0.00  0.00    +0.000 OA
ATOM     10  H   UNL     1       7.217   1.511  11.331  0.00  0.00    +0.000 HD
ENDBRANCH   8   9
ENDBRANCH   5   8
ENDBRANCH   1   6
BRANCH   3  11
ATOM     11  C   UNL     1       5.236   5.864  17.365  0.00  0.00    +0.000 C 
BRANCH  11  12
ATOM     12  C   UNL     1       3.908   6.563  17.653  0.00  0.00    +0.000 C 
BRANCH  12  13
ATOM     13  C   UNL     1       2.972   5.682  18.448  0.00  0.00    +0.000 A 
ATOM     14  C   UNL     1       2.893   5.799  19.845  0.00  0.00    +0.000 A 
ATOM     15  C   UNL     1       2.060   4.954  20.585  0.00  0.00    +0.000 A 
ATOM     16  C   UNL     1       1.306   3.988  19.929  0.00  0.00    +0.000 A 
ATOM     17  C   UNL     1       1.364   3.861  18.547  0.00  0.00    +0.000 A 
ATOM     18  C   UNL     1       2.197   4.704  17.807  0.00  0.00    +0.000 A 
BRANCH  16  19
ATOM     19  O   UNL     1       0.494   3.133  20.612  0.00  0.00    +0.000 OA
ATOM     20  H   UNL     1      -0.076   2.670  19.977  0.00  0.00    +0.000 HD
ENDBRANCH  16  19
ENDBRANCH  12  13
ENDBRANCH  11  12
ENDBRANCH   3  11
TORSDOF 7
ENDMDL
