MODEL 1
REMARK VINA RESULT:      -6.1      0.000      0.000
REMARK  Name = 
REMARK  6 active torsions:
REMARK  status: ('A' for Active; 'I' for Inactive)
REMARK    1  A    between atoms: C_2  and  C_4
REMARK    2  A    between atoms: C_4  and  S_5
REMARK    3  A    between atoms: S_5  and  C_6
REMARK    4  A    between atoms: C_10  and  S_11
REMARK    5  A    between atoms: S_11  and  C_12
REMARK    6  A    between atoms: C_12  and  C_13
REMARK                            x       y       z     vdW  Elec       q    Type
REMARK                         _______ _______ _______ _____ _____    ______ ____
ROOT
ATOM      1  C   UNL     1       4.650   5.857  17.279  0.00  0.00    +0.000 A 
ATOM      2  C   UNL     1       3.840   6.909  17.650  0.00  0.00    +0.000 A 
ATOM      3  C   UNL     1       2.661   6.562  18.263  0.00  0.00    +0.000 A 
ATOM      4  N   UNL     1       2.288   5.289  18.494  0.00  0.00    +0.000 NA
ATOM      5  C   UNL     1       3.147   4.339  18.094  0.00  0.00    +0.000 A 
ATOM      6  N   UNL     1       4.325   4.570  17.496  0.00  0.00    +0.000 NA
ENDROOT
BRANCH   1   7
ATOM      7  S   UNL     1       6.201   6.139  16.451  0.00  0.00    +0.000 S 
BRANCH   7   8
ATOM      8  C   UNL     1       7.216   6.643  17.877  0.00  0.00    +0.000 C 
BRANCH   8  10
ATOM      9  N   UNL     1       8.077   5.605  19.921  0.00  0.00    +0.000 N 
ATOM     10  C   UNL     1       7.729   5.417  18.611  0.00  0.00    +0.000 C 
ATOM     11  O   UNL     1       7.883   4.328  18.071  0.00  0.00    +0.000 OA
ATOM     12  H   UNL     1       8.344   4.782  20.447  0.00  0.00    +0.000 HD
ATOM     13  H   UNL     1       7.771   6.420  20.434  0.00  0.00    +0.000 HD
ENDBRANCH   8  10
ENDBRANCH   7   8
ENDBRANCH   1   7
BRANCH   5  14
ATOM     14  S   UNL     1       2.788   2.653  18.510  0.00  0.00    +0.000 S 
BRANCH  14  15
ATOM     15  C   UNL     1       2.980   2.742  20.319  0.00  0.00    +0.000 C 
BRANCH  15  16
ATOM     16  C   UNL     1       1.629   2.771  21.024  0.00  0.00    +0.000 C 
ATOM     17  N   UNL     1       0.573   3.305  20.340  0.00  0.00    +0.000 N 
ATOM     18  O   UNL     1       1.484   2.423  22.193  0.00  0.00    +0.000 OA
ATOM     19  H   UNL     1       0.621   3.435  19.336  0.00  0.00    +0.000 HD
ATOM     20  H   UNL     1      -0.338   3.263  20.777  0.00  0.00    +0.000 HD
ENDBRANCH  15  16
ENDBRANCH  14  15
ENDBRANCH   5  14
TORSDOF 6
ENDMDL
MODEL 2
REMARK VINA RESULT:      -6.1      2.067      5.059
REMARK  Name = 
REMARK  6 active torsions:
REMARK  status: ('A' for Active; 'I' for Inactive)
REMARK    1  A    between atoms: C_2  and  C_4
REMARK    2  A    between atoms: C_4  and  S_5
REMARK    3  A    between atoms: S_5  and  C_6
REMARK    4  A    between atoms: C_10  and  S_11
REMARK    5  A    between atoms: S_11  and  C_12
REMARK    6  A    between atoms: C_12  and  C_13
REMARK                            x       y       z     vdW  Elec       q    Type
REMARK                         _______ _______ _______ _____ _____    ______ ____
ROOT
ATOM      1  C   UNL     1       2.940   5.592  19.314  0.00  0.00    +0.000 A 
ATOM      2  C   UNL     1       2.207   6.747  19.478  0.00  0.00    +0.000 A 
ATOM      3  C   UNL     1       2.495   7.763  18.599  0.00  0.00    +0.000 A 
ATOM      4  N   UNL     1       3.431   7.671  17.635  0.00  0.00    +0.000 NA
ATOM      5  C   UNL     1       4.089   6.503  17.560  0.00  0.00    +0.000 A 
ATOM      6  N   UNL     1       3.878   5.449  18.362  0.00  0.00    +0.000 NA
ENDROOT
BRANCH   1   7
ATOM      7  S   UNL     1       2.703   4.193  20.389  0.00  0.00    +0.000 S 
BRANCH   7   8
ATOM      8  C   UNL     1       2.648   2.863  19.145  0.00  0.00    +0.000 C 
BRANCH   8  10
ATOM      9  N   UNL     1       3.932   0.905  18.428  0.00  0.00    +0.000 N 
ATOM     10  C   UNL     1       3.887   1.994  19.257  0.00  0.00    +0.000 C 
ATOM     11  O   UNL     1       4.781   2.201  20.069  0.00  0.00    +0.000 OA
ATOM     12  H   UNL     1       4.786   0.361  18.433  0.00  0.00    +0.000 HD
ATOM     13  H   UNL     1       3.324   0.832  17.625  0.00  0.00    +0.000 HD
ENDBRANCH   8  10
ENDBRANCH   7   8
ENDBRANCH   1   7
BRANCH   5  14
ATOM     14  S   UNL     1       5.220   6.263  16.216  0.00  0.00    +0.000 S 
BRANCH  14  15
ATOM     15  C   UNL     1       6.787   6.221  17.144  0.00  0.00    +0.000 C 
BRANCH  15  16
ATOM     16  C   UNL     1       7.206   4.792  17.468  0.00  0.00    +0.000 C 
ATOM     17  N   UNL     1       6.615   4.190  18.543  0.00  0.00    +0.000 N 
ATOM     18  O   UNL     1       8.104   4.212  16.863  0.00  0.00    +0.000 OA
ATOM     19  H   UNL     1       5.765   4.570  18.944  0.00  0.00    +0.000 HD
ATOM     20  H   UNL     1       6.840   3.220  18.720  0.00  0.00    +0.000 HD
ENDBRANCH  15  16
ENDBRANCH  14  15
ENDBRANCH   5  14
TORSDOF 6
ENDMDL
MODEL 3
REMARK VINA RESULT:      -6.1      1.644      1.927
REMARK  Name = 
REMARK  6 active torsions:
REMARK  status: ('A' for Active; 'I' for Inactive)
REMARK    1  A    between atoms: C_2  and  C_4
REMARK    2  A    between atoms: C_4  and  S_5
REMARK    3  A    between atoms: S_5  and  C_6
REMARK    4  A    between atoms: C_10  and  S_11
REMARK    5  A    between atoms: S_11  and  C_12
REMARK    6  A    between atoms: C_12  and  C_13
REMARK                            x       y       z     vdW  Elec       q    Type
REMARK                         _______ _______ _______ _____ _____    ______ ____
ROOT
ATOM      1  C   UNL     1       4.051   5.864  17.226  0.00  0.00    +0.000 A 
ATOM      2  C   UNL     1       3.717   6.996  17.938  0.00  0.00    +0.000 A 
ATOM      3  C   UNL     1       2.684   6.851  18.831  0.00  0.00    +0.000 A 
ATOM      4  N   UNL     1       2.016   5.696  19.017  0.00  0.00    +0.000 NA
ATOM      5  C   UNL     1       2.419   4.654  18.274  0.00  0.00    +0.000 A 
ATOM      6  N   UNL     1       3.420   4.687  17.382  0.00  0.00    +0.000 NA
ENDROOT
BRANCH   1   7
ATOM      7  S   UNL     1       5.353   5.894  16.011  0.00  0.00    +0.000 S 
BRANCH   7   8
ATOM      8  C   UNL     1       6.789   6.098  17.114  0.00  0.00    +0.000 C 
BRANCH   8  10
ATOM      9  N   UNL     1       6.592   4.222  18.675  0.00  0.00    +0.000 N 
ATOM     10  C   UNL     1       7.266   4.743  17.604  0.00  0.00    +0.000 C 
ATOM     11  O   UNL     1       8.228   4.156  17.123  0.00  0.00    +0.000 OA
ATOM     12  H   UNL     1       6.844   3.285  18.964  0.00  0.00    +0.000 HD
ATOM     13  H   UNL     1       5.687   4.578  18.949  0.00  0.00    +0.000 HD
ENDBRANCH   8  10
ENDBRANCH   7   8
ENDBRANCH   1   7
BRANCH   5  14
ATOM     14  S   UNL     1       1.687   3.069  18.584  0.00  0.00    +0.000 S 
BRANCH  14  15
ATOM     15  C   UNL     1       2.679   2.555  20.023  0.00  0.00    +0.000 C 
BRANCH  15  16
ATOM     16  C   UNL     1       4.052   2.045  19.601  0.00  0.00    +0.000 C 
ATOM     17  N   UNL     1       4.165   1.500  18.353  0.00  0.00    +0.000 N 
ATOM     18  O   UNL     1       5.014   2.025  20.365  0.00  0.00    +0.000 OA
ATOM     19  H   UNL     1       3.450   1.659  17.653  0.00  0.00    +0.000 HD
ATOM     20  H   UNL     1       5.088   1.223  18.044  0.00  0.00    +0.000 HD
ENDBRANCH  15  16
ENDBRANCH  14  15
ENDBRANCH   5  14
TORSDOF 6
ENDMDL
MODEL 4
REMARK VINA RESULT:      -5.9      1.401      5.476
REMARK  Name = 
REMARK  6 active torsions:
REMARK  status: ('A' for Active; 'I' for Inactive)
REMARK    1  A    between atoms: C_2  and  C_4
REMARK    2  A    between atoms: C_4  and  S_5
REMARK    3  A    between atoms: S_5  and  C_6
REMARK    4  A    between atoms: C_10  and  S_11
REMARK    5  A    between atoms: S_11  and  C_12
REMARK    6  A    between atoms: C_12  and  C_13
REMARK                            x       y       z     vdW  Elec       q    Type
REMARK                         _______ _______ _______ _____ _____    ______ ____
ROOT
ATOM      1  C   UNL     1       3.181   4.375  17.815  0.00  0.00    +0.000 A 
ATOM      2  C   UNL     1       2.552   5.565  18.110  0.00  0.00    +0.000 A 
ATOM      3  C   UNL     1       3.292   6.700  17.884  0.00  0.00    +0.000 A 
ATOM      4  N   UNL     1       4.554   6.684  17.415  0.00  0.00    +0.000 NA
ATOM      5  C   UNL     1       5.076   5.474  17.160  0.00  0.00    +0.000 A 
ATOM      6  N   UNL     1       4.436   4.309  17.337  0.00  0.00    +0.000 NA
ENDROOT
BRANCH   1   7
ATOM      7  S   UNL     1       2.364   2.814  18.077  0.00  0.00    +0.000 S 
BRANCH   7   8
ATOM      8  C   UNL     1       2.786   2.543  19.828  0.00  0.00    +0.000 C 
BRANCH   8  10
ATOM      9  N   UNL     1       1.710   2.603  22.026  0.00  0.00    +0.000 N 
ATOM     10  C   UNL     1       1.637   2.987  20.715  0.00  0.00    +0.000 C 
ATOM     11  O   UNL     1       0.666   3.606  20.296  0.00  0.00    +0.000 OA
ATOM     12  H   UNL     1       0.994   2.959  22.649  0.00  0.00    +0.000 HD
ATOM     13  H   UNL     1       2.578   2.282  22.432  0.00  0.00    +0.000 HD
ENDBRANCH   8  10
ENDBRANCH   7   8
ENDBRANCH   1   7
BRANCH   5  14
ATOM     14  S   UNL     1       6.673   5.392  16.394  0.00  0.00    +0.000 S 
BRANCH  14  15
ATOM     15  C   UNL     1       7.641   4.724  17.785  0.00  0.00    +0.000 C 
BRANCH  15  16
ATOM     16  C   UNL     1       7.661   5.687  18.965  0.00  0.00    +0.000 C 
ATOM     17  N   UNL     1       8.226   6.916  18.766  0.00  0.00    +0.000 N 
ATOM     18  O   UNL     1       7.278   5.367  20.088  0.00  0.00    +0.000 OA
ATOM     19  H   UNL     1       8.386   7.264  17.828  0.00  0.00    +0.000 HD
ATOM     20  H   UNL     1       8.179   7.582  19.526  0.00  0.00    +0.000 HD
ENDBRANCH  15  16
ENDBRANCH  14  15
ENDBRANCH   5  14
TORSDOF 6
ENDMDL
MODEL 5
REMARK VINA RESULT:      -5.9      1.942      2.144
REMARK  Name = 
REMARK  6 active torsions:
REMARK  status: ('A' for Active; 'I' for Inactive)
REMARK    1  A    between atoms: C_2  and  C_4
REMARK    2  A    between atoms: C_4  and  S_5
REMARK    3  A    between atoms: S_5  and  C_6
REMARK    4  A    between atoms: C_10  and  S_11
REMARK    5  A    between atoms: S_11  and  C_12
REMARK    6  A    between atoms: C_12  and  C_13
REMARK                            x       y       z     vdW  Elec       q    Type
REMARK                         _______ _______ _______ _____ _____    ______ ____
ROOT
ATOM      1  C   UNL     1       4.681   5.891  17.518  0.00  0.00    +0.000 A 
ATOM      2  C   UNL     1       3.797   6.927  17.728  0.00  0.00    +0.000 A 
ATOM      3  C   UNL     1       2.527   6.557  18.100  0.00  0.00    +0.000 A 
ATOM      4  N   UNL     1       2.139   5.276  18.250  0.00  0.00    +0.000 NA
ATOM      5  C   UNL     1       3.076   4.343  18.022  0.00  0.00    +0.000 A 
ATOM      6  N   UNL     1       4.343   4.598  17.664  0.00  0.00    +0.000 NA
ENDROOT
BRANCH   1   7
ATOM      7  S   UNL     1       6.359   6.204  17.007  0.00  0.00    +0.000 S 
BRANCH   7   8
ATOM      8  C   UNL     1       6.809   4.540  16.419  0.00  0.00    +0.000 C 
BRANCH   8  10
ATOM      9  N   UNL     1       7.636   5.458  14.305  0.00  0.00    +0.000 N 
ATOM     10  C   UNL     1       6.844   4.515  14.902  0.00  0.00    +0.000 C 
ATOM     11  O   UNL     1       6.170   3.745  14.228  0.00  0.00    +0.000 OA
ATOM     12  H   UNL     1       7.734   5.404  13.299  0.00  0.00    +0.000 HD
ATOM     13  H   UNL     1       8.345   5.954  14.827  0.00  0.00    +0.000 HD
ENDBRANCH   8  10
ENDBRANCH   7   8
ENDBRANCH   1   7
BRANCH   5  14
ATOM     14  S   UNL     1       2.673   2.649  18.356  0.00  0.00    +0.000 S 
BRANCH  14  15
ATOM     15  C   UNL     1       3.126   2.573  20.119  0.00  0.00    +0.000 C 
BRANCH  15  16
ATOM     16  C   UNL     1       1.945   2.926  21.015  0.00  0.00    +0.000 C 
ATOM     17  N   UNL     1       0.740   3.149  20.410  0.00  0.00    +0.000 N 
ATOM     18  O   UNL     1       2.061   3.103  22.225  0.00  0.00    +0.000 OA
ATOM     19  H   UNL     1       0.577   2.845  19.457  0.00  0.00    +0.000 HD
ATOM     20  H   UNL     1      -0.061   3.315  21.006  0.00  0.00    +0.000 HD
ENDBRANCH  15  16
ENDBRANCH  14  15
ENDBRANCH   5  14
TORSDOF 6
ENDMDL
MODEL 6
REMARK VINA RESULT:      -5.8      1.835      4.978
REMARK  Name = 
REMARK  6 active torsions:
REMARK  status: ('A' for Active; 'I' for Inactive)
REMARK    1  A    between atoms: C_2  and  C_4
REMARK    2  A    between atoms: C_4  and  S_5
REMARK    3  A    between atoms: S_5  and  C_6
REMARK    4  A    between atoms: C_10  and  S_11
REMARK    5  A    between atoms: S_11  and  C_12
REMARK    6  A    between atoms: C_12  and  C_13
REMARK                            x       y       z     vdW  Elec       q    Type
REMARK                         _______ _______ _______ _____ _____    ______ ____
ROOT
ATOM      1  C   UNL     1       2.964   4.623  17.721  0.00  0.00    +0.000 A 
ATOM      2  C   UNL     1       2.502   5.878  18.052  0.00  0.00    +0.000 A 
ATOM      3  C   UNL     1       3.399   6.905  17.879  0.00  0.00    +0.000 A 
ATOM      4  N   UNL     1       4.655   6.728  17.426  0.00  0.00    +0.000 NA
ATOM      5  C   UNL     1       5.006   5.466  17.132  0.00  0.00    +0.000 A 
ATOM      6  N   UNL     1       4.205   4.397  17.257  0.00  0.00    +0.000 NA
ENDROOT
BRANCH   1   7
ATOM      7  S   UNL     1       1.931   3.184  17.912  0.00  0.00    +0.000 S 
BRANCH   7   8
ATOM      8  C   UNL     1       3.179   1.995  18.501  0.00  0.00    +0.000 C 
BRANCH   8  10
ATOM      9  N   UNL     1       5.020   2.178  20.105  0.00  0.00    +0.000 N 
ATOM     10  C   UNL     1       3.693   2.413  19.867  0.00  0.00    +0.000 C 
ATOM     11  O   UNL     1       2.973   2.883  20.740  0.00  0.00    +0.000 OA
ATOM     12  H   UNL     1       5.397   2.524  20.979  0.00  0.00    +0.000 HD
ATOM     13  H   UNL     1       5.664   1.991  19.349  0.00  0.00    +0.000 HD
ENDBRANCH   8  10
ENDBRANCH   7   8
ENDBRANCH   1   7
BRANCH   5  14
ATOM     14  S   UNL     1       6.589   5.187  16.384  0.00  0.00    +0.000 S 
BRANCH  14  15
ATOM     15  C   UNL     1       7.516   4.616  17.845  0.00  0.00    +0.000 C 
BRANCH  15  16
ATOM     16  C   UNL     1       7.607   5.703  18.909  0.00  0.00    +0.000 C 
ATOM     17  N   UNL     1       7.861   6.978  18.487  0.00  0.00    +0.000 N 
ATOM     18  O   UNL     1       7.554   5.459  20.112  0.00  0.00    +0.000 OA
ATOM     19  H   UNL     1       7.737   7.234  17.514  0.00  0.00    +0.000 HD
ATOM     20  H   UNL     1       7.853   7.712  19.183  0.00  0.00    +0.000 HD
ENDBRANCH  15  16
ENDBRANCH  14  15
ENDBRANCH   5  14
TORSDOF 6
ENDMDL
MODEL 7
REMARK VINA RESULT:      -5.8      2.133      2.293
REMARK  Name = 
REMARK  6 active torsions:
REMARK  status: ('A' for Active; 'I' for Inactive)
REMARK    1  A    between atoms: C_2  and  C_4
REMARK    2  A    between atoms: C_4  and  S_5
REMARK    3  A    between atoms: S_5  and  C_6
REMARK    4  A    between atoms: C_10  and  S_11
REMARK    5  A    between atoms: S_11  and  C_12
REMARK    6  A    between atoms: C_12  and  C_13
REMARK                            x       y       z     vdW  Elec       q    Type
REMARK                         _______ _______ _______ _____ _____    ______ ____
ROOT
ATOM      1  C   UNL     1       4.048   6.536  17.580  0.00  0.00    +0.000 A 
ATOM      2  C   UNL     1       3.340   7.713  17.688  0.00  0.00    +0.000 A 
ATOM      3  C   UNL     1       2.390   7.745  18.679  0.00  0.00    +0.000 A 
ATOM      4  N   UNL     1       2.137   6.710  19.502  0.00  0.00    +0.000 NA
ATOM      5  C   UNL     1       2.882   5.609  19.314  0.00  0.00    +0.000 A 
ATOM      6  N   UNL     1       3.838   5.478  18.383  0.00  0.00    +0.000 NA
ENDROOT
BRANCH   1   7
ATOM      7  S   UNL     1       5.298   6.326  16.328  0.00  0.00    +0.000 S 
BRANCH   7   8
ATOM      8  C   UNL     1       6.788   6.448  17.368  0.00  0.00    +0.000 C 
BRANCH   8  10
ATOM      9  N   UNL     1       7.788   4.300  16.750  0.00  0.00    +0.000 N 
ATOM     10  C   UNL     1       7.265   5.062  17.760  0.00  0.00    +0.000 C 
ATOM     11  O   UNL     1       7.149   4.607  18.892  0.00  0.00    +0.000 OA
ATOM     12  H   UNL     1       8.184   3.405  17.009  0.00  0.00    +0.000 HD
ATOM     13  H   UNL     1       8.080   4.716  15.877  0.00  0.00    +0.000 HD
ENDBRANCH   8  10
ENDBRANCH   7   8
ENDBRANCH   1   7
BRANCH   5  14
ATOM     14  S   UNL     1       2.707   4.271  20.464  0.00  0.00    +0.000 S 
BRANCH  14  15
ATOM     15  C   UNL     1       2.472   2.895  19.293  0.00  0.00    +0.000 C 
BRANCH  15  16
ATOM     16  C   UNL     1       3.752   2.085  19.119  0.00  0.00    +0.000 C 
ATOM     17  N   UNL     1       4.915   2.640  19.571  0.00  0.00    +0.000 N 
ATOM     18  O   UNL     1       3.781   1.015  18.515  0.00  0.00    +0.000 OA
ATOM     19  H   UNL     1       4.898   3.423  20.215  0.00  0.00    +0.000 HD
ATOM     20  H   UNL     1       5.755   2.078  19.520  0.00  0.00    +0.000 HD
ENDBRANCH  15  16
ENDBRANCH  14  15
ENDBRANCH   5  14
TORSDOF 6
ENDMDL
MODEL 8
REMARK VINA RESULT:      -5.8      1.323      5.363
REMARK  Name = 
REMARK  6 active torsions:
REMARK  status: ('A' for Active; 'I' for Inactive)
REMARK    1  A    between atoms: C_2  and  C_4
REMARK    2  A    between atoms: C_4  and  S_5
REMARK    3  A    between atoms: S_5  and  C_6
REMARK    4  A    between atoms: C_10  and  S_11
REMARK    5  A    between atoms: S_11  and  C_12
REMARK    6  A    between atoms: C_12  and  C_13
REMARK                            x       y       z     vdW  Elec       q    Type
REMARK                         _______ _______ _______ _____ _____    ______ ____
ROOT
ATOM      1  C   UNL     1       2.830   4.508  17.886  0.00  0.00    +0.000 A 
ATOM      2  C   UNL     1       2.418   5.671  18.498  0.00  0.00    +0.000 A 
ATOM      3  C   UNL     1       3.119   6.802  18.155  0.00  0.00    +0.000 A 
ATOM      4  N   UNL     1       4.149   6.805  17.288  0.00  0.00    +0.000 NA
ATOM      5  C   UNL     1       4.472   5.620  16.748  0.00  0.00    +0.000 A 
ATOM      6  N   UNL     1       3.848   4.462  17.008  0.00  0.00    +0.000 NA
ENDROOT
BRANCH   1   7
ATOM      7  S   UNL     1       2.041   2.952  18.244  0.00  0.00    +0.000 S 
BRANCH   7   8
ATOM      8  C   UNL     1       2.938   2.501  19.763  0.00  0.00    +0.000 C 
BRANCH   8  10
ATOM      9  N   UNL     1       0.765   3.089  20.728  0.00  0.00    +0.000 N 
ATOM     10  C   UNL     1       2.075   2.780  20.980  0.00  0.00    +0.000 C 
ATOM     11  O   UNL     1       2.512   2.789  22.125  0.00  0.00    +0.000 OA
ATOM     12  H   UNL     1       0.158   3.199  21.530  0.00  0.00    +0.000 HD
ATOM     13  H   UNL     1       0.342   2.888  19.833  0.00  0.00    +0.000 HD
ENDBRANCH   8  10
ENDBRANCH   7   8
ENDBRANCH   1   7
BRANCH   5  14
ATOM     14  S   UNL     1       5.714   5.584  15.483  0.00  0.00    +0.000 S 
BRANCH  14  15
ATOM     15  C   UNL     1       6.948   4.525  16.303  0.00  0.00    +0.000 C 
BRANCH  15  16
ATOM     16  C   UNL     1       7.153   4.929  17.758  0.00  0.00    +0.000 C 
ATOM     17  N   UNL     1       6.532   4.177  18.715  0.00  0.00    +0.000 N 
ATOM     18  O   UNL     1       7.768   5.942  18.083  0.00  0.00    +0.000 OA
ATOM     19  H   UNL     1       6.172   3.256  18.494  0.00  0.00    +0.000 HD
ATOM     20  H   UNL     1       6.721   4.401  19.683  0.00  0.00    +0.000 HD
ENDBRANCH  15  16
ENDBRANCH  14  15
ENDBRANCH   5  14
TORSDOF 6
ENDMDL
MODEL 9
REMARK VINA RESULT:      -5.7      1.346      5.426
REMARK  Name = 
REMARK  6 active torsions:
REMARK  status: ('A' for Active; 'I' for Inactive)
REMARK    1  A    between atoms: C_2  and  C_4
REMARK    2  A    between atoms: C_4  and  S_5
REMARK    3  A    between atoms: S_5  and  C_6
REMARK    4  A    between atoms: C_10  and  S_11
REMARK    5  A    between atoms: S_11  and  C_12
REMARK    6  A    between atoms: C_12  and  C_13
REMARK                            x       y       z     vdW  Elec       q    Type
REMARK                         _______ _______ _______ _____ _____    ______ ____
ROOT
ATOM      1  C   UNL     1       2.824   4.794  18.010  0.00  0.00    +0.000 A 
ATOM      2  C   UNL     1       2.375   6.075  18.245  0.00  0.00    +0.000 A 
ATOM      3  C   UNL     1       3.240   7.082  17.891  0.00  0.00    +0.000 A 
ATOM      4  N   UNL     1       4.456   6.864  17.356  0.00  0.00    +0.000 NA
ATOM      5  C   UNL     1       4.799   5.580  17.168  0.00  0.00    +0.000 A 
ATOM      6  N   UNL     1       4.026   4.526  17.470  0.00  0.00    +0.000 NA
ENDROOT
BRANCH   1   7
ATOM      7  S   UNL     1       1.831   3.379  18.436  0.00  0.00    +0.000 S 
BRANCH   7   8
ATOM      8  C   UNL     1       2.781   2.763  19.863  0.00  0.00    +0.000 C 
BRANCH   8  10
ATOM      9  N   UNL     1       1.640   2.498  22.013  0.00  0.00    +0.000 N 
ATOM     10  C   UNL     1       2.245   3.368  21.147  0.00  0.00    +0.000 C 
ATOM     11  O   UNL     1       2.289   4.568  21.393  0.00  0.00    +0.000 OA
ATOM     12  H   UNL     1       1.349   2.871  22.909  0.00  0.00    +0.000 HD
ATOM     13  H   UNL     1       1.774   1.500  21.933  0.00  0.00    +0.000 HD
ENDBRANCH   8  10
ENDBRANCH   7   8
ENDBRANCH   1   7
BRANCH   5  14
ATOM     14  S   UNL     1       6.319   5.232  16.323  0.00  0.00    +0.000 S 
BRANCH  14  15
ATOM     15  C   UNL     1       7.315   4.639  17.728  0.00  0.00    +0.000 C 
BRANCH  15  16
ATOM     16  C   UNL     1       7.741   5.788  18.635  0.00  0.00    +0.000 C 
ATOM     17  N   UNL     1       7.924   5.510  19.960  0.00  0.00    +0.000 N 
ATOM     18  O   UNL     1       7.831   6.947  18.237  0.00  0.00    +0.000 OA
ATOM     19  H   UNL     1       8.027   4.553  20.277  0.00  0.00    +0.000 HD
ATOM     20  H   UNL     1       8.273   6.253  20.552  0.00  0.00    +0.000 HD
ENDBRANCH  15  16
ENDBRANCH  14  15
ENDBRANCH   5  14
TORSDOF 6
ENDMDL
