MODEL 1
REMARK VINA RESULT:      -8.3      0.000      0.000
REMARK  Name = 
REMARK  6 active torsions:
REMARK  status: ('A' for Active; 'I' for Inactive)
REMARK    1  A    between atoms: C_2  and  C_3
REMARK    2  A    between atoms: C_3  and  C_4
REMARK    3  A    between atoms: C_6  and  O_7
REMARK    4  A    between atoms: O_7  and  C_8
REMARK    5  A    between atoms: C_9  and  O_10
REMARK    6  A    between atoms: O_10  and  C_11
REMARK                            x       y       z     vdW  Elec       q    Type
REMARK                         _______ _______ _______ _____ _____    ______ ____
ROOT
ATOM      1  C   UNL     1       2.193   5.762  19.629  0.00  0.00    +0.000 A 
ATOM      2  C   UNL     1       3.098   5.713  18.498  0.00  0.00    +0.000 A 
ATOM      3  C   UNL     1       3.725   4.527  17.925  0.00  0.00    +0.000 A 
ATOM      4  C   UNL     1       4.703   4.599  16.914  0.00  0.00    +0.000 A 
ATOM      5  C   UNL     1       5.012   5.838  16.383  0.00  0.00    +0.000 A 
ATOM      6  C   UNL     1       4.355   6.980  16.827  0.00  0.00    +0.000 A 
ATOM      7  C   UNL     1       3.382   6.952  17.855  0.00  0.00    +0.000 A 
ATOM      8  C   UNL     1       2.661   8.127  18.211  0.00  0.00    +0.000 A 
ATOM      9  C   UNL     1       2.586   9.295  17.408  0.00  0.00    +0.000 A 
ATOM     10  C   UNL     1       1.734  10.365  17.722  0.00  0.00    +0.000 A 
ATOM     11  C   UNL     1       1.018  10.364  18.917  0.00  0.00    +0.000 A 
ATOM     12  C   UNL     1       0.099  11.359  19.280  0.00  0.00    +0.000 A 
ATOM     13  C   UNL     1      -0.515  11.373  20.511  0.00  0.00    +0.000 A 
ATOM     14  C   UNL     1      -0.235  10.432  21.469  0.00  0.00    +0.000 A 
ATOM     15  C   UNL     1       0.619   9.389  21.107  0.00  0.00    +0.000 A 
ATOM     16  C   UNL     1       1.198   9.295  19.816  0.00  0.00    +0.000 A 
ATOM     17  C   UNL     1       1.915   8.132  19.405  0.00  0.00    +0.000 A 
ATOM     18  N   UNL     1       1.780   6.975  20.127  0.00  0.00    +0.000 N 
ATOM     19  C   UNL     1       0.965   7.007  21.394  0.00  0.00    +0.000 C 
ATOM     20  C   UNL     1       1.020   8.341  22.096  0.00  0.00    +0.000 C 
ATOM     21  O   UNL     1      -1.398  12.393  20.653  0.00  0.00    +0.000 OA
ATOM     22  C   UNL     1      -1.374  12.955  19.327  0.00  0.00    +0.000 C 
ATOM     23  O   UNL     1      -0.340  12.384  18.494  0.00  0.00    +0.000 OA
ENDROOT
BRANCH   3  24
ATOM     24  O   UNL     1       3.450   3.291  18.452  0.00  0.00    +0.000 OA
ATOM     25  C   UNL     1       2.549   2.526  17.643  0.00  0.00    +0.000 C 
ENDBRANCH   3  24
BRANCH   4  26
ATOM     26  O   UNL     1       5.365   3.573  16.301  0.00  0.00    +0.000 OA
ATOM     27  C   UNL     1       6.180   3.868  15.175  0.00  0.00    +0.000 C 
ENDBRANCH   4  26
BRANCH   1  28
ATOM     28  C   UNL     1       1.497   4.524  20.183  0.00  0.00    +0.000 C 
BRANCH  28  30
ATOM     29  C   UNL     1       1.749   2.587  21.709  0.00  0.00    +0.000 C 
ATOM     30  C   UNL     1       2.100   3.835  21.366  0.00  0.00    +0.000 C 
ENDBRANCH  28  30
ENDBRANCH   1  28
TORSDOF 4
ENDMDL
MODEL 2
REMARK VINA RESULT:      -7.4      1.448      8.042
REMARK  Name = 
REMARK  6 active torsions:
REMARK  status: ('A' for Active; 'I' for Inactive)
REMARK    1  A    between atoms: C_2  and  C_3
REMARK    2  A    between atoms: C_3  and  C_4
REMARK    3  A    between atoms: C_6  and  O_7
REMARK    4  A    between atoms: O_7  and  C_8
REMARK    5  A    between atoms: C_9  and  O_10
REMARK    6  A    between atoms: O_10  and  C_11
REMARK                            x       y       z     vdW  Elec       q    Type
REMARK                         _______ _______ _______ _____ _____    ______ ____
ROOT
ATOM      1  C   UNL     1       0.997   9.623  19.209  0.00  0.00    +0.000 A 
ATOM      2  C   UNL     1       0.552   9.720  20.585  0.00  0.00    +0.000 A 
ATOM      3  C   UNL     1      -0.241  10.791  21.178  0.00  0.00    +0.000 A 
ATOM      4  C   UNL     1      -0.502  10.865  22.560  0.00  0.00    +0.000 A 
ATOM      5  C   UNL     1      -0.064   9.834  23.370  0.00  0.00    +0.000 A 
ATOM      6  C   UNL     1       0.602   8.741  22.825  0.00  0.00    +0.000 A 
ATOM      7  C   UNL     1       0.900   8.640  21.445  0.00  0.00    +0.000 A 
ATOM      8  C   UNL     1       1.492   7.459  20.911  0.00  0.00    +0.000 A 
ATOM      9  C   UNL     1       1.533   6.209  21.581  0.00  0.00    +0.000 A 
ATOM     10  C   UNL     1       1.981   5.038  20.952  0.00  0.00    +0.000 A 
ATOM     11  C   UNL     1       2.525   5.094  19.671  0.00  0.00    +0.000 A 
ATOM     12  C   UNL     1       2.938   3.966  18.945  0.00  0.00    +0.000 A 
ATOM     13  C   UNL     1       3.560   4.072  17.723  0.00  0.00    +0.000 A 
ATOM     14  C   UNL     1       3.844   5.290  17.160  0.00  0.00    +0.000 A 
ATOM     15  C   UNL     1       3.378   6.424  17.825  0.00  0.00    +0.000 A 
ATOM     16  C   UNL     1       2.653   6.347  19.042  0.00  0.00    +0.000 A 
ATOM     17  C   UNL     1       2.027   7.496  19.609  0.00  0.00    +0.000 A 
ATOM     18  N   UNL     1       1.845   8.609  18.830  0.00  0.00    +0.000 N 
ATOM     19  C   UNL     1       2.416   8.615  17.436  0.00  0.00    +0.000 C 
ATOM     20  C   UNL     1       3.677   7.797  17.313  0.00  0.00    +0.000 C 
ATOM     21  O   UNL     1       3.844   2.868  17.167  0.00  0.00    +0.000 OA
ATOM     22  C   UNL     1       3.219   1.979  18.112  0.00  0.00    +0.000 C 
ATOM     23  O   UNL     1       2.754   2.662  19.299  0.00  0.00    +0.000 OA
ENDROOT
BRANCH   3  24
ATOM     24  O   UNL     1      -0.666  11.834  20.396  0.00  0.00    +0.000 OA
ATOM     25  C   UNL     1       0.141  13.008  20.542  0.00  0.00    +0.000 C 
ENDBRANCH   3  24
BRANCH   4  26
ATOM     26  O   UNL     1      -1.221  11.810  23.236  0.00  0.00    +0.000 OA
ATOM     27  C   UNL     1      -2.638  11.798  23.115  0.00  0.00    +0.000 C 
ENDBRANCH   4  26
BRANCH   1  28
ATOM     28  C   UNL     1       0.409  10.474  18.089  0.00  0.00    +0.000 C 
BRANCH  28  30
ATOM     29  C   UNL     1      -1.926  10.951  17.406  0.00  0.00    +0.000 C 
ATOM     30  C   UNL     1      -0.912  10.079  17.509  0.00  0.00    +0.000 C 
ENDBRANCH  28  30
ENDBRANCH   1  28
TORSDOF 4
ENDMDL
MODEL 3
REMARK VINA RESULT:      -7.2      2.438      8.703
REMARK  Name = 
REMARK  6 active torsions:
REMARK  status: ('A' for Active; 'I' for Inactive)
REMARK    1  A    between atoms: C_2  and  C_3
REMARK    2  A    between atoms: C_3  and  C_4
REMARK    3  A    between atoms: C_6  and  O_7
REMARK    4  A    between atoms: O_7  and  C_8
REMARK    5  A    between atoms: C_9  and  O_10
REMARK    6  A    between atoms: O_10  and  C_11
REMARK                            x       y       z     vdW  Elec       q    Type
REMARK                         _______ _______ _______ _____ _____    ______ ____
ROOT
ATOM      1  C   UNL     1      -1.221  11.478  19.342  0.00  0.00    +0.000 A 
ATOM      2  C   UNL     1      -1.683  11.725  20.694  0.00  0.00    +0.000 A 
ATOM      3  C   UNL     1      -2.745  12.636  21.106  0.00  0.00    +0.000 A 
ATOM      4  C   UNL     1      -3.024  12.912  22.458  0.00  0.00    +0.000 A 
ATOM      5  C   UNL     1      -2.323  12.224  23.431  0.00  0.00    +0.000 A 
ATOM      6  C   UNL     1      -1.378  11.267  23.076  0.00  0.00    +0.000 A 
ATOM      7  C   UNL     1      -1.055  10.975  21.729  0.00  0.00    +0.000 A 
ATOM      8  C   UNL     1      -0.156   9.918  21.406  0.00  0.00    +0.000 A 
ATOM      9  C   UNL     1       0.224   8.887  22.304  0.00  0.00    +0.000 A 
ATOM     10  C   UNL     1       0.982   7.781  21.893  0.00  0.00    +0.000 A 
ATOM     11  C   UNL     1       1.497   7.724  20.601  0.00  0.00    +0.000 A 
ATOM     12  C   UNL     1       2.210   6.629  20.089  0.00  0.00    +0.000 A 
ATOM     13  C   UNL     1       2.786   6.652  18.840  0.00  0.00    +0.000 A 
ATOM     14  C   UNL     1       2.726   7.762  18.037  0.00  0.00    +0.000 A 
ATOM     15  C   UNL     1       1.960   8.836  18.491  0.00  0.00    +0.000 A 
ATOM     16  C   UNL     1       1.278   8.812  19.734  0.00  0.00    +0.000 A 
ATOM     17  C   UNL     1       0.355   9.837  20.097  0.00  0.00    +0.000 A 
ATOM     18  N   UNL     1      -0.123  10.678  19.126  0.00  0.00    +0.000 N 
ATOM     19  C   UNL     1       0.432  10.559  17.731  0.00  0.00    +0.000 C 
ATOM     20  C   UNL     1       1.871  10.107  17.707  0.00  0.00    +0.000 C 
ATOM     21  O   UNL     1       3.396   5.484  18.515  0.00  0.00    +0.000 OA
ATOM     22  C   UNL     1       3.034   4.669  19.646  0.00  0.00    +0.000 C 
ATOM     23  O   UNL     1       2.392   5.423  20.699  0.00  0.00    +0.000 OA
ENDROOT
BRANCH   3  24
ATOM     24  O   UNL     1      -3.438  13.345  20.158  0.00  0.00    +0.000 OA
ATOM     25  C   UNL     1      -4.787  12.894  19.997  0.00  0.00    +0.000 C 
ENDBRANCH   3  24
BRANCH   4  26
ATOM     26  O   UNL     1      -3.981  13.742  22.973  0.00  0.00    +0.000 OA
ATOM     27  C   UNL     1      -5.016  13.174  23.764  0.00  0.00    +0.000 C 
ENDBRANCH   4  26
BRANCH   1  28
ATOM     28  C   UNL     1      -2.014  11.894  18.109  0.00  0.00    +0.000 C 
BRANCH  28  30
ATOM     29  C   UNL     1      -2.922  10.605  16.196  0.00  0.00    +0.000 C 
ATOM     30  C   UNL     1      -2.961  10.907  17.502  0.00  0.00    +0.000 C 
ENDBRANCH  28  30
ENDBRANCH   1  28
TORSDOF 4
ENDMDL
MODEL 4
REMARK VINA RESULT:      -7.1      7.349      9.152
REMARK  Name = 
REMARK  6 active torsions:
REMARK  status: ('A' for Active; 'I' for Inactive)
REMARK    1  A    between atoms: C_2  and  C_3
REMARK    2  A    between atoms: C_3  and  C_4
REMARK    3  A    between atoms: C_6  and  O_7
REMARK    4  A    between atoms: O_7  and  C_8
REMARK    5  A    between atoms: C_9  and  O_10
REMARK    6  A    between atoms: O_10  and  C_11
REMARK                            x       y       z     vdW  Elec       q    Type
REMARK                         _______ _______ _______ _____ _____    ______ ____
ROOT
ATOM      1  C   UNL     1      -5.173  12.551  20.358  0.00  0.00    +0.000 A 
ATOM      2  C   UNL     1      -4.313  12.151  19.261  0.00  0.00    +0.000 A 
ATOM      3  C   UNL     1      -4.730  11.714  17.934  0.00  0.00    +0.000 A 
ATOM      4  C   UNL     1      -3.822  11.210  16.982  0.00  0.00    +0.000 A 
ATOM      5  C   UNL     1      -2.473  11.215  17.289  0.00  0.00    +0.000 A 
ATOM      6  C   UNL     1      -2.028  11.726  18.503  0.00  0.00    +0.000 A 
ATOM      7  C   UNL     1      -2.910  12.223  19.493  0.00  0.00    +0.000 A 
ATOM      8  C   UNL     1      -2.408  12.830  20.680  0.00  0.00    +0.000 A 
ATOM      9  C   UNL     1      -1.075  13.289  20.843  0.00  0.00    +0.000 A 
ATOM     10  C   UNL     1      -0.671  14.024  21.967  0.00  0.00    +0.000 A 
ATOM     11  C   UNL     1      -1.549  14.222  23.030  0.00  0.00    +0.000 A 
ATOM     12  C   UNL     1      -1.249  14.996  24.161  0.00  0.00    +0.000 A 
ATOM     13  C   UNL     1      -2.107  15.087  25.233  0.00  0.00    +0.000 A 
ATOM     14  C   UNL     1      -3.290  14.394  25.272  0.00  0.00    +0.000 A 
ATOM     15  C   UNL     1      -3.647  13.678  24.129  0.00  0.00    +0.000 A 
ATOM     16  C   UNL     1      -2.828  13.636  22.972  0.00  0.00    +0.000 A 
ATOM     17  C   UNL     1      -3.291  13.055  21.753  0.00  0.00    +0.000 A 
ATOM     18  N   UNL     1      -4.631  12.821  21.593  0.00  0.00    +0.000 N 
ATOM     19  C   UNL     1      -5.554  13.085  22.754  0.00  0.00    +0.000 C 
ATOM     20  C   UNL     1      -4.896  12.855  24.093  0.00  0.00    +0.000 C 
ATOM     21  O   UNL     1      -1.653  15.914  26.207  0.00  0.00    +0.000 OA
ATOM     22  C   UNL     1      -0.468  16.443  25.581  0.00  0.00    +0.000 C 
ATOM     23  O   UNL     1      -0.143  15.773  24.341  0.00  0.00    +0.000 OA
ENDROOT
BRANCH   3  24
ATOM     24  O   UNL     1      -6.063  11.679  17.617  0.00  0.00    +0.000 OA
ATOM     25  C   UNL     1      -6.499  12.842  16.903  0.00  0.00    +0.000 C 
ENDBRANCH   3  24
BRANCH   4  26
ATOM     26  O   UNL     1      -4.082  10.767  15.716  0.00  0.00    +0.000 OA
ATOM     27  C   UNL     1      -3.019  10.192  14.967  0.00  0.00    +0.000 C 
ENDBRANCH   4  26
BRANCH   1  28
ATOM     28  C   UNL     1      -6.647  12.893  20.170  0.00  0.00    +0.000 C 
BRANCH  28  30
ATOM     29  C   UNL     1      -7.305  10.559  20.687  0.00  0.00    +0.000 C 
ATOM     30  C   UNL     1      -7.659  11.802  20.328  0.00  0.00    +0.000 C 
ENDBRANCH  28  30
ENDBRANCH   1  28
TORSDOF 4
ENDMDL
MODEL 5
REMARK VINA RESULT:      -7.1      4.151     10.182
REMARK  Name = 
REMARK  6 active torsions:
REMARK  status: ('A' for Active; 'I' for Inactive)
REMARK    1  A    between atoms: C_2  and  C_3
REMARK    2  A    between atoms: C_3  and  C_4
REMARK    3  A    between atoms: C_6  and  O_7
REMARK    4  A    between atoms: O_7  and  C_8
REMARK    5  A    between atoms: C_9  and  O_10
REMARK    6  A    between atoms: O_10  and  C_11
REMARK                            x       y       z     vdW  Elec       q    Type
REMARK                         _______ _______ _______ _____ _____    ______ ____
ROOT
ATOM      1  C   UNL     1      -3.925  12.716  20.223  0.00  0.00    +0.000 A 
ATOM      2  C   UNL     1      -4.211  13.022  21.610  0.00  0.00    +0.000 A 
ATOM      3  C   UNL     1      -5.411  13.658  22.140  0.00  0.00    +0.000 A 
ATOM      4  C   UNL     1      -5.534  14.043  23.489  0.00  0.00    +0.000 A 
ATOM      5  C   UNL     1      -4.510  13.722  24.362  0.00  0.00    +0.000 A 
ATOM      6  C   UNL     1      -3.397  13.018  23.916  0.00  0.00    +0.000 A 
ATOM      7  C   UNL     1      -3.228  12.632  22.564  0.00  0.00    +0.000 A 
ATOM      8  C   UNL     1      -2.123  11.825  22.168  0.00  0.00    +0.000 A 
ATOM      9  C   UNL     1      -1.313  11.080  23.063  0.00  0.00    +0.000 A 
ATOM     10  C   UNL     1      -0.340  10.174  22.614  0.00  0.00    +0.000 A 
ATOM     11  C   UNL     1      -0.052  10.072  21.255  0.00  0.00    +0.000 A 
ATOM     12  C   UNL     1       0.858   9.151  20.715  0.00  0.00    +0.000 A 
ATOM     13  C   UNL     1       1.188   9.147  19.379  0.00  0.00    +0.000 A 
ATOM     14  C   UNL     1       0.672  10.069  18.505  0.00  0.00    +0.000 A 
ATOM     15  C   UNL     1      -0.292  10.948  19.001  0.00  0.00    +0.000 A 
ATOM     16  C   UNL     1      -0.722  10.920  20.353  0.00  0.00    +0.000 A 
ATOM     17  C   UNL     1      -1.834  11.696  20.796  0.00  0.00    +0.000 A 
ATOM     18  N   UNL     1      -2.691  12.224  19.867  0.00  0.00    +0.000 N 
ATOM     19  C   UNL     1      -2.364  12.058  18.406  0.00  0.00    +0.000 C 
ATOM     20  C   UNL     1      -0.879  12.018  18.137  0.00  0.00    +0.000 C 
ATOM     21  O   UNL     1       2.054   8.156  19.049  0.00  0.00    +0.000 OA
ATOM     22  C   UNL     1       2.140   7.447  20.300  0.00  0.00    +0.000 C 
ATOM     23  O   UNL     1       1.486   8.142  21.385  0.00  0.00    +0.000 OA
ENDROOT
BRANCH   3  24
ATOM     24  O   UNL     1      -6.429  14.006  21.288  0.00  0.00    +0.000 OA
ATOM     25  C   UNL     1      -6.426  15.397  20.951  0.00  0.00    +0.000 C 
ENDBRANCH   3  24
BRANCH   4  26
ATOM     26  O   UNL     1      -6.595  14.646  24.105  0.00  0.00    +0.000 OA
ATOM     27  C   UNL     1      -7.720  13.849  24.450  0.00  0.00    +0.000 C 
ENDBRANCH   4  26
BRANCH   1  28
ATOM     28  C   UNL     1      -4.998  12.715  19.139  0.00  0.00    +0.000 C 
BRANCH  28  30
ATOM     29  C   UNL     1      -7.143  11.480  19.009  0.00  0.00    +0.000 C 
ATOM     30  C   UNL     1      -5.804  11.472  18.933  0.00  0.00    +0.000 C 
ENDBRANCH  28  30
ENDBRANCH   1  28
TORSDOF 4
ENDMDL
MODEL 6
REMARK VINA RESULT:      -7.1      1.336      3.847
REMARK  Name = 
REMARK  6 active torsions:
REMARK  status: ('A' for Active; 'I' for Inactive)
REMARK    1  A    between atoms: C_2  and  C_3
REMARK    2  A    between atoms: C_3  and  C_4
REMARK    3  A    between atoms: C_6  and  O_7
REMARK    4  A    between atoms: O_7  and  C_8
REMARK    5  A    between atoms: C_9  and  O_10
REMARK    6  A    between atoms: O_10  and  C_11
REMARK                            x       y       z     vdW  Elec       q    Type
REMARK                         _______ _______ _______ _____ _____    ______ ____
ROOT
ATOM      1  C   UNL     1       3.230   7.026  18.463  0.00  0.00    +0.000 A 
ATOM      2  C   UNL     1       2.989   5.831  19.247  0.00  0.00    +0.000 A 
ATOM      3  C   UNL     1       3.692   4.558  19.146  0.00  0.00    +0.000 A 
ATOM      4  C   UNL     1       3.289   3.411  19.856  0.00  0.00    +0.000 A 
ATOM      5  C   UNL     1       2.241   3.523  20.752  0.00  0.00    +0.000 A 
ATOM      6  C   UNL     1       1.617   4.748  20.956  0.00  0.00    +0.000 A 
ATOM      7  C   UNL     1       1.980   5.919  20.248  0.00  0.00    +0.000 A 
ATOM      8  C   UNL     1       1.384   7.175  20.559  0.00  0.00    +0.000 A 
ATOM      9  C   UNL     1       0.669   7.449  21.754  0.00  0.00    +0.000 A 
ATOM     10  C   UNL     1       0.241   8.742  22.089  0.00  0.00    +0.000 A 
ATOM     11  C   UNL     1       0.400   9.790  21.186  0.00  0.00    +0.000 A 
ATOM     12  C   UNL     1       0.059  11.122  21.464  0.00  0.00    +0.000 A 
ATOM     13  C   UNL     1       0.139  12.111  20.510  0.00  0.00    +0.000 A 
ATOM     14  C   UNL     1       0.525  11.842  19.222  0.00  0.00    +0.000 A 
ATOM     15  C   UNL     1       0.940  10.541  18.939  0.00  0.00    +0.000 A 
ATOM     16  C   UNL     1       0.956   9.518  19.921  0.00  0.00    +0.000 A 
ATOM     17  C   UNL     1       1.555   8.249  19.665  0.00  0.00    +0.000 A 
ATOM     18  N   UNL     1       2.398   8.114  18.593  0.00  0.00    +0.000 N 
ATOM     19  C   UNL     1       2.573   9.284  17.660  0.00  0.00    +0.000 C 
ATOM     20  C   UNL     1       1.335  10.140  17.553  0.00  0.00    +0.000 C 
ATOM     21  O   UNL     1      -0.196  13.336  20.987  0.00  0.00    +0.000 OA
ATOM     22  C   UNL     1      -0.376  13.041  22.385  0.00  0.00    +0.000 C 
ATOM     23  O   UNL     1      -0.338  11.623  22.668  0.00  0.00    +0.000 OA
ENDROOT
BRANCH   3  24
ATOM     24  O   UNL     1       4.720   4.418  18.248  0.00  0.00    +0.000 OA
ATOM     25  C   UNL     1       6.012   4.499  18.860  0.00  0.00    +0.000 C 
ENDBRANCH   3  24
BRANCH   4  26
ATOM     26  O   UNL     1       3.855   2.166  19.846  0.00  0.00    +0.000 OA
ATOM     27  C   UNL     1       3.616   1.323  18.726  0.00  0.00    +0.000 C 
ENDBRANCH   4  26
BRANCH   1  28
ATOM     28  C   UNL     1       4.493   7.229  17.634  0.00  0.00    +0.000 C 
BRANCH  28  30
ATOM     29  C   UNL     1       5.424   6.172  15.594  0.00  0.00    +0.000 C 
ATOM     30  C   UNL     1       4.453   6.891  16.177  0.00  0.00    +0.000 C 
ENDBRANCH  28  30
ENDBRANCH   1  28
TORSDOF 4
ENDMDL
MODEL 7
REMARK VINA RESULT:      -7.0      1.656      8.140
REMARK  Name = 
REMARK  6 active torsions:
REMARK  status: ('A' for Active; 'I' for Inactive)
REMARK    1  A    between atoms: C_2  and  C_3
REMARK    2  A    between atoms: C_3  and  C_4
REMARK    3  A    between atoms: C_6  and  O_7
REMARK    4  A    between atoms: O_7  and  C_8
REMARK    5  A    between atoms: C_9  and  O_10
REMARK    6  A    between atoms: O_10  and  C_11
REMARK                            x       y       z     vdW  Elec       q    Type
REMARK                         _______ _______ _______ _____ _____    ______ ____
ROOT
ATOM      1  C   UNL     1       0.230  10.495  19.268  0.00  0.00    +0.000 A 
ATOM      2  C   UNL     1      -0.291  10.526  20.621  0.00  0.00    +0.000 A 
ATOM      3  C   UNL     1      -1.218  11.501  21.183  0.00  0.00    +0.000 A 
ATOM      4  C   UNL     1      -1.554  11.527  22.550  0.00  0.00    +0.000 A 
ATOM      5  C   UNL     1      -1.054  10.533  23.372  0.00  0.00    +0.000 A 
ATOM      6  C   UNL     1      -0.254   9.522  22.850  0.00  0.00    +0.000 A 
ATOM      7  C   UNL     1       0.122   9.473  21.486  0.00  0.00    +0.000 A 
ATOM      8  C   UNL     1       0.857   8.367  20.971  0.00  0.00    +0.000 A 
ATOM      9  C   UNL     1       0.991   7.117  21.629  0.00  0.00    +0.000 A 
ATOM     10  C   UNL     1       1.587   6.007  21.012  0.00  0.00    +0.000 A 
ATOM     11  C   UNL     1       2.186   6.137  19.762  0.00  0.00    +0.000 A 
ATOM     12  C   UNL     1       2.748   5.069  19.046  0.00  0.00    +0.000 A 
ATOM     13  C   UNL     1       3.416   5.256  17.859  0.00  0.00    +0.000 A 
ATOM     14  C   UNL     1       3.603   6.505  17.324  0.00  0.00    +0.000 A 
ATOM     15  C   UNL     1       2.991   7.575  17.976  0.00  0.00    +0.000 A 
ATOM     16  C   UNL     1       2.218   7.407  19.153  0.00  0.00    +0.000 A 
ATOM     17  C   UNL     1       1.450   8.478  19.699  0.00  0.00    +0.000 A 
ATOM     18  N   UNL     1       1.195   9.579  18.923  0.00  0.00    +0.000 N 
ATOM     19  C   UNL     1       1.831   9.664  17.560  0.00  0.00    +0.000 C 
ATOM     20  C   UNL     1       3.174   8.980  17.494  0.00  0.00    +0.000 C 
ATOM     21  O   UNL     1       3.850   4.095  17.305  0.00  0.00    +0.000 OA
ATOM     22  C   UNL     1       3.271   3.134  18.209  0.00  0.00    +0.000 C 
ATOM     23  O   UNL     1       2.680   3.747  19.377  0.00  0.00    +0.000 OA
ENDROOT
BRANCH   3  24
ATOM     24  O   UNL     1      -1.707  12.508  20.391  0.00  0.00    +0.000 OA
ATOM     25  C   UNL     1      -3.132  12.469  20.252  0.00  0.00    +0.000 C 
ENDBRANCH   3  24
BRANCH   4  26
ATOM     26  O   UNL     1      -2.399  12.384  23.198  0.00  0.00    +0.000 OA
ATOM     27  C   UNL     1      -1.887  13.634  23.643  0.00  0.00    +0.000 C 
ENDBRANCH   4  26
BRANCH   1  28
ATOM     28  C   UNL     1      -0.384  11.301  18.129  0.00  0.00    +0.000 C 
BRANCH  28  30
ATOM     29  C   UNL     1      -2.385   9.856  17.896  0.00  0.00    +0.000 C 
ATOM     30  C   UNL     1      -1.492  10.684  17.334  0.00  0.00    +0.000 C 
ENDBRANCH  28  30
ENDBRANCH   1  28
TORSDOF 4
ENDMDL
MODEL 8
REMARK VINA RESULT:      -7.0      1.335      8.054
REMARK  Name = 
REMARK  6 active torsions:
REMARK  status: ('A' for Active; 'I' for Inactive)
REMARK    1  A    between atoms: C_2  and  C_3
REMARK    2  A    between atoms: C_3  and  C_4
REMARK    3  A    between atoms: C_6  and  O_7
REMARK    4  A    between atoms: O_7  and  C_8
REMARK    5  A    between atoms: C_9  and  O_10
REMARK    6  A    between atoms: O_10  and  C_11
REMARK                            x       y       z     vdW  Elec       q    Type
REMARK                         _______ _______ _______ _____ _____    ______ ____
ROOT
ATOM      1  C   UNL     1       1.485   9.668  19.085  0.00  0.00    +0.000 A 
ATOM      2  C   UNL     1       0.827   9.777  20.372  0.00  0.00    +0.000 A 
ATOM      3  C   UNL     1       0.091  10.926  20.888  0.00  0.00    +0.000 A 
ATOM      4  C   UNL     1      -0.392  10.986  22.209  0.00  0.00    +0.000 A 
ATOM      5  C   UNL     1      -0.240   9.875  23.019  0.00  0.00    +0.000 A 
ATOM      6  C   UNL     1       0.360   8.720  22.527  0.00  0.00    +0.000 A 
ATOM      7  C   UNL     1       0.875   8.628  21.212  0.00  0.00    +0.000 A 
ATOM      8  C   UNL     1       1.389   7.396  20.714  0.00  0.00    +0.000 A 
ATOM      9  C   UNL     1       1.148   6.129  21.306  0.00  0.00    +0.000 A 
ATOM     10  C   UNL     1       1.539   4.930  20.692  0.00  0.00    +0.000 A 
ATOM     11  C   UNL     1       2.298   4.955  19.524  0.00  0.00    +0.000 A 
ATOM     12  C   UNL     1       2.677   3.808  18.812  0.00  0.00    +0.000 A 
ATOM     13  C   UNL     1       3.509   3.869  17.717  0.00  0.00    +0.000 A 
ATOM     14  C   UNL     1       4.045   5.054  17.282  0.00  0.00    +0.000 A 
ATOM     15  C   UNL     1       3.624   6.218  17.927  0.00  0.00    +0.000 A 
ATOM     16  C   UNL     1       2.698   6.200  19.001  0.00  0.00    +0.000 A 
ATOM     17  C   UNL     1       2.140   7.405  19.523  0.00  0.00    +0.000 A 
ATOM     18  N   UNL     1       2.244   8.559  18.793  0.00  0.00    +0.000 N 
ATOM     19  C   UNL     1       3.042   8.535  17.515  0.00  0.00    +0.000 C 
ATOM     20  C   UNL     1       4.187   7.553  17.554  0.00  0.00    +0.000 C 
ATOM     21  O   UNL     1       3.724   2.658  17.146  0.00  0.00    +0.000 OA
ATOM     22  C   UNL     1       2.833   1.833  17.920  0.00  0.00    +0.000 C 
ATOM     23  O   UNL     1       2.264   2.530  19.052  0.00  0.00    +0.000 OA
ENDROOT
BRANCH   3  24
ATOM     24  O   UNL     1      -0.051  12.046  20.110  0.00  0.00    +0.000 OA
ATOM     25  C   UNL     1      -1.373  12.195  19.580  0.00  0.00    +0.000 C 
ENDBRANCH   3  24
BRANCH   4  26
ATOM     26  O   UNL     1      -1.085  11.998  22.812  0.00  0.00    +0.000 OA
ATOM     27  C   UNL     1      -2.404  11.733  23.275  0.00  0.00    +0.000 C 
ENDBRANCH   4  26
BRANCH   1  28
ATOM     28  C   UNL     1       1.216  10.633  17.936  0.00  0.00    +0.000 C 
BRANCH  28  30
ATOM     29  C   UNL     1       2.467  12.720  18.414  0.00  0.00    +0.000 C 
ATOM     30  C   UNL     1       2.251  11.665  17.614  0.00  0.00    +0.000 C 
ENDBRANCH  28  30
ENDBRANCH   1  28
TORSDOF 4
ENDMDL
MODEL 9
REMARK VINA RESULT:      -7.0      7.443      9.397
REMARK  Name = 
REMARK  6 active torsions:
REMARK  status: ('A' for Active; 'I' for Inactive)
REMARK    1  A    between atoms: C_2  and  C_3
REMARK    2  A    between atoms: C_3  and  C_4
REMARK    3  A    between atoms: C_6  and  O_7
REMARK    4  A    between atoms: O_7  and  C_8
REMARK    5  A    between atoms: C_9  and  O_10
REMARK    6  A    between atoms: O_10  and  C_11
REMARK                            x       y       z     vdW  Elec       q    Type
REMARK                         _______ _______ _______ _____ _____    ______ ____
ROOT
ATOM      1  C   UNL     1      -5.087  12.568  20.629  0.00  0.00    +0.000 A 
ATOM      2  C   UNL     1      -4.264  12.212  19.490  0.00  0.00    +0.000 A 
ATOM      3  C   UNL     1      -4.723  11.763  18.181  0.00  0.00    +0.000 A 
ATOM      4  C   UNL     1      -3.840  11.305  17.184  0.00  0.00    +0.000 A 
ATOM      5  C   UNL     1      -2.480  11.370  17.426  0.00  0.00    +0.000 A 
ATOM      6  C   UNL     1      -2.001  11.894  18.622  0.00  0.00    +0.000 A 
ATOM      7  C   UNL     1      -2.856  12.346  19.655  0.00  0.00    +0.000 A 
ATOM      8  C   UNL     1      -2.326  12.969  20.822  0.00  0.00    +0.000 A 
ATOM      9  C   UNL     1      -1.008  13.486  20.925  0.00  0.00    +0.000 A 
ATOM     10  C   UNL     1      -0.584  14.234  22.034  0.00  0.00    +0.000 A 
ATOM     11  C   UNL     1      -1.419  14.386  23.138  0.00  0.00    +0.000 A 
ATOM     12  C   UNL     1      -1.100  15.167  24.259  0.00  0.00    +0.000 A 
ATOM     13  C   UNL     1      -1.909  15.214  25.371  0.00  0.00    +0.000 A 
ATOM     14  C   UNL     1      -3.057  14.469  25.461  0.00  0.00    +0.000 A 
ATOM     15  C   UNL     1      -3.435  13.743  24.332  0.00  0.00    +0.000 A 
ATOM     16  C   UNL     1      -2.672  13.744  23.136  0.00  0.00    +0.000 A 
ATOM     17  C   UNL     1      -3.165  13.149  21.937  0.00  0.00    +0.000 A 
ATOM     18  N   UNL     1      -4.500  12.856  21.839  0.00  0.00    +0.000 N 
ATOM     19  C   UNL     1      -5.377  13.072  23.044  0.00  0.00    +0.000 C 
ATOM     20  C   UNL     1      -4.646  12.865  24.348  0.00  0.00    +0.000 C 
ATOM     21  O   UNL     1      -1.446  16.056  26.329  0.00  0.00    +0.000 OA
ATOM     22  C   UNL     1      -0.317  16.640  25.651  0.00  0.00    +0.000 C 
ATOM     23  O   UNL     1      -0.022  15.993  24.393  0.00  0.00    +0.000 OA
ENDROOT
BRANCH   3  24
ATOM     24  O   UNL     1      -6.067  11.671  17.927  0.00  0.00    +0.000 OA
ATOM     25  C   UNL     1      -6.545  12.701  17.054  0.00  0.00    +0.000 C 
ENDBRANCH   3  24
BRANCH   4  26
ATOM     26  O   UNL     1      -4.140  10.857  15.928  0.00  0.00    +0.000 OA
ATOM     27  C   UNL     1      -3.071  10.498  15.063  0.00  0.00    +0.000 C 
ENDBRANCH   4  26
BRANCH   1  28
ATOM     28  C   UNL     1      -6.582  12.844  20.513  0.00  0.00    +0.000 C 
BRANCH  28  30
ATOM     29  C   UNL     1      -6.158  15.203  19.882  0.00  0.00    +0.000 C 
ATOM     30  C   UNL     1      -7.030  14.240  20.216  0.00  0.00    +0.000 C 
ENDBRANCH  28  30
ENDBRANCH   1  28
TORSDOF 4
ENDMDL
