MODEL 1
REMARK VINA RESULT:      -8.8      0.000      0.000
REMARK  Name = 
REMARK  7 active torsions:
REMARK  status: ('A' for Active; 'I' for Inactive)
REMARK    1  A    between atoms: C_1  and  O_2
REMARK    2  A    between atoms: O_2  and  C_3
REMARK    3  A    between atoms: C_7  and  C_8
REMARK    4  A    between atoms: C_8  and  C_9
REMARK    5  A    between atoms: N_11  and  C_12
REMARK    6  A    between atoms: C_13  and  C_14
REMARK    7  A    between atoms: N_19  and  C_20
REMARK                            x       y       z     vdW  Elec       q    Type
REMARK                         _______ _______ _______ _____ _____    ______ ____
ROOT
ATOM      1  C   UNL     1       1.606   9.305  19.387  0.00  0.00    +0.000 A 
ATOM      2  C   UNL     1       0.963  10.395  18.823  0.00  0.00    +0.000 A 
ATOM      3  O   UNL     1       0.884  11.371  19.792  0.00  0.00    +0.000 OA
ATOM      4  C   UNL     1       0.691  10.648  20.934  0.00  0.00    +0.000 A 
ATOM      5  C   UNL     1       0.130  11.177  22.093  0.00  0.00    +0.000 A 
ATOM      6  C   UNL     1      -0.691  10.290  22.784  0.00  0.00    +0.000 A 
ATOM      7  C   UNL     1      -0.798   8.954  22.379  0.00  0.00    +0.000 A 
ATOM      8  C   UNL     1       0.032   8.408  21.364  0.00  0.00    +0.000 A 
ATOM      9  C   UNL     1       0.844   9.292  20.620  0.00  0.00    +0.000 A 
ENDROOT
BRANCH   2  10
ATOM     10  C   UNL     1      -0.132  10.097  17.890  0.00  0.00    +0.000 C 
ATOM     11  O   UNL     1      -0.196   8.966  17.383  0.00  0.00    +0.000 OA
ATOM     12  N   UNL     1      -1.180  10.965  17.658  0.00  0.00    +0.000 N 
ATOM     13  C   UNL     1      -2.344  10.400  16.965  0.00  0.00    +0.000 C 
ATOM     14  C   UNL     1      -3.508  10.199  17.949  0.00  0.00    +0.000 C 
ATOM     15  N   UNL     1      -3.794  11.483  18.600  0.00  0.00    +0.000 N 
ATOM     16  C   UNL     1      -2.655  12.130  19.279  0.00  0.00    +0.000 C 
ATOM     17  C   UNL     1      -1.438  12.235  18.334  0.00  0.00    +0.000 C 
BRANCH  15  18
ATOM     18  C   UNL     1      -5.062  12.017  18.598  0.00  0.00    +0.000 A 
ATOM     19  C   UNL     1      -5.712  12.353  19.797  0.00  0.00    +0.000 A 
ATOM     20  C   UNL     1      -7.004  12.881  19.808  0.00  0.00    +0.000 A 
ATOM     21  C   UNL     1      -7.686  13.074  18.611  0.00  0.00    +0.000 A 
ATOM     22  C   UNL     1      -7.066  12.745  17.408  0.00  0.00    +0.000 A 
ATOM     23  C   UNL     1      -5.766  12.228  17.405  0.00  0.00    +0.000 A 
ENDBRANCH  15  18
ENDBRANCH   2  10
BRANCH   1  26
ATOM     24  C   UNL     1       2.553   7.057  19.052  0.00  0.00    +0.000 C 
ATOM     25  O   UNL     1       2.218   6.646  20.160  0.00  0.00    +0.000 OA
ATOM     26  N   UNL     1       2.296   8.373  18.588  0.00  0.00    +0.000 N 
ATOM     27  H   UNL     1       2.561   8.666  17.661  0.00  0.00    +0.000 HD
BRANCH  24  28
ATOM     28  C   UNL     1       3.131   6.102  18.006  0.00  0.00    +0.000 C 
BRANCH  28  33
ATOM     29  C   UNL     1       6.650   5.660  16.536  0.00  0.00    +0.000 A 
ATOM     30  C   UNL     1       7.413   5.280  17.639  0.00  0.00    +0.000 A 
ATOM     31  C   UNL     1       6.805   5.164  18.889  0.00  0.00    +0.000 A 
ATOM     32  C   UNL     1       5.427   5.417  19.050  0.00  0.00    +0.000 A 
ATOM     33  C   UNL     1       4.632   5.785  17.958  0.00  0.00    +0.000 A 
ATOM     34  C   UNL     1       5.268   5.876  16.700  0.00  0.00    +0.000 A 
BRANCH  29  36
ATOM     35  C   UNL     1       6.910   4.772  14.370  0.00  0.00    +0.000 C 
ATOM     36  O   UNL     1       7.318   5.721  15.350  0.00  0.00    +0.000 OA
ENDBRANCH  29  36
ENDBRANCH  28  33
ENDBRANCH  24  28
ENDBRANCH   1  26
TORSDOF 6
ENDMDL
MODEL 2
REMARK VINA RESULT:      -8.3      3.032      8.936
REMARK  Name = 
REMARK  7 active torsions:
REMARK  status: ('A' for Active; 'I' for Inactive)
REMARK    1  A    between atoms: C_1  and  O_2
REMARK    2  A    between atoms: O_2  and  C_3
REMARK    3  A    between atoms: C_7  and  C_8
REMARK    4  A    between atoms: C_8  and  C_9
REMARK    5  A    between atoms: N_11  and  C_12
REMARK    6  A    between atoms: C_13  and  C_14
REMARK    7  A    between atoms: N_19  and  C_20
REMARK                            x       y       z     vdW  Elec       q    Type
REMARK                         _______ _______ _______ _____ _____    ______ ____
ROOT
ATOM      1  C   UNL     1       0.259  13.095  20.622  0.00  0.00    +0.000 A 
ATOM      2  C   UNL     1       1.372  12.287  20.457  0.00  0.00    +0.000 A 
ATOM      3  O   UNL     1       2.462  12.992  20.919  0.00  0.00    +0.000 OA
ATOM      4  C   UNL     1       2.166  14.276  20.561  0.00  0.00    +0.000 A 
ATOM      5  C   UNL     1       3.124  15.275  20.419  0.00  0.00    +0.000 A 
ATOM      6  C   UNL     1       2.871  16.164  19.379  0.00  0.00    +0.000 A 
ATOM      7  C   UNL     1       1.672  16.094  18.657  0.00  0.00    +0.000 A 
ATOM      8  C   UNL     1       0.609  15.237  19.048  0.00  0.00    +0.000 A 
ATOM      9  C   UNL     1       0.853  14.298  20.073  0.00  0.00    +0.000 A 
ENDROOT
BRANCH   2  10
ATOM     10  C   UNL     1       1.406  11.459  19.244  0.00  0.00    +0.000 C 
ATOM     11  O   UNL     1       1.964  11.906  18.229  0.00  0.00    +0.000 OA
ATOM     12  N   UNL     1       0.977  10.148  19.216  0.00  0.00    +0.000 N 
ATOM     13  C   UNL     1       1.373   9.364  18.038  0.00  0.00    +0.000 C 
ATOM     14  C   UNL     1       2.486   8.370  18.406  0.00  0.00    +0.000 C 
ATOM     15  N   UNL     1       2.015   7.537  19.519  0.00  0.00    +0.000 N 
ATOM     16  C   UNL     1       1.560   8.262  20.720  0.00  0.00    +0.000 C 
ATOM     17  C   UNL     1       0.523   9.345  20.349  0.00  0.00    +0.000 C 
BRANCH  15  18
ATOM     18  C   UNL     1       2.040   6.163  19.443  0.00  0.00    +0.000 A 
ATOM     19  C   UNL     1       1.668   5.366  20.539  0.00  0.00    +0.000 A 
ATOM     20  C   UNL     1       1.705   3.972  20.478  0.00  0.00    +0.000 A 
ATOM     21  C   UNL     1       2.131   3.338  19.315  0.00  0.00    +0.000 A 
ATOM     22  C   UNL     1       2.510   4.105  18.216  0.00  0.00    +0.000 A 
ATOM     23  C   UNL     1       2.459   5.502  18.281  0.00  0.00    +0.000 A 
ENDBRANCH  15  18
ENDBRANCH   2  10
BRANCH   1  26
ATOM     24  C   UNL     1      -2.155  13.357  21.029  0.00  0.00    +0.000 C 
ATOM     25  O   UNL     1      -2.091  14.571  21.201  0.00  0.00    +0.000 OA
ATOM     26  N   UNL     1      -1.030  12.541  20.744  0.00  0.00    +0.000 N 
ATOM     27  H   UNL     1      -1.125  11.552  20.579  0.00  0.00    +0.000 HD
BRANCH  24  28
ATOM     28  C   UNL     1      -3.509  12.651  20.934  0.00  0.00    +0.000 C 
BRANCH  28  33
ATOM     29  C   UNL     1      -3.959  11.407  17.331  0.00  0.00    +0.000 A 
ATOM     30  C   UNL     1      -5.254  11.811  17.011  0.00  0.00    +0.000 A 
ATOM     31  C   UNL     1      -6.016  12.493  17.959  0.00  0.00    +0.000 A 
ATOM     32  C   UNL     1      -5.490  12.787  19.235  0.00  0.00    +0.000 A 
ATOM     33  C   UNL     1      -4.188  12.406  19.579  0.00  0.00    +0.000 A 
ATOM     34  C   UNL     1      -3.431  11.736  18.594  0.00  0.00    +0.000 A 
BRANCH  29  36
ATOM     35  C   UNL     1      -2.195   9.954  16.765  0.00  0.00    +0.000 C 
ATOM     36  O   UNL     1      -3.277  10.772  16.336  0.00  0.00    +0.000 OA
ENDBRANCH  29  36
ENDBRANCH  28  33
ENDBRANCH  24  28
ENDBRANCH   1  26
TORSDOF 6
ENDMDL
MODEL 3
REMARK VINA RESULT:      -8.2      3.908      6.788
REMARK  Name = 
REMARK  7 active torsions:
REMARK  status: ('A' for Active; 'I' for Inactive)
REMARK    1  A    between atoms: C_1  and  O_2
REMARK    2  A    between atoms: O_2  and  C_3
REMARK    3  A    between atoms: C_7  and  C_8
REMARK    4  A    between atoms: C_8  and  C_9
REMARK    5  A    between atoms: N_11  and  C_12
REMARK    6  A    between atoms: C_13  and  C_14
REMARK    7  A    between atoms: N_19  and  C_20
REMARK                            x       y       z     vdW  Elec       q    Type
REMARK                         _______ _______ _______ _____ _____    ______ ____
ROOT
ATOM      1  C   UNL     1      -0.902  10.549  19.373  0.00  0.00    +0.000 A 
ATOM      2  C   UNL     1      -1.069  11.910  19.572  0.00  0.00    +0.000 A 
ATOM      3  O   UNL     1      -2.424  12.153  19.631  0.00  0.00    +0.000 OA
ATOM      4  C   UNL     1      -2.930  11.261  18.729  0.00  0.00    +0.000 A 
ATOM      5  C   UNL     1      -4.173  11.406  18.120  0.00  0.00    +0.000 A 
ATOM      6  C   UNL     1      -4.210  10.987  16.793  0.00  0.00    +0.000 A 
ATOM      7  C   UNL     1      -3.101  10.356  16.214  0.00  0.00    +0.000 A 
ATOM      8  C   UNL     1      -1.969   9.974  16.981  0.00  0.00    +0.000 A 
ATOM      9  C   UNL     1      -1.888  10.422  18.318  0.00  0.00    +0.000 A 
ENDROOT
BRANCH   2  10
ATOM     10  C   UNL     1      -0.123  12.794  18.877  0.00  0.00    +0.000 C 
ATOM     11  O   UNL     1      -0.420  13.219  17.749  0.00  0.00    +0.000 OA
ATOM     12  N   UNL     1       1.016  13.295  19.473  0.00  0.00    +0.000 N 
ATOM     13  C   UNL     1       1.674  14.406  18.775  0.00  0.00    +0.000 C 
ATOM     14  C   UNL     1       1.421  15.729  19.515  0.00  0.00    +0.000 C 
ATOM     15  N   UNL     1       1.869  15.578  20.905  0.00  0.00    +0.000 N 
ATOM     16  C   UNL     1       1.280  14.452  21.653  0.00  0.00    +0.000 C 
ATOM     17  C   UNL     1       1.426  13.130  20.866  0.00  0.00    +0.000 C 
BRANCH  15  18
ATOM     18  C   UNL     1       2.757  16.464  21.469  0.00  0.00    +0.000 A 
ATOM     19  C   UNL     1       3.280  17.540  20.732  0.00  0.00    +0.000 A 
ATOM     20  C   UNL     1       4.193  18.436  21.289  0.00  0.00    +0.000 A 
ATOM     21  C   UNL     1       4.619  18.268  22.603  0.00  0.00    +0.000 A 
ATOM     22  C   UNL     1       4.120  17.206  23.354  0.00  0.00    +0.000 A 
ATOM     23  C   UNL     1       3.195  16.319  22.792  0.00  0.00    +0.000 A 
ENDBRANCH  15  18
ENDBRANCH   2  10
BRANCH   1  26
ATOM     24  C   UNL     1       0.293   9.004  20.871  0.00  0.00    +0.000 C 
ATOM     25  O   UNL     1      -0.694   8.751  21.556  0.00  0.00    +0.000 OA
ATOM     26  N   UNL     1       0.281   9.895  19.768  0.00  0.00    +0.000 N 
ATOM     27  H   UNL     1       1.105  10.055  19.210  0.00  0.00    +0.000 HD
BRANCH  24  28
ATOM     28  C   UNL     1       1.595   8.220  21.057  0.00  0.00    +0.000 C 
BRANCH  28  33
ATOM     29  C   UNL     1       2.104   4.650  19.743  0.00  0.00    +0.000 A 
ATOM     30  C   UNL     1       2.624   4.849  18.465  0.00  0.00    +0.000 A 
ATOM     31  C   UNL     1       2.817   6.148  17.996  0.00  0.00    +0.000 A 
ATOM     32  C   UNL     1       2.502   7.263  18.800  0.00  0.00    +0.000 A 
ATOM     33  C   UNL     1       1.991   7.093  20.093  0.00  0.00    +0.000 A 
ATOM     34  C   UNL     1       1.825   5.768  20.552  0.00  0.00    +0.000 A 
BRANCH  29  36
ATOM     35  C   UNL     1       1.735   3.148  21.519  0.00  0.00    +0.000 C 
ATOM     36  O   UNL     1       1.974   3.349  20.131  0.00  0.00    +0.000 OA
ENDBRANCH  29  36
ENDBRANCH  28  33
ENDBRANCH  24  28
ENDBRANCH   1  26
TORSDOF 6
ENDMDL
MODEL 4
REMARK VINA RESULT:      -8.2      1.969      2.599
REMARK  Name = 
REMARK  7 active torsions:
REMARK  status: ('A' for Active; 'I' for Inactive)
REMARK    1  A    between atoms: C_1  and  O_2
REMARK    2  A    between atoms: O_2  and  C_3
REMARK    3  A    between atoms: C_7  and  C_8
REMARK    4  A    between atoms: C_8  and  C_9
REMARK    5  A    between atoms: N_11  and  C_12
REMARK    6  A    between atoms: C_13  and  C_14
REMARK    7  A    between atoms: N_19  and  C_20
REMARK                            x       y       z     vdW  Elec       q    Type
REMARK                         _______ _______ _______ _____ _____    ______ ____
ROOT
ATOM      1  C   UNL     1       1.419   9.413  19.375  0.00  0.00    +0.000 A 
ATOM      2  C   UNL     1       0.788  10.494  18.782  0.00  0.00    +0.000 A 
ATOM      3  O   UNL     1       0.773  11.517  19.705  0.00  0.00    +0.000 OA
ATOM      4  C   UNL     1       0.601  10.855  20.887  0.00  0.00    +0.000 A 
ATOM      5  C   UNL     1       0.099  11.455  22.037  0.00  0.00    +0.000 A 
ATOM      6  C   UNL     1      -0.721  10.628  22.800  0.00  0.00    +0.000 A 
ATOM      7  C   UNL     1      -0.882   9.278  22.462  0.00  0.00    +0.000 A 
ATOM      8  C   UNL     1      -0.107   8.659  21.447  0.00  0.00    +0.000 A 
ATOM      9  C   UNL     1       0.702   9.482  20.632  0.00  0.00    +0.000 A 
ENDROOT
BRANCH   2  10
ATOM     10  C   UNL     1      -0.349  10.188  17.903  0.00  0.00    +0.000 C 
ATOM     11  O   UNL     1      -0.447   9.046  17.427  0.00  0.00    +0.000 OA
ATOM     12  N   UNL     1      -1.396  11.062  17.695  0.00  0.00    +0.000 N 
ATOM     13  C   UNL     1      -2.595  10.494  17.066  0.00  0.00    +0.000 C 
ATOM     14  C   UNL     1      -3.718  10.330  18.103  0.00  0.00    +0.000 C 
ATOM     15  N   UNL     1      -3.962  11.632  18.734  0.00  0.00    +0.000 N 
ATOM     16  C   UNL     1      -2.789  12.281  19.349  0.00  0.00    +0.000 C 
ATOM     17  C   UNL     1      -1.612  12.350  18.351  0.00  0.00    +0.000 C 
BRANCH  15  18
ATOM     18  C   UNL     1      -5.223  12.181  18.773  0.00  0.00    +0.000 A 
ATOM     19  C   UNL     1      -5.886  12.397  19.993  0.00  0.00    +0.000 A 
ATOM     20  C   UNL     1      -7.171  12.938  20.044  0.00  0.00    +0.000 A 
ATOM     21  C   UNL     1      -7.834  13.266  18.865  0.00  0.00    +0.000 A 
ATOM     22  C   UNL     1      -7.202  13.058  17.643  0.00  0.00    +0.000 A 
ATOM     23  C   UNL     1      -5.909  12.526  17.601  0.00  0.00    +0.000 A 
ENDBRANCH  15  18
ENDBRANCH   2  10
BRANCH   1  26
ATOM     24  C   UNL     1       2.445   7.185  19.166  0.00  0.00    +0.000 C 
ATOM     25  O   UNL     1       2.283   6.894  20.348  0.00  0.00    +0.000 OA
ATOM     26  N   UNL     1       2.051   8.423  18.597  0.00  0.00    +0.000 N 
ATOM     27  H   UNL     1       2.174   8.615  17.616  0.00  0.00    +0.000 HD
BRANCH  24  28
ATOM     28  C   UNL     1       2.935   6.138  18.163  0.00  0.00    +0.000 C 
BRANCH  28  33
ATOM     29  C   UNL     1       3.521   2.439  19.006  0.00  0.00    +0.000 A 
ATOM     30  C   UNL     1       2.271   1.860  18.798  0.00  0.00    +0.000 A 
ATOM     31  C   UNL     1       1.204   2.657  18.383  0.00  0.00    +0.000 A 
ATOM     32  C   UNL     1       1.376   4.040  18.164  0.00  0.00    +0.000 A 
ATOM     33  C   UNL     1       2.624   4.647  18.351  0.00  0.00    +0.000 A 
ATOM     34  C   UNL     1       3.692   3.814  18.751  0.00  0.00    +0.000 A 
BRANCH  29  36
ATOM     35  C   UNL     1       4.939   1.701  20.735  0.00  0.00    +0.000 C 
ATOM     36  O   UNL     1       4.512   1.582  19.383  0.00  0.00    +0.000 OA
ENDBRANCH  29  36
ENDBRANCH  28  33
ENDBRANCH  24  28
ENDBRANCH   1  26
TORSDOF 6
ENDMDL
MODEL 5
REMARK VINA RESULT:      -8.2      0.991      1.504
REMARK  Name = 
REMARK  7 active torsions:
REMARK  status: ('A' for Active; 'I' for Inactive)
REMARK    1  A    between atoms: C_1  and  O_2
REMARK    2  A    between atoms: O_2  and  C_3
REMARK    3  A    between atoms: C_7  and  C_8
REMARK    4  A    between atoms: C_8  and  C_9
REMARK    5  A    between atoms: N_11  and  C_12
REMARK    6  A    between atoms: C_13  and  C_14
REMARK    7  A    between atoms: N_19  and  C_20
REMARK                            x       y       z     vdW  Elec       q    Type
REMARK                         _______ _______ _______ _____ _____    ______ ____
ROOT
ATOM      1  C   UNL     1       1.461   9.153  19.185  0.00  0.00    +0.000 A 
ATOM      2  C   UNL     1       0.933  10.334  18.690  0.00  0.00    +0.000 A 
ATOM      3  O   UNL     1       1.046  11.282  19.683  0.00  0.00    +0.000 OA
ATOM      4  C   UNL     1       0.832  10.555  20.820  0.00  0.00    +0.000 A 
ATOM      5  C   UNL     1       0.422  11.117  22.025  0.00  0.00    +0.000 A 
ATOM      6  C   UNL     1      -0.463  10.324  22.751  0.00  0.00    +0.000 A 
ATOM      7  C   UNL     1      -0.771   9.026  22.324  0.00  0.00    +0.000 A 
ATOM      8  C   UNL     1      -0.088   8.408  21.244  0.00  0.00    +0.000 A 
ATOM      9  C   UNL     1       0.784   9.201  20.466  0.00  0.00    +0.000 A 
ENDROOT
BRANCH   2  10
ATOM     10  C   UNL     1      -0.250  10.211  17.827  0.00  0.00    +0.000 C 
ATOM     11  O   UNL     1      -0.427   9.154  17.201  0.00  0.00    +0.000 OA
ATOM     12  N   UNL     1      -1.254  11.157  17.786  0.00  0.00    +0.000 N 
ATOM     13  C   UNL     1      -2.504  10.743  17.136  0.00  0.00    +0.000 C 
ATOM     14  C   UNL     1      -3.596  10.491  18.187  0.00  0.00    +0.000 C 
ATOM     15  N   UNL     1      -3.746  11.702  19.002  0.00  0.00    +0.000 N 
ATOM     16  C   UNL     1      -2.518  12.199  19.651  0.00  0.00    +0.000 C 
ATOM     17  C   UNL     1      -1.374  12.349  18.623  0.00  0.00    +0.000 C 
BRANCH  15  18
ATOM     18  C   UNL     1      -4.973  12.302  19.171  0.00  0.00    +0.000 A 
ATOM     19  C   UNL     1      -6.119  11.811  18.523  0.00  0.00    +0.000 A 
ATOM     20  C   UNL     1      -7.365  12.422  18.674  0.00  0.00    +0.000 A 
ATOM     21  C   UNL     1      -7.492  13.554  19.472  0.00  0.00    +0.000 A 
ATOM     22  C   UNL     1      -6.370  14.064  20.121  0.00  0.00    +0.000 A 
ATOM     23  C   UNL     1      -5.127  13.440  19.974  0.00  0.00    +0.000 A 
ENDBRANCH  15  18
ENDBRANCH   2  10
BRANCH   1  26
ATOM     24  C   UNL     1       2.533   6.965  18.829  0.00  0.00    +0.000 C 
ATOM     25  O   UNL     1       2.633   6.711  20.026  0.00  0.00    +0.000 OA
ATOM     26  N   UNL     1       1.969   8.164  18.320  0.00  0.00    +0.000 N 
ATOM     27  H   UNL     1       1.877   8.325  17.330  0.00  0.00    +0.000 HD
BRANCH  24  28
ATOM     28  C   UNL     1       2.859   5.905  17.775  0.00  0.00    +0.000 C 
BRANCH  28  33
ATOM     29  C   UNL     1       6.686   6.185  17.700  0.00  0.00    +0.000 A 
ATOM     30  C   UNL     1       7.065   5.175  16.817  0.00  0.00    +0.000 A 
ATOM     31  C   UNL     1       6.087   4.374  16.228  0.00  0.00    +0.000 A 
ATOM     32  C   UNL     1       4.719   4.577  16.507  0.00  0.00    +0.000 A 
ATOM     33  C   UNL     1       4.309   5.594  17.378  0.00  0.00    +0.000 A 
ATOM     34  C   UNL     1       5.317   6.404  17.945  0.00  0.00    +0.000 A 
BRANCH  29  36
ATOM     35  C   UNL     1       7.853   8.230  17.630  0.00  0.00    +0.000 C 
ATOM     36  O   UNL     1       7.704   6.937  18.207  0.00  0.00    +0.000 OA
ENDBRANCH  29  36
ENDBRANCH  28  33
ENDBRANCH  24  28
ENDBRANCH   1  26
TORSDOF 6
ENDMDL
MODEL 6
REMARK VINA RESULT:      -8.2      1.946      2.840
REMARK  Name = 
REMARK  7 active torsions:
REMARK  status: ('A' for Active; 'I' for Inactive)
REMARK    1  A    between atoms: C_1  and  O_2
REMARK    2  A    between atoms: O_2  and  C_3
REMARK    3  A    between atoms: C_7  and  C_8
REMARK    4  A    between atoms: C_8  and  C_9
REMARK    5  A    between atoms: N_11  and  C_12
REMARK    6  A    between atoms: C_13  and  C_14
REMARK    7  A    between atoms: N_19  and  C_20
REMARK                            x       y       z     vdW  Elec       q    Type
REMARK                         _______ _______ _______ _____ _____    ______ ____
ROOT
ATOM      1  C   UNL     1       1.322   9.472  19.375  0.00  0.00    +0.000 A 
ATOM      2  C   UNL     1       0.745  10.661  18.961  0.00  0.00    +0.000 A 
ATOM      3  O   UNL     1       0.787  11.532  20.028  0.00  0.00    +0.000 OA
ATOM      4  C   UNL     1       0.586  10.708  21.098  0.00  0.00    +0.000 A 
ATOM      5  C   UNL     1       0.121  11.150  22.332  0.00  0.00    +0.000 A 
ATOM      6  C   UNL     1      -0.738  10.259  22.970  0.00  0.00    +0.000 A 
ATOM      7  C   UNL     1      -0.970   8.986  22.435  0.00  0.00    +0.000 A 
ATOM      8  C   UNL     1      -0.231   8.490  21.328  0.00  0.00    +0.000 A 
ATOM      9  C   UNL     1       0.616   9.385  20.637  0.00  0.00    +0.000 A 
ENDROOT
BRANCH   2  10
ATOM     10  C   UNL     1      -0.410  10.549  18.060  0.00  0.00    +0.000 C 
ATOM     11  O   UNL     1      -0.557   9.507  17.402  0.00  0.00    +0.000 OA
ATOM     12  N   UNL     1      -1.422  11.486  18.014  0.00  0.00    +0.000 N 
ATOM     13  C   UNL     1      -2.648  11.077  17.316  0.00  0.00    +0.000 C 
ATOM     14  C   UNL     1      -3.769  10.786  18.327  0.00  0.00    +0.000 C 
ATOM     15  N   UNL     1      -3.955  11.974  19.169  0.00  0.00    +0.000 N 
ATOM     16  C   UNL     1      -2.752  12.466  19.866  0.00  0.00    +0.000 C 
ATOM     17  C   UNL     1      -1.581  12.654  18.877  0.00  0.00    +0.000 C 
BRANCH  15  18
ATOM     18  C   UNL     1      -5.193  12.557  19.317  0.00  0.00    +0.000 A 
ATOM     19  C   UNL     1      -5.428  13.525  20.306  0.00  0.00    +0.000 A 
ATOM     20  C   UNL     1      -6.683  14.111  20.476  0.00  0.00    +0.000 A 
ATOM     21  C   UNL     1      -7.744  13.730  19.660  0.00  0.00    +0.000 A 
ATOM     22  C   UNL     1      -7.539  12.768  18.675  0.00  0.00    +0.000 A 
ATOM     23  C   UNL     1      -6.275  12.194  18.504  0.00  0.00    +0.000 A 
ENDBRANCH  15  18
ENDBRANCH   2  10
BRANCH   1  26
ATOM     24  C   UNL     1       2.483   7.360  18.873  0.00  0.00    +0.000 C 
ATOM     25  O   UNL     1       2.542   7.002  20.046  0.00  0.00    +0.000 OA
ATOM     26  N   UNL     1       1.900   8.582  18.449  0.00  0.00    +0.000 N 
ATOM     27  H   UNL     1       1.844   8.829  17.474  0.00  0.00    +0.000 HD
BRANCH  24  28
ATOM     28  C   UNL     1       2.888   6.410  17.744  0.00  0.00    +0.000 C 
BRANCH  28  33
ATOM     29  C   UNL     1       2.067   2.961  19.218  0.00  0.00    +0.000 A 
ATOM     30  C   UNL     1       2.925   2.105  18.530  0.00  0.00    +0.000 A 
ATOM     31  C   UNL     1       3.788   2.626  17.566  0.00  0.00    +0.000 A 
ATOM     32  C   UNL     1       3.811   4.008  17.284  0.00  0.00    +0.000 A 
ATOM     33  C   UNL     1       2.971   4.893  17.970  0.00  0.00    +0.000 A 
ATOM     34  C   UNL     1       2.122   4.344  18.955  0.00  0.00    +0.000 A 
BRANCH  29  36
ATOM     35  C   UNL     1       1.412   2.894  21.479  0.00  0.00    +0.000 C 
ATOM     36  O   UNL     1       1.278   2.373  20.161  0.00  0.00    +0.000 OA
ENDBRANCH  29  36
ENDBRANCH  28  33
ENDBRANCH  24  28
ENDBRANCH   1  26
TORSDOF 6
ENDMDL
MODEL 7
REMARK VINA RESULT:      -8.1      3.575      5.069
REMARK  Name = 
REMARK  7 active torsions:
REMARK  status: ('A' for Active; 'I' for Inactive)
REMARK    1  A    between atoms: C_1  and  O_2
REMARK    2  A    between atoms: O_2  and  C_3
REMARK    3  A    between atoms: C_7  and  C_8
REMARK    4  A    between atoms: C_8  and  C_9
REMARK    5  A    between atoms: N_11  and  C_12
REMARK    6  A    between atoms: C_13  and  C_14
REMARK    7  A    between atoms: N_19  and  C_20
REMARK                            x       y       z     vdW  Elec       q    Type
REMARK                         _______ _______ _______ _____ _____    ______ ____
ROOT
ATOM      1  C   UNL     1       0.552  10.790  19.557  0.00  0.00    +0.000 A 
ATOM      2  C   UNL     1      -0.687  11.220  20.004  0.00  0.00    +0.000 A 
ATOM      3  O   UNL     1      -1.145  12.156  19.103  0.00  0.00    +0.000 OA
ATOM      4  C   UNL     1      -0.000  12.800  18.728  0.00  0.00    +0.000 A 
ATOM      5  C   UNL     1       0.017  14.079  18.180  0.00  0.00    +0.000 A 
ATOM      6  C   UNL     1       1.100  14.856  18.581  0.00  0.00    +0.000 A 
ATOM      7  C   UNL     1       2.124  14.303  19.361  0.00  0.00    +0.000 A 
ATOM      8  C   UNL     1       2.190  12.912  19.638  0.00  0.00    +0.000 A 
ATOM      9  C   UNL     1       1.086  12.108  19.277  0.00  0.00    +0.000 A 
ENDROOT
BRANCH   2  10
ATOM     10  C   UNL     1      -0.847  11.358  21.457  0.00  0.00    +0.000 C 
ATOM     11  O   UNL     1       0.088  11.015  22.198  0.00  0.00    +0.000 OA
ATOM     12  N   UNL     1      -1.930  11.985  22.039  0.00  0.00    +0.000 N 
ATOM     13  C   UNL     1      -1.790  12.329  23.460  0.00  0.00    +0.000 C 
ATOM     14  C   UNL     1      -1.577  13.843  23.626  0.00  0.00    +0.000 C 
ATOM     15  N   UNL     1      -2.689  14.543  22.972  0.00  0.00    +0.000 N 
ATOM     16  C   UNL     1      -2.914  14.211  21.552  0.00  0.00    +0.000 C 
ATOM     17  C   UNL     1      -3.016  12.682  21.354  0.00  0.00    +0.000 C 
BRANCH  15  18
ATOM     18  C   UNL     1      -3.440  15.477  23.647  0.00  0.00    +0.000 A 
ATOM     19  C   UNL     1      -2.858  16.326  24.604  0.00  0.00    +0.000 A 
ATOM     20  C   UNL     1      -3.613  17.266  25.306  0.00  0.00    +0.000 A 
ATOM     21  C   UNL     1      -4.981  17.371  25.076  0.00  0.00    +0.000 A 
ATOM     22  C   UNL     1      -5.584  16.538  24.137  0.00  0.00    +0.000 A 
ATOM     23  C   UNL     1      -4.818  15.606  23.428  0.00  0.00    +0.000 A 
ENDBRANCH  15  18
ENDBRANCH   2  10
BRANCH   1  26
ATOM     24  C   UNL     1       1.667   8.679  18.955  0.00  0.00    +0.000 C 
ATOM     25  O   UNL     1       1.787   8.969  17.768  0.00  0.00    +0.000 OA
ATOM     26  N   UNL     1       1.057   9.525  19.917  0.00  0.00    +0.000 N 
ATOM     27  H   UNL     1       1.003   9.265  20.889  0.00  0.00    +0.000 HD
BRANCH  24  28
ATOM     28  C   UNL     1       2.342   7.430  19.527  0.00  0.00    +0.000 C 
BRANCH  28  33
ATOM     29  C   UNL     1       2.576   4.057  17.709  0.00  0.00    +0.000 A 
ATOM     30  C   UNL     1       3.735   4.183  16.945  0.00  0.00    +0.000 A 
ATOM     31  C   UNL     1       4.466   5.369  16.997  0.00  0.00    +0.000 A 
ATOM     32  C   UNL     1       4.054   6.440  17.819  0.00  0.00    +0.000 A 
ATOM     33  C   UNL     1       2.902   6.336  18.608  0.00  0.00    +0.000 A 
ATOM     34  C   UNL     1       2.191   5.117  18.553  0.00  0.00    +0.000 A 
BRANCH  29  36
ATOM     35  C   UNL     1       0.959   2.608  18.622  0.00  0.00    +0.000 C 
ATOM     36  O   UNL     1       1.938   2.855  17.619  0.00  0.00    +0.000 OA
ENDBRANCH  29  36
ENDBRANCH  28  33
ENDBRANCH  24  28
ENDBRANCH   1  26
TORSDOF 6
ENDMDL
MODEL 8
REMARK VINA RESULT:      -8.0      2.909      9.307
REMARK  Name = 
REMARK  7 active torsions:
REMARK  status: ('A' for Active; 'I' for Inactive)
REMARK    1  A    between atoms: C_1  and  O_2
REMARK    2  A    between atoms: O_2  and  C_3
REMARK    3  A    between atoms: C_7  and  C_8
REMARK    4  A    between atoms: C_8  and  C_9
REMARK    5  A    between atoms: N_11  and  C_12
REMARK    6  A    between atoms: C_13  and  C_14
REMARK    7  A    between atoms: N_19  and  C_20
REMARK                            x       y       z     vdW  Elec       q    Type
REMARK                         _______ _______ _______ _____ _____    ______ ____
ROOT
ATOM      1  C   UNL     1      -0.871  13.673  20.917  0.00  0.00    +0.000 A 
ATOM      2  C   UNL     1      -0.140  12.497  20.878  0.00  0.00    +0.000 A 
ATOM      3  O   UNL     1       0.990  12.692  21.642  0.00  0.00    +0.000 OA
ATOM      4  C   UNL     1       1.295  14.002  21.403  0.00  0.00    +0.000 A 
ATOM      5  C   UNL     1       2.562  14.543  21.593  0.00  0.00    +0.000 A 
ATOM      6  C   UNL     1       2.920  15.502  20.650  0.00  0.00    +0.000 A 
ATOM      7  C   UNL     1       1.994  15.942  19.696  0.00  0.00    +0.000 A 
ATOM      8  C   UNL     1       0.626  15.563  19.744  0.00  0.00    +0.000 A 
ATOM      9  C   UNL     1       0.245  14.562  20.665  0.00  0.00    +0.000 A 
ENDROOT
BRANCH   2  10
ATOM     10  C   UNL     1      -0.131  11.774  19.599  0.00  0.00    +0.000 C 
ATOM     11  O   UNL     1      -0.069  12.424  18.544  0.00  0.00    +0.000 OA
ATOM     12  N   UNL     1      -0.040  10.400  19.512  0.00  0.00    +0.000 N 
ATOM     13  C   UNL     1       0.284   9.857  18.187  0.00  0.00    +0.000 C 
ATOM     14  C   UNL     1       1.739   9.361  18.152  0.00  0.00    +0.000 C 
ATOM     15  N   UNL     1       1.923   8.386  19.234  0.00  0.00    +0.000 N 
ATOM     16  C   UNL     1       1.574   8.852  20.589  0.00  0.00    +0.000 C 
ATOM     17  C   UNL     1       0.153   9.459  20.613  0.00  0.00    +0.000 C 
BRANCH  15  18
ATOM     18  C   UNL     1       2.429   7.131  18.985  0.00  0.00    +0.000 A 
ATOM     19  C   UNL     1       2.121   6.043  19.819  0.00  0.00    +0.000 A 
ATOM     20  C   UNL     1       2.641   4.769  19.585  0.00  0.00    +0.000 A 
ATOM     21  C   UNL     1       3.498   4.555  18.510  0.00  0.00    +0.000 A 
ATOM     22  C   UNL     1       3.822   5.617  17.670  0.00  0.00    +0.000 A 
ATOM     23  C   UNL     1       3.288   6.888  17.905  0.00  0.00    +0.000 A 
ENDBRANCH  15  18
ENDBRANCH   2  10
BRANCH   1  26
ATOM     24  C   UNL     1      -3.154  13.119  21.654  0.00  0.00    +0.000 C 
ATOM     25  O   UNL     1      -2.791  12.602  22.707  0.00  0.00    +0.000 OA
ATOM     26  N   UNL     1      -2.263  13.672  20.699  0.00  0.00    +0.000 N 
ATOM     27  H   UNL     1      -2.599  14.115  19.859  0.00  0.00    +0.000 HD
BRANCH  24  28
ATOM     28  C   UNL     1      -4.638  13.367  21.375  0.00  0.00    +0.000 C 
BRANCH  28  33
ATOM     29  C   UNL     1      -5.517  11.348  18.231  0.00  0.00    +0.000 A 
ATOM     30  C   UNL     1      -6.730  10.746  18.564  0.00  0.00    +0.000 A 
ATOM     31  C   UNL     1      -7.289  10.976  19.821  0.00  0.00    +0.000 A 
ATOM     32  C   UNL     1      -6.649  11.817  20.756  0.00  0.00    +0.000 A 
ATOM     33  C   UNL     1      -5.438  12.446  20.443  0.00  0.00    +0.000 A 
ATOM     34  C   UNL     1      -4.904  12.214  19.157  0.00  0.00    +0.000 A 
BRANCH  29  36
ATOM     35  C   UNL     1      -3.641  11.080  16.833  0.00  0.00    +0.000 C 
ATOM     36  O   UNL     1      -5.058  11.091  16.973  0.00  0.00    +0.000 OA
ENDBRANCH  29  36
ENDBRANCH  28  33
ENDBRANCH  24  28
ENDBRANCH   1  26
TORSDOF 6
ENDMDL
MODEL 9
REMARK VINA RESULT:      -7.9      3.714      5.460
REMARK  Name = 
REMARK  7 active torsions:
REMARK  status: ('A' for Active; 'I' for Inactive)
REMARK    1  A    between atoms: C_1  and  O_2
REMARK    2  A    between atoms: O_2  and  C_3
REMARK    3  A    between atoms: C_7  and  C_8
REMARK    4  A    between atoms: C_8  and  C_9
REMARK    5  A    between atoms: N_11  and  C_12
REMARK    6  A    between atoms: C_13  and  C_14
REMARK    7  A    between atoms: N_19  and  C_20
REMARK                            x       y       z     vdW  Elec       q    Type
REMARK                         _______ _______ _______ _____ _____    ______ ____
ROOT
ATOM      1  C   UNL     1       0.490  10.819  19.826  0.00  0.00    +0.000 A 
ATOM      2  C   UNL     1      -0.767  11.270  20.196  0.00  0.00    +0.000 A 
ATOM      3  O   UNL     1      -1.170  12.185  19.249  0.00  0.00    +0.000 OA
ATOM      4  C   UNL     1      -0.002  12.811  18.918  0.00  0.00    +0.000 A 
ATOM      5  C   UNL     1       0.056  14.075  18.339  0.00  0.00    +0.000 A 
ATOM      6  C   UNL     1       1.123  14.854  18.777  0.00  0.00    +0.000 A 
ATOM      7  C   UNL     1       2.100  14.314  19.623  0.00  0.00    +0.000 A 
ATOM      8  C   UNL     1       2.139  12.930  19.938  0.00  0.00    +0.000 A 
ATOM      9  C   UNL     1       1.048  12.125  19.541  0.00  0.00    +0.000 A 
ENDROOT
BRANCH   2  10
ATOM     10  C   UNL     1      -1.002  11.446  21.635  0.00  0.00    +0.000 C 
ATOM     11  O   UNL     1      -0.103  11.133  22.432  0.00  0.00    +0.000 OA
ATOM     12  N   UNL     1      -2.118  12.079  22.144  0.00  0.00    +0.000 N 
ATOM     13  C   UNL     1      -2.053  12.464  23.559  0.00  0.00    +0.000 C 
ATOM     14  C   UNL     1      -1.861  13.984  23.693  0.00  0.00    +0.000 C 
ATOM     15  N   UNL     1      -2.945  14.655  22.964  0.00  0.00    +0.000 N 
ATOM     16  C   UNL     1      -3.095  14.281  21.545  0.00  0.00    +0.000 C 
ATOM     17  C   UNL     1      -3.174  12.746  21.385  0.00  0.00    +0.000 C 
BRANCH  15  18
ATOM     18  C   UNL     1      -3.737  15.600  23.574  0.00  0.00    +0.000 A 
ATOM     19  C   UNL     1      -3.262  16.359  24.656  0.00  0.00    +0.000 A 
ATOM     20  C   UNL     1      -4.062  17.309  25.293  0.00  0.00    +0.000 A 
ATOM     21  C   UNL     1      -5.370  17.514  24.867  0.00  0.00    +0.000 A 
ATOM     22  C   UNL     1      -5.867  16.771  23.799  0.00  0.00    +0.000 A 
ATOM     23  C   UNL     1      -5.055  15.829  23.159  0.00  0.00    +0.000 A 
ENDBRANCH  15  18
ENDBRANCH   2  10
BRANCH   1  26
ATOM     24  C   UNL     1       1.628   8.691  19.341  0.00  0.00    +0.000 C 
ATOM     25  O   UNL     1       1.823   8.954  18.158  0.00  0.00    +0.000 OA
ATOM     26  N   UNL     1       0.963   9.560  20.244  0.00  0.00    +0.000 N 
ATOM     27  H   UNL     1       0.847   9.322  21.216  0.00  0.00    +0.000 HD
BRANCH  24  28
ATOM     28  C   UNL     1       2.259   7.452  19.981  0.00  0.00    +0.000 C 
BRANCH  28  33
ATOM     29  C   UNL     1       1.349   3.726  19.825  0.00  0.00    +0.000 A 
ATOM     30  C   UNL     1       1.566   3.397  18.488  0.00  0.00    +0.000 A 
ATOM     31  C   UNL     1       2.009   4.379  17.602  0.00  0.00    +0.000 A 
ATOM     32  C   UNL     1       2.248   5.698  18.043  0.00  0.00    +0.000 A 
ATOM     33  C   UNL     1       2.051   6.053  19.383  0.00  0.00    +0.000 A 
ATOM     34  C   UNL     1       1.623   5.036  20.263  0.00  0.00    +0.000 A 
BRANCH  29  36
ATOM     35  C   UNL     1       1.683   2.539  21.832  0.00  0.00    +0.000 C 
ATOM     36  O   UNL     1       0.944   2.699  20.626  0.00  0.00    +0.000 OA
ENDBRANCH  29  36
ENDBRANCH  28  33
ENDBRANCH  24  28
ENDBRANCH   1  26
TORSDOF 6
ENDMDL
