MODEL 1
REMARK VINA RESULT:      -7.1      0.000      0.000
REMARK  Name = 
REMARK  6 active torsions:
REMARK  status: ('A' for Active; 'I' for Inactive)
REMARK    1  A    between atoms: C_1  and  N_2
REMARK    2  A    between atoms: N_2  and  C_3
REMARK    3  A    between atoms: C_4  and  C_6
REMARK    4  A    between atoms: N_9  and  C_10
REMARK    5  A    between atoms: C_10  and  C_11
REMARK    6  A    between atoms: C_14  and  C_15
REMARK                            x       y       z     vdW  Elec       q    Type
REMARK                         _______ _______ _______ _____ _____    ______ ____
ROOT
ATOM      1  C   UNL     1       6.963   5.142  17.673  0.00  0.00    +0.000 C 
ENDROOT
BRANCH   1   5
ATOM      2  C   UNL     1       2.858   5.831  18.768  0.00  0.00    +0.000 C 
ATOM      3  C   UNL     1       3.503   6.717  17.704  0.00  0.00    +0.000 C 
ATOM      4  C   UNL     1       4.801   6.116  17.172  0.00  0.00    +0.000 C 
ATOM      5  N   UNL     1       5.805   5.903  18.223  0.00  0.00    +0.000 NA
ATOM      6  C   UNL     1       5.256   5.133  19.357  0.00  0.00    +0.000 C 
ATOM      7  C   UNL     1       3.911   5.660  19.886  0.00  0.00    +0.000 C 
BRANCH   2  11
ATOM      8  C   UNL     1       1.143   2.384  18.484  0.00  0.00    +0.000 C 
ATOM      9  N   UNL     1       1.485   3.699  19.016  0.00  0.00    +0.000 N 
ATOM     10  C   UNL     1       0.945   3.994  20.334  0.00  0.00    +0.000 C 
ATOM     11  C   UNL     1       2.363   4.462  18.257  0.00  0.00    +0.000 C 
ATOM     12  O   UNL     1       2.777   4.023  17.179  0.00  0.00    +0.000 OA
ENDBRANCH   2  11
ENDBRANCH   1   5
BRANCH   1  13
ATOM     13  C   UNL     1       6.918   4.857  16.189  0.00  0.00    +0.000 A 
ATOM     14  N   UNL     1       7.556   5.570  15.281  0.00  0.00    +0.000 NA
ATOM     15  C   UNL     1       7.240   5.105  14.021  0.00  0.00    +0.000 A 
ATOM     16  C   UNL     1       6.358   4.041  13.958  0.00  0.00    +0.000 A 
ATOM     17  S   UNL     1       5.929   3.599  15.568  0.00  0.00    +0.000 S 
BRANCH  16  18
ATOM     18  C   UNL     1       5.804   3.351  12.781  0.00  0.00    +0.000 A 
ATOM     19  C   UNL     1       6.492   2.309  12.136  0.00  0.00    +0.000 A 
ATOM     20  C   UNL     1       5.960   1.685  11.010  0.00  0.00    +0.000 A 
ATOM     21  C   UNL     1       4.729   2.087  10.499  0.00  0.00    +0.000 A 
ATOM     22  C   UNL     1       4.026   3.112  11.130  0.00  0.00    +0.000 A 
ATOM     23  C   UNL     1       4.562   3.738  12.257  0.00  0.00    +0.000 A 
ENDBRANCH  16  18
ENDBRANCH   1  13
TORSDOF 4
ENDMDL
MODEL 2
REMARK VINA RESULT:      -7.0      0.167      1.017
REMARK  Name = 
REMARK  6 active torsions:
REMARK  status: ('A' for Active; 'I' for Inactive)
REMARK    1  A    between atoms: C_1  and  N_2
REMARK    2  A    between atoms: N_2  and  C_3
REMARK    3  A    between atoms: C_4  and  C_6
REMARK    4  A    between atoms: N_9  and  C_10
REMARK    5  A    between atoms: C_10  and  C_11
REMARK    6  A    between atoms: C_14  and  C_15
REMARK                            x       y       z     vdW  Elec       q    Type
REMARK                         _______ _______ _______ _____ _____    ______ ____
ROOT
ATOM      1  C   UNL     1       7.101   5.316  17.579  0.00  0.00    +0.000 C 
ENDROOT
BRANCH   1   5
ATOM      2  C   UNL     1       3.003   5.898  18.758  0.00  0.00    +0.000 C 
ATOM      3  C   UNL     1       3.610   6.818  17.701  0.00  0.00    +0.000 C 
ATOM      4  C   UNL     1       4.911   6.254  17.134  0.00  0.00    +0.000 C 
ATOM      5  N   UNL     1       5.937   6.042  18.164  0.00  0.00    +0.000 NA
ATOM      6  C   UNL     1       5.424   5.239  19.292  0.00  0.00    +0.000 C 
ATOM      7  C   UNL     1       4.079   5.726  19.854  0.00  0.00    +0.000 C 
BRANCH   2  11
ATOM      8  C   UNL     1       1.327   2.436  18.423  0.00  0.00    +0.000 C 
ATOM      9  N   UNL     1       1.650   3.748  18.972  0.00  0.00    +0.000 N 
ATOM     10  C   UNL     1       1.095   4.024  20.287  0.00  0.00    +0.000 C 
ATOM     11  C   UNL     1       2.527   4.529  18.229  0.00  0.00    +0.000 C 
ATOM     12  O   UNL     1       2.956   4.106  17.150  0.00  0.00    +0.000 OA
ENDBRANCH   2  11
ENDBRANCH   1   5
BRANCH   1  13
ATOM     13  C   UNL     1       7.012   5.013  16.100  0.00  0.00    +0.000 A 
ATOM     14  N   UNL     1       7.632   5.709  15.167  0.00  0.00    +0.000 NA
ATOM     15  C   UNL     1       7.277   5.232  13.922  0.00  0.00    +0.000 A 
ATOM     16  C   UNL     1       6.383   4.176  13.896  0.00  0.00    +0.000 A 
ATOM     17  S   UNL     1       5.995   3.758  15.523  0.00  0.00    +0.000 S 
BRANCH  16  18
ATOM     18  C   UNL     1       5.791   3.477  12.743  0.00  0.00    +0.000 A 
ATOM     19  C   UNL     1       4.545   3.847  12.208  0.00  0.00    +0.000 A 
ATOM     20  C   UNL     1       3.992   3.159  11.130  0.00  0.00    +0.000 A 
ATOM     21  C   UNL     1       4.670   2.083  10.561  0.00  0.00    +0.000 A 
ATOM     22  C   UNL     1       5.911   1.707  11.071  0.00  0.00    +0.000 A 
ATOM     23  C   UNL     1       6.463   2.397  12.153  0.00  0.00    +0.000 A 
ENDBRANCH  16  18
ENDBRANCH   1  13
TORSDOF 4
ENDMDL
MODEL 3
REMARK VINA RESULT:      -6.9      3.958      8.824
REMARK  Name = 
REMARK  6 active torsions:
REMARK  status: ('A' for Active; 'I' for Inactive)
REMARK    1  A    between atoms: C_1  and  N_2
REMARK    2  A    between atoms: N_2  and  C_3
REMARK    3  A    between atoms: C_4  and  C_6
REMARK    4  A    between atoms: N_9  and  C_10
REMARK    5  A    between atoms: C_10  and  C_11
REMARK    6  A    between atoms: C_14  and  C_15
REMARK                            x       y       z     vdW  Elec       q    Type
REMARK                         _______ _______ _______ _____ _____    ______ ____
ROOT
ATOM      1  C   UNL     1       3.348   5.658  18.616  0.00  0.00    +0.000 C 
ENDROOT
BRANCH   1   5
ATOM      2  C   UNL     1       7.065   5.237  16.487  0.00  0.00    +0.000 C 
ATOM      3  C   UNL     1       6.961   4.704  17.915  0.00  0.00    +0.000 C 
ATOM      4  C   UNL     1       5.511   4.590  18.377  0.00  0.00    +0.000 C 
ATOM      5  N   UNL     1       4.798   5.874  18.342  0.00  0.00    +0.000 NA
ATOM      6  C   UNL     1       4.915   6.530  17.024  0.00  0.00    +0.000 C 
ATOM      7  C   UNL     1       6.352   6.608  16.483  0.00  0.00    +0.000 C 
BRANCH   2  11
ATOM      8  C   UNL     1       6.191   3.566  13.119  0.00  0.00    +0.000 C 
ATOM      9  N   UNL     1       6.862   4.439  14.075  0.00  0.00    +0.000 N 
ATOM     10  C   UNL     1       7.766   5.418  13.494  0.00  0.00    +0.000 C 
ATOM     11  C   UNL     1       6.482   4.305  15.405  0.00  0.00    +0.000 C 
ATOM     12  O   UNL     1       5.642   3.454  15.716  0.00  0.00    +0.000 OA
ENDBRANCH   2  11
ENDBRANCH   1   5
BRANCH   1  13
ATOM     13  C   UNL     1       2.552   6.897  18.959  0.00  0.00    +0.000 A 
ATOM     14  N   UNL     1       2.404   7.926  18.147  0.00  0.00    +0.000 NA
ATOM     15  C   UNL     1       1.698   8.923  18.788  0.00  0.00    +0.000 A 
ATOM     16  C   UNL     1       1.308   8.665  20.091  0.00  0.00    +0.000 A 
ATOM     17  S   UNL     1       1.842   7.081  20.510  0.00  0.00    +0.000 S 
BRANCH  16  18
ATOM     18  C   UNL     1       0.585   9.527  21.041  0.00  0.00    +0.000 A 
ATOM     19  C   UNL     1       0.139   9.053  22.286  0.00  0.00    +0.000 A 
ATOM     20  C   UNL     1      -0.563   9.879  23.161  0.00  0.00    +0.000 A 
ATOM     21  C   UNL     1      -0.837  11.200  22.813  0.00  0.00    +0.000 A 
ATOM     22  C   UNL     1      -0.395  11.692  21.587  0.00  0.00    +0.000 A 
ATOM     23  C   UNL     1       0.307  10.861  20.710  0.00  0.00    +0.000 A 
ENDBRANCH  16  18
ENDBRANCH   1  13
TORSDOF 4
ENDMDL
MODEL 4
REMARK VINA RESULT:      -6.9      6.126      7.796
REMARK  Name = 
REMARK  6 active torsions:
REMARK  status: ('A' for Active; 'I' for Inactive)
REMARK    1  A    between atoms: C_1  and  N_2
REMARK    2  A    between atoms: N_2  and  C_3
REMARK    3  A    between atoms: C_4  and  C_6
REMARK    4  A    between atoms: N_9  and  C_10
REMARK    5  A    between atoms: C_10  and  C_11
REMARK    6  A    between atoms: C_14  and  C_15
REMARK                            x       y       z     vdW  Elec       q    Type
REMARK                         _______ _______ _______ _____ _____    ______ ____
ROOT
ATOM      1  C   UNL     1       1.045   9.469  20.085  0.00  0.00    +0.000 C 
ENDROOT
BRANCH   1   5
ATOM      2  C   UNL     1      -1.780  12.280  18.460  0.00  0.00    +0.000 C 
ATOM      3  C   UNL     1      -1.815  10.830  17.981  0.00  0.00    +0.000 C 
ATOM      4  C   UNL     1      -1.028   9.905  18.906  0.00  0.00    +0.000 C 
ATOM      5  N   UNL     1       0.386  10.288  19.027  0.00  0.00    +0.000 NA
ATOM      6  C   UNL     1       0.540  11.709  19.395  0.00  0.00    +0.000 C 
ATOM      7  C   UNL     1      -0.289  12.677  18.534  0.00  0.00    +0.000 C 
BRANCH   2  11
ATOM      8  C   UNL     1      -4.452  12.777  21.201  0.00  0.00    +0.000 C 
ATOM      9  N   UNL     1      -3.872  12.436  19.907  0.00  0.00    +0.000 N 
ATOM     10  C   UNL     1      -4.832  12.144  18.854  0.00  0.00    +0.000 C 
ATOM     11  C   UNL     1      -2.490  12.534  19.806  0.00  0.00    +0.000 C 
ATOM     12  O   UNL     1      -1.828  12.860  20.797  0.00  0.00    +0.000 OA
ENDBRANCH   2  11
ENDBRANCH   1   5
BRANCH   1  13
ATOM     13  C   UNL     1       1.763   8.228  19.605  0.00  0.00    +0.000 A 
ATOM     14  N   UNL     1       1.930   7.143  20.336  0.00  0.00    +0.000 NA
ATOM     15  C   UNL     1       2.696   6.230  19.641  0.00  0.00    +0.000 A 
ATOM     16  C   UNL     1       3.122   6.612  18.381  0.00  0.00    +0.000 A 
ATOM     17  S   UNL     1       2.504   8.188  18.058  0.00  0.00    +0.000 S 
BRANCH  16  18
ATOM     18  C   UNL     1       3.969   5.888  17.419  0.00  0.00    +0.000 A 
ATOM     19  C   UNL     1       4.747   6.559  16.460  0.00  0.00    +0.000 A 
ATOM     20  C   UNL     1       5.526   5.854  15.544  0.00  0.00    +0.000 A 
ATOM     21  C   UNL     1       5.545   4.462  15.564  0.00  0.00    +0.000 A 
ATOM     22  C   UNL     1       4.788   3.778  16.513  0.00  0.00    +0.000 A 
ATOM     23  C   UNL     1       4.007   4.487  17.428  0.00  0.00    +0.000 A 
ENDBRANCH  16  18
ENDBRANCH   1  13
TORSDOF 4
ENDMDL
MODEL 5
REMARK VINA RESULT:      -6.9      4.166      8.317
REMARK  Name = 
REMARK  6 active torsions:
REMARK  status: ('A' for Active; 'I' for Inactive)
REMARK    1  A    between atoms: C_1  and  N_2
REMARK    2  A    between atoms: N_2  and  C_3
REMARK    3  A    between atoms: C_4  and  C_6
REMARK    4  A    between atoms: N_9  and  C_10
REMARK    5  A    between atoms: C_10  and  C_11
REMARK    6  A    between atoms: C_14  and  C_15
REMARK                            x       y       z     vdW  Elec       q    Type
REMARK                         _______ _______ _______ _____ _____    ______ ____
ROOT
ATOM      1  C   UNL     1       3.815   7.077  17.717  0.00  0.00    +0.000 C 
ENDROOT
BRANCH   1   5
ATOM      2  C   UNL     1       2.827   2.893  17.901  0.00  0.00    +0.000 C 
ATOM      3  C   UNL     1       4.012   3.340  17.047  0.00  0.00    +0.000 C 
ATOM      4  C   UNL     1       4.452   4.762  17.383  0.00  0.00    +0.000 C 
ATOM      5  N   UNL     1       3.382   5.751  17.191  0.00  0.00    +0.000 NA
ATOM      6  C   UNL     1       2.146   5.366  17.901  0.00  0.00    +0.000 C 
ATOM      7  C   UNL     1       1.698   3.917  17.649  0.00  0.00    +0.000 C 
BRANCH   2  11
ATOM      8  C   UNL     1       2.492   2.679  21.741  0.00  0.00    +0.000 C 
ATOM      9  N   UNL     1       2.098   2.720  20.337  0.00  0.00    +0.000 N 
ATOM     10  C   UNL     1       0.668   2.825  20.096  0.00  0.00    +0.000 C 
ATOM     11  C   UNL     1       3.130   2.761  19.409  0.00  0.00    +0.000 C 
ATOM     12  O   UNL     1       4.303   2.726  19.798  0.00  0.00    +0.000 OA
ENDBRANCH   2  11
ENDBRANCH   1   5
BRANCH   1  13
ATOM     13  C   UNL     1       2.714   7.964  18.253  0.00  0.00    +0.000 A 
ATOM     14  N   UNL     1       2.091   8.881  17.537  0.00  0.00    +0.000 NA
ATOM     15  C   UNL     1       1.205   9.572  18.338  0.00  0.00    +0.000 A 
ATOM     16  C   UNL     1       1.149   9.191  19.668  0.00  0.00    +0.000 A 
ATOM     17  S   UNL     1       2.252   7.888  19.904  0.00  0.00    +0.000 S 
BRANCH  16  18
ATOM     18  C   UNL     1       0.345   9.748  20.769  0.00  0.00    +0.000 A 
ATOM     19  C   UNL     1      -0.397  10.933  20.624  0.00  0.00    +0.000 A 
ATOM     20  C   UNL     1      -1.134  11.455  21.684  0.00  0.00    +0.000 A 
ATOM     21  C   UNL     1      -1.146  10.807  22.917  0.00  0.00    +0.000 A 
ATOM     22  C   UNL     1      -0.425   9.626  23.079  0.00  0.00    +0.000 A 
ATOM     23  C   UNL     1       0.315   9.105  22.014  0.00  0.00    +0.000 A 
ENDBRANCH  16  18
ENDBRANCH   1  13
TORSDOF 4
ENDMDL
MODEL 6
REMARK VINA RESULT:      -6.9      3.912      8.807
REMARK  Name = 
REMARK  6 active torsions:
REMARK  status: ('A' for Active; 'I' for Inactive)
REMARK    1  A    between atoms: C_1  and  N_2
REMARK    2  A    between atoms: N_2  and  C_3
REMARK    3  A    between atoms: C_4  and  C_6
REMARK    4  A    between atoms: N_9  and  C_10
REMARK    5  A    between atoms: C_10  and  C_11
REMARK    6  A    between atoms: C_14  and  C_15
REMARK                            x       y       z     vdW  Elec       q    Type
REMARK                         _______ _______ _______ _____ _____    ______ ____
ROOT
ATOM      1  C   UNL     1       3.445   5.582  18.681  0.00  0.00    +0.000 C 
ENDROOT
BRANCH   1   5
ATOM      2  C   UNL     1       7.101   5.266  16.432  0.00  0.00    +0.000 C 
ATOM      3  C   UNL     1       7.057   4.725  17.860  0.00  0.00    +0.000 C 
ATOM      4  C   UNL     1       5.626   4.571  18.367  0.00  0.00    +0.000 C 
ATOM      5  N   UNL     1       4.879   5.837  18.361  0.00  0.00    +0.000 NA
ATOM      6  C   UNL     1       4.937   6.501  17.044  0.00  0.00    +0.000 C 
ATOM      7  C   UNL     1       6.354   6.618  16.457  0.00  0.00    +0.000 C 
BRANCH   2  11
ATOM      8  C   UNL     1       6.192   3.565  13.088  0.00  0.00    +0.000 C 
ATOM      9  N   UNL     1       6.872   4.448  14.029  0.00  0.00    +0.000 N 
ATOM     10  C   UNL     1       7.766   5.425  13.429  0.00  0.00    +0.000 C 
ATOM     11  C   UNL     1       6.508   4.324  15.364  0.00  0.00    +0.000 C 
ATOM     12  O   UNL     1       5.674   3.473  15.692  0.00  0.00    +0.000 OA
ENDBRANCH   2  11
ENDBRANCH   1   5
BRANCH   1  13
ATOM     13  C   UNL     1       2.611   6.808  18.981  0.00  0.00    +0.000 A 
ATOM     14  N   UNL     1       2.437   7.806  18.137  0.00  0.00    +0.000 NA
ATOM     15  C   UNL     1       1.699   8.802  18.743  0.00  0.00    +0.000 A 
ATOM     16  C   UNL     1       1.310   8.573  20.052  0.00  0.00    +0.000 A 
ATOM     17  S   UNL     1       1.888   7.019  20.523  0.00  0.00    +0.000 S 
BRANCH  16  18
ATOM     18  C   UNL     1       0.558   9.442  20.971  0.00  0.00    +0.000 A 
ATOM     19  C   UNL     1       0.117  10.722  20.593  0.00  0.00    +0.000 A 
ATOM     20  C   UNL     1      -0.574  11.538  21.486  0.00  0.00    +0.000 A 
ATOM     21  C   UNL     1      -0.842  11.096  22.779  0.00  0.00    +0.000 A 
ATOM     22  C   UNL     1      -0.422   9.827  23.171  0.00  0.00    +0.000 A 
ATOM     23  C   UNL     1       0.273   9.011  22.275  0.00  0.00    +0.000 A 
ENDBRANCH  16  18
ENDBRANCH   1  13
TORSDOF 4
ENDMDL
MODEL 7
REMARK VINA RESULT:      -6.8      6.847      8.573
REMARK  Name = 
REMARK  6 active torsions:
REMARK  status: ('A' for Active; 'I' for Inactive)
REMARK    1  A    between atoms: C_1  and  N_2
REMARK    2  A    between atoms: N_2  and  C_3
REMARK    3  A    between atoms: C_4  and  C_6
REMARK    4  A    between atoms: N_9  and  C_10
REMARK    5  A    between atoms: C_10  and  C_11
REMARK    6  A    between atoms: C_14  and  C_15
REMARK                            x       y       z     vdW  Elec       q    Type
REMARK                         _______ _______ _______ _____ _____    ______ ____
ROOT
ATOM      1  C   UNL     1       0.440  10.588  19.501  0.00  0.00    +0.000 C 
ENDROOT
BRANCH   1   5
ATOM      2  C   UNL     1      -1.407  12.506  22.883  0.00  0.00    +0.000 C 
ATOM      3  C   UNL     1      -0.225  13.188  22.195  0.00  0.00    +0.000 C 
ATOM      4  C   UNL     1       0.060  12.585  20.822  0.00  0.00    +0.000 C 
ATOM      5  N   UNL     1       0.364  11.149  20.881  0.00  0.00    +0.000 NA
ATOM      6  C   UNL     1      -0.674  10.399  21.616  0.00  0.00    +0.000 C 
ATOM      7  C   UNL     1      -1.047  11.006  22.979  0.00  0.00    +0.000 C 
BRANCH   2  11
ATOM      8  C   UNL     1      -5.182  12.857  22.158  0.00  0.00    +0.000 C 
ATOM      9  N   UNL     1      -3.943  12.747  22.920  0.00  0.00    +0.000 N 
ATOM     10  C   UNL     1      -4.111  12.582  24.355  0.00  0.00    +0.000 C 
ATOM     11  C   UNL     1      -2.767  12.707  22.183  0.00  0.00    +0.000 C 
ATOM     12  O   UNL     1      -2.816  12.798  20.952  0.00  0.00    +0.000 OA
ENDBRANCH   2  11
ENDBRANCH   1   5
BRANCH   1  13
ATOM     13  C   UNL     1       1.178   9.275  19.365  0.00  0.00    +0.000 A 
ATOM     14  N   UNL     1       1.391   8.442  20.365  0.00  0.00    +0.000 NA
ATOM     15  C   UNL     1       2.163   7.384  19.929  0.00  0.00    +0.000 A 
ATOM     16  C   UNL     1       2.547   7.406  18.600  0.00  0.00    +0.000 A 
ATOM     17  S   UNL     1       1.882   8.818  17.868  0.00  0.00    +0.000 S 
BRANCH  16  18
ATOM     18  C   UNL     1       3.390   6.457  17.853  0.00  0.00    +0.000 A 
ATOM     19  C   UNL     1       4.486   6.881  17.083  0.00  0.00    +0.000 A 
ATOM     20  C   UNL     1       5.257   5.969  16.365  0.00  0.00    +0.000 A 
ATOM     21  C   UNL     1       4.951   4.611  16.399  0.00  0.00    +0.000 A 
ATOM     22  C   UNL     1       3.874   4.169  17.163  0.00  0.00    +0.000 A 
ATOM     23  C   UNL     1       3.100   5.086  17.880  0.00  0.00    +0.000 A 
ENDBRANCH  16  18
ENDBRANCH   1  13
TORSDOF 4
ENDMDL
MODEL 8
REMARK VINA RESULT:      -6.8      6.105      7.783
REMARK  Name = 
REMARK  6 active torsions:
REMARK  status: ('A' for Active; 'I' for Inactive)
REMARK    1  A    between atoms: C_1  and  N_2
REMARK    2  A    between atoms: N_2  and  C_3
REMARK    3  A    between atoms: C_4  and  C_6
REMARK    4  A    between atoms: N_9  and  C_10
REMARK    5  A    between atoms: C_10  and  C_11
REMARK    6  A    between atoms: C_14  and  C_15
REMARK                            x       y       z     vdW  Elec       q    Type
REMARK                         _______ _______ _______ _____ _____    ______ ____
ROOT
ATOM      1  C   UNL     1       0.971   9.267  20.337  0.00  0.00    +0.000 C 
ENDROOT
BRANCH   1   5
ATOM      2  C   UNL     1      -1.422  12.496  18.800  0.00  0.00    +0.000 C 
ATOM      3  C   UNL     1      -1.575  11.103  18.192  0.00  0.00    +0.000 C 
ATOM      4  C   UNL     1      -0.956  10.025  19.077  0.00  0.00    +0.000 C 
ATOM      5  N   UNL     1       0.478  10.237  19.318  0.00  0.00    +0.000 NA
ATOM      6  C   UNL     1       0.754  11.598  19.820  0.00  0.00    +0.000 C 
ATOM      7  C   UNL     1       0.094  12.719  19.000  0.00  0.00    +0.000 C 
BRANCH   2  11
ATOM      8  C   UNL     1      -4.217  12.848  21.440  0.00  0.00    +0.000 C 
ATOM      9  N   UNL     1      -3.570  12.535  20.170  0.00  0.00    +0.000 N 
ATOM     10  C   UNL     1      -4.472  12.179  19.087  0.00  0.00    +0.000 C 
ATOM     11  C   UNL     1      -2.194  12.715  20.118  0.00  0.00    +0.000 C 
ATOM     12  O   UNL     1      -1.589  13.088  21.129  0.00  0.00    +0.000 OA
ENDBRANCH   2  11
ENDBRANCH   1   5
BRANCH   1  13
ATOM     13  C   UNL     1       1.700   8.057  19.795  0.00  0.00    +0.000 A 
ATOM     14  N   UNL     1       1.909   6.952  20.484  0.00  0.00    +0.000 NA
ATOM     15  C   UNL     1       2.673   6.079  19.738  0.00  0.00    +0.000 A 
ATOM     16  C   UNL     1       3.054   6.511  18.479  0.00  0.00    +0.000 A 
ATOM     17  S   UNL     1       2.396   8.084  18.227  0.00  0.00    +0.000 S 
BRANCH  16  18
ATOM     18  C   UNL     1       3.888   5.837  17.470  0.00  0.00    +0.000 A 
ATOM     19  C   UNL     1       3.953   4.437  17.372  0.00  0.00    +0.000 A 
ATOM     20  C   UNL     1       4.765   3.819  16.424  0.00  0.00    +0.000 A 
ATOM     21  C   UNL     1       5.534   4.585  15.551  0.00  0.00    +0.000 A 
ATOM     22  C   UNL     1       5.477   5.975  15.626  0.00  0.00    +0.000 A 
ATOM     23  C   UNL     1       4.663   6.592  16.579  0.00  0.00    +0.000 A 
ENDBRANCH  16  18
ENDBRANCH   1  13
TORSDOF 4
ENDMDL
MODEL 9
REMARK VINA RESULT:      -6.8      4.939      9.404
REMARK  Name = 
REMARK  6 active torsions:
REMARK  status: ('A' for Active; 'I' for Inactive)
REMARK    1  A    between atoms: C_1  and  N_2
REMARK    2  A    between atoms: N_2  and  C_3
REMARK    3  A    between atoms: C_4  and  C_6
REMARK    4  A    between atoms: N_9  and  C_10
REMARK    5  A    between atoms: C_10  and  C_11
REMARK    6  A    between atoms: C_14  and  C_15
REMARK                            x       y       z     vdW  Elec       q    Type
REMARK                         _______ _______ _______ _____ _____    ______ ____
ROOT
ATOM      1  C   UNL     1       2.536   7.383  18.484  0.00  0.00    +0.000 C 
ENDROOT
BRANCH   1   5
ATOM      2  C   UNL     1       4.719   3.703  18.023  0.00  0.00    +0.000 C 
ATOM      3  C   UNL     1       3.192   3.665  18.041  0.00  0.00    +0.000 C 
ATOM      4  C   UNL     1       2.585   5.049  17.831  0.00  0.00    +0.000 C 
ATOM      5  N   UNL     1       3.005   6.017  18.854  0.00  0.00    +0.000 NA
ATOM      6  C   UNL     1       4.475   6.066  18.991  0.00  0.00    +0.000 C 
ATOM      7  C   UNL     1       5.142   4.688  19.135  0.00  0.00    +0.000 C 
BRANCH   2  11
ATOM      8  C   UNL     1       7.153   4.877  15.266  0.00  0.00    +0.000 C 
ATOM      9  N   UNL     1       6.684   4.439  16.576  0.00  0.00    +0.000 N 
ATOM     10  C   UNL     1       7.664   4.524  17.647  0.00  0.00    +0.000 C 
ATOM     11  C   UNL     1       5.340   4.098  16.666  0.00  0.00    +0.000 C 
ATOM     12  O   UNL     1       4.630   4.144  15.657  0.00  0.00    +0.000 OA
ENDBRANCH   2  11
ENDBRANCH   1   5
BRANCH   1  13
ATOM     13  C   UNL     1       1.782   8.134  19.559  0.00  0.00    +0.000 A 
ATOM     14  N   UNL     1       1.639   7.701  20.797  0.00  0.00    +0.000 NA
ATOM     15  C   UNL     1       0.830   8.571  21.500  0.00  0.00    +0.000 A 
ATOM     16  C   UNL     1       0.349   9.666  20.804  0.00  0.00    +0.000 A 
ATOM     17  S   UNL     1       0.967   9.599  19.197  0.00  0.00    +0.000 S 
BRANCH  16  18
ATOM     18  C   UNL     1      -0.552  10.740  21.255  0.00  0.00    +0.000 A 
ATOM     19  C   UNL     1      -1.083  11.690  20.366  0.00  0.00    +0.000 A 
ATOM     20  C   UNL     1      -1.916  12.712  20.816  0.00  0.00    +0.000 A 
ATOM     21  C   UNL     1      -2.238  12.810  22.167  0.00  0.00    +0.000 A 
ATOM     22  C   UNL     1      -1.730  11.873  23.064  0.00  0.00    +0.000 A 
ATOM     23  C   UNL     1      -0.893  10.851  22.611  0.00  0.00    +0.000 A 
ENDBRANCH  16  18
ENDBRANCH   1  13
TORSDOF 4
ENDMDL
