MODEL 1
REMARK VINA RESULT:      -9.6      0.000      0.000
REMARK  Name = 
REMARK  3 active torsions:
REMARK  status: ('A' for Active; 'I' for Inactive)
REMARK    1  A    between atoms: C_2  and  C_3
REMARK    2  A    between atoms: C_7  and  C_8
REMARK    3  A    between atoms: C_14  and  C_15
REMARK                            x       y       z     vdW  Elec       q    Type
REMARK                         _______ _______ _______ _____ _____    ______ ____
ROOT
ATOM      1  C   UNL     1       1.452   9.323  19.110  0.00  0.00    +0.000 A 
ATOM      2  C   UNL     1       2.289   9.238  17.979  0.00  0.00    +0.000 A 
ATOM      3  C   UNL     1       2.822   7.966  18.004  0.00  0.00    +0.000 A 
ATOM      4  N   UNL     1       3.711   7.338  17.188  0.00  0.00    +0.000 NA
ATOM      5  C   UNL     1       3.949   6.078  17.431  0.00  0.00    +0.000 A 
ATOM      6  C   UNL     1       3.304   5.300  18.538  0.00  0.00    +0.000 A 
ATOM      7  C   UNL     1       2.465   5.973  19.338  0.00  0.00    +0.000 A 
ATOM      8  N   UNL     1       2.237   7.319  19.089  0.00  0.00    +0.000 N 
ATOM      9  N   UNL     1       1.505   8.179  19.803  0.00  0.00    +0.000 NA
ENDROOT
BRANCH   1  11
ATOM     10  O   UNL     1       0.974  11.259  20.372  0.00  0.00    +0.000 OA
ATOM     11  C   UNL     1       0.605  10.479  19.519  0.00  0.00    +0.000 C 
ATOM     12  N   UNL     1      -0.597  10.646  18.800  0.00  0.00    +0.000 N 
ATOM     13  C   UNL     1      -1.005   9.677  17.782  0.00  0.00    +0.000 C 
ATOM     14  C   UNL     1      -2.081  10.152  16.815  0.00  0.00    +0.000 C 
ATOM     15  C   UNL     1      -3.201  10.797  17.580  0.00  0.00    +0.000 A 
ATOM     16  C   UNL     1      -4.540  10.610  17.244  0.00  0.00    +0.000 A 
ATOM     17  C   UNL     1      -5.536  11.229  18.000  0.00  0.00    +0.000 A 
ATOM     18  C   UNL     1      -5.198  12.047  19.080  0.00  0.00    +0.000 A 
ATOM     19  C   UNL     1      -3.858  12.256  19.405  0.00  0.00    +0.000 A 
ATOM     20  C   UNL     1      -2.852  11.629  18.662  0.00  0.00    +0.000 A 
ATOM     21  C   UNL     1      -1.389  11.862  18.953  0.00  0.00    +0.000 C 
ENDBRANCH   1  11
BRANCH   5  22
ATOM     22  C   UNL     1       4.872   5.352  16.586  0.00  0.00    +0.000 A 
ATOM     23  C   UNL     1       5.045   4.005  16.349  0.00  0.00    +0.000 A 
ATOM     24  C   UNL     1       6.138   3.883  15.458  0.00  0.00    +0.000 A 
ATOM     25  C   UNL     1       6.568   5.162  15.204  0.00  0.00    +0.000 A 
ATOM     26  O   UNL     1       5.802   6.060  15.868  0.00  0.00    +0.000 OA
ENDBRANCH   5  22
BRANCH   7  27
ATOM     27  C   UNL     1       1.773   5.358  20.495  0.00  0.00    +0.000 C 
ATOM     28  F   UNL     1       2.584   4.746  21.390  0.00  0.00    +0.000 F 
ATOM     29  F   UNL     1       1.059   6.274  21.200  0.00  0.00    +0.000 F 
ATOM     30  F   UNL     1       0.878   4.416  20.088  0.00  0.00    +0.000 F 
ENDBRANCH   7  27
TORSDOF 3
ENDMDL
MODEL 2
REMARK VINA RESULT:      -8.7      0.971      1.134
REMARK  Name = 
REMARK  3 active torsions:
REMARK  status: ('A' for Active; 'I' for Inactive)
REMARK    1  A    between atoms: C_2  and  C_3
REMARK    2  A    between atoms: C_7  and  C_8
REMARK    3  A    between atoms: C_14  and  C_15
REMARK                            x       y       z     vdW  Elec       q    Type
REMARK                         _______ _______ _______ _____ _____    ______ ____
ROOT
ATOM      1  C   UNL     1       1.694   8.641  19.957  0.00  0.00    +0.000 A 
ATOM      2  C   UNL     1       2.448   8.744  18.770  0.00  0.00    +0.000 A 
ATOM      3  C   UNL     1       2.921   7.474  18.516  0.00  0.00    +0.000 A 
ATOM      4  N   UNL     1       3.723   6.983  17.532  0.00  0.00    +0.000 NA
ATOM      5  C   UNL     1       3.918   5.693  17.517  0.00  0.00    +0.000 A 
ATOM      6  C   UNL     1       3.314   4.741  18.505  0.00  0.00    +0.000 A 
ATOM      7  C   UNL     1       2.565   5.277  19.477  0.00  0.00    +0.000 A 
ATOM      8  N   UNL     1       2.382   6.653  19.503  0.00  0.00    +0.000 N 
ATOM      9  N   UNL     1       1.742   7.385  20.418  0.00  0.00    +0.000 NA
ENDROOT
BRANCH   1  11
ATOM     10  O   UNL     1       1.233  10.104  21.750  0.00  0.00    +0.000 OA
ATOM     11  C   UNL     1       0.931   9.725  20.637  0.00  0.00    +0.000 C 
ATOM     12  N   UNL     1      -0.095  10.326  19.878  0.00  0.00    +0.000 N 
ATOM     13  C   UNL     1      -0.427   9.833  18.541  0.00  0.00    +0.000 C 
ATOM     14  C   UNL     1      -1.250  10.779  17.677  0.00  0.00    +0.000 C 
ATOM     15  C   UNL     1      -2.403  11.320  18.473  0.00  0.00    +0.000 A 
ATOM     16  C   UNL     1      -3.674  11.489  17.927  0.00  0.00    +0.000 A 
ATOM     17  C   UNL     1      -4.708  11.986  18.720  0.00  0.00    +0.000 A 
ATOM     18  C   UNL     1      -4.472  12.330  20.053  0.00  0.00    +0.000 A 
ATOM     19  C   UNL     1      -3.196  12.185  20.597  0.00  0.00    +0.000 A 
ATOM     20  C   UNL     1      -2.156  11.674  19.814  0.00  0.00    +0.000 A 
ATOM     21  C   UNL     1      -0.751  11.541  20.350  0.00  0.00    +0.000 C 
ENDBRANCH   1  11
BRANCH   5  22
ATOM     22  C   UNL     1       4.746   5.112  16.484  0.00  0.00    +0.000 A 
ATOM     23  C   UNL     1       5.137   3.813  16.234  0.00  0.00    +0.000 A 
ATOM     24  C   UNL     1       5.990   3.852  15.104  0.00  0.00    +0.000 A 
ATOM     25  C   UNL     1       6.070   5.171  14.732  0.00  0.00    +0.000 A 
ATOM     26  O   UNL     1       5.312   5.941  15.549  0.00  0.00    +0.000 OA
ENDBRANCH   5  22
BRANCH   7  27
ATOM     27  C   UNL     1       1.925   4.476  20.548  0.00  0.00    +0.000 C 
ATOM     28  F   UNL     1       2.086   3.137  20.436  0.00  0.00    +0.000 F 
ATOM     29  F   UNL     1       2.397   4.810  21.777  0.00  0.00    +0.000 F 
ATOM     30  F   UNL     1       0.582   4.695  20.590  0.00  0.00    +0.000 F 
ENDBRANCH   7  27
TORSDOF 3
ENDMDL
MODEL 3
REMARK VINA RESULT:      -8.6      3.440      8.864
REMARK  Name = 
REMARK  3 active torsions:
REMARK  status: ('A' for Active; 'I' for Inactive)
REMARK    1  A    between atoms: C_2  and  C_3
REMARK    2  A    between atoms: C_7  and  C_8
REMARK    3  A    between atoms: C_14  and  C_15
REMARK                            x       y       z     vdW  Elec       q    Type
REMARK                         _______ _______ _______ _____ _____    ______ ____
ROOT
ATOM      1  C   UNL     1       1.262   9.483  18.971  0.00  0.00    +0.000 A 
ATOM      2  C   UNL     1       1.507  10.016  20.253  0.00  0.00    +0.000 A 
ATOM      3  C   UNL     1       0.463  10.882  20.503  0.00  0.00    +0.000 A 
ATOM      4  N   UNL     1       0.190  11.694  21.561  0.00  0.00    +0.000 NA
ATOM      5  C   UNL     1      -0.947  12.334  21.536  0.00  0.00    +0.000 A 
ATOM      6  C   UNL     1      -1.950  12.222  20.429  0.00  0.00    +0.000 A 
ATOM      7  C   UNL     1      -1.618  11.441  19.392  0.00  0.00    +0.000 A 
ATOM      8  N   UNL     1      -0.396  10.782  19.412  0.00  0.00    +0.000 N 
ATOM      9  N   UNL     1       0.152  10.027  18.458  0.00  0.00    +0.000 NA
ENDROOT
BRANCH   1  11
ATOM     10  O   UNL     1       2.720   8.753  17.265  0.00  0.00    +0.000 OA
ATOM     11  C   UNL     1       2.073   8.463  18.250  0.00  0.00    +0.000 C 
ATOM     12  N   UNL     1       2.101   7.176  18.830  0.00  0.00    +0.000 N 
ATOM     13  C   UNL     1       1.301   6.869  20.016  0.00  0.00    +0.000 C 
ATOM     14  C   UNL     1       1.703   5.610  20.772  0.00  0.00    +0.000 C 
ATOM     15  C   UNL     1       1.890   4.476  19.805  0.00  0.00    +0.000 A 
ATOM     16  C   UNL     1       1.469   3.178  20.087  0.00  0.00    +0.000 A 
ATOM     17  C   UNL     1       1.662   2.168  19.143  0.00  0.00    +0.000 A 
ATOM     18  C   UNL     1       2.289   2.448  17.928  0.00  0.00    +0.000 A 
ATOM     19  C   UNL     1       2.734   3.741  17.652  0.00  0.00    +0.000 A 
ATOM     20  C   UNL     1       2.533   4.763  18.586  0.00  0.00    +0.000 A 
ATOM     21  C   UNL     1       3.036   6.167  18.346  0.00  0.00    +0.000 C 
ENDBRANCH   1  11
BRANCH   5  22
ATOM     22  C   UNL     1      -1.300  13.198  22.641  0.00  0.00    +0.000 A 
ATOM     23  C   UNL     1      -2.445  13.304  23.403  0.00  0.00    +0.000 A 
ATOM     24  C   UNL     1      -2.232  14.364  24.317  0.00  0.00    +0.000 A 
ATOM     25  C   UNL     1      -0.970  14.842  24.060  0.00  0.00    +0.000 A 
ATOM     26  O   UNL     1      -0.392  14.136  23.059  0.00  0.00    +0.000 OA
ENDBRANCH   5  22
BRANCH   7  27
ATOM     27  C   UNL     1      -2.485  11.250  18.205  0.00  0.00    +0.000 C 
ATOM     28  F   UNL     1      -2.728   9.959  17.875  0.00  0.00    +0.000 F 
ATOM     29  F   UNL     1      -3.702  11.831  18.370  0.00  0.00    +0.000 F 
ATOM     30  F   UNL     1      -1.940  11.827  17.100  0.00  0.00    +0.000 F 
ENDBRANCH   7  27
TORSDOF 3
ENDMDL
MODEL 4
REMARK VINA RESULT:      -8.6      2.383      3.346
REMARK  Name = 
REMARK  3 active torsions:
REMARK  status: ('A' for Active; 'I' for Inactive)
REMARK    1  A    between atoms: C_2  and  C_3
REMARK    2  A    between atoms: C_7  and  C_8
REMARK    3  A    between atoms: C_14  and  C_15
REMARK                            x       y       z     vdW  Elec       q    Type
REMARK                         _______ _______ _______ _____ _____    ______ ____
ROOT
ATOM      1  C   UNL     1       2.717   6.665  19.106  0.00  0.00    +0.000 A 
ATOM      2  C   UNL     1       3.382   7.196  17.982  0.00  0.00    +0.000 A 
ATOM      3  C   UNL     1       3.978   6.119  17.358  0.00  0.00    +0.000 A 
ATOM      4  N   UNL     1       4.769   6.034  16.254  0.00  0.00    +0.000 NA
ATOM      5  C   UNL     1       5.106   4.836  15.860  0.00  0.00    +0.000 A 
ATOM      6  C   UNL     1       4.672   3.574  16.543  0.00  0.00    +0.000 A 
ATOM      7  C   UNL     1       3.928   3.713  17.648  0.00  0.00    +0.000 A 
ATOM      8  N   UNL     1       3.594   4.991  18.077  0.00  0.00    +0.000 N 
ATOM      9  N   UNL     1       2.933   5.346  19.181  0.00  0.00    +0.000 NA
ENDROOT
BRANCH   1  11
ATOM     10  O   UNL     1       1.587   6.918  21.162  0.00  0.00    +0.000 OA
ATOM     11  C   UNL     1       1.881   7.407  20.091  0.00  0.00    +0.000 C 
ATOM     12  N   UNL     1       1.530   8.725  19.731  0.00  0.00    +0.000 N 
ATOM     13  C   UNL     1       1.902   9.273  18.426  0.00  0.00    +0.000 C 
ATOM     14  C   UNL     1       1.828  10.789  18.304  0.00  0.00    +0.000 C 
ATOM     15  C   UNL     1       0.524  11.279  18.865  0.00  0.00    +0.000 A 
ATOM     16  C   UNL     1      -0.209  12.302  18.265  0.00  0.00    +0.000 A 
ATOM     17  C   UNL     1      -1.420  12.708  18.828  0.00  0.00    +0.000 A 
ATOM     18  C   UNL     1      -1.892  12.106  19.997  0.00  0.00    +0.000 A 
ATOM     19  C   UNL     1      -1.150  11.099  20.613  0.00  0.00    +0.000 A 
ATOM     20  C   UNL     1       0.058  10.676  20.049  0.00  0.00    +0.000 A 
ATOM     21  C   UNL     1       0.914   9.619  20.707  0.00  0.00    +0.000 C 
ENDBRANCH   1  11
BRANCH   5  22
ATOM     22  C   UNL     1       5.930   4.681  14.682  0.00  0.00    +0.000 A 
ATOM     23  C   UNL     1       5.843   3.834  13.597  0.00  0.00    +0.000 A 
ATOM     24  C   UNL     1       6.962   4.107  12.774  0.00  0.00    +0.000 A 
ATOM     25  C   UNL     1       7.665   5.104  13.403  0.00  0.00    +0.000 A 
ATOM     26  O   UNL     1       7.045   5.469  14.550  0.00  0.00    +0.000 OA
ENDBRANCH   5  22
BRANCH   7  27
ATOM     27  C   UNL     1       3.446   2.567  18.456  0.00  0.00    +0.000 C 
ATOM     28  F   UNL     1       3.940   2.507  19.715  0.00  0.00    +0.000 F 
ATOM     29  F   UNL     1       2.093   2.573  18.583  0.00  0.00    +0.000 F 
ATOM     30  F   UNL     1       3.763   1.383  17.867  0.00  0.00    +0.000 F 
ENDBRANCH   7  27
TORSDOF 3
ENDMDL
MODEL 5
REMARK VINA RESULT:      -8.4      3.449      8.923
REMARK  Name = 
REMARK  3 active torsions:
REMARK  status: ('A' for Active; 'I' for Inactive)
REMARK    1  A    between atoms: C_2  and  C_3
REMARK    2  A    between atoms: C_7  and  C_8
REMARK    3  A    between atoms: C_14  and  C_15
REMARK                            x       y       z     vdW  Elec       q    Type
REMARK                         _______ _______ _______ _____ _____    ______ ____
ROOT
ATOM      1  C   UNL     1       1.184   9.493  18.893  0.00  0.00    +0.000 A 
ATOM      2  C   UNL     1       1.391  10.026  20.181  0.00  0.00    +0.000 A 
ATOM      3  C   UNL     1       0.329  10.877  20.408  0.00  0.00    +0.000 A 
ATOM      4  N   UNL     1       0.019  11.682  21.460  0.00  0.00    +0.000 NA
ATOM      5  C   UNL     1      -1.125  12.307  21.410  0.00  0.00    +0.000 A 
ATOM      6  C   UNL     1      -2.100  12.184  20.278  0.00  0.00    +0.000 A 
ATOM      7  C   UNL     1      -1.732  11.410  19.248  0.00  0.00    +0.000 A 
ATOM      8  N   UNL     1      -0.502  10.768  19.296  0.00  0.00    +0.000 N 
ATOM      9  N   UNL     1       0.079  10.022  18.354  0.00  0.00    +0.000 NA
ENDROOT
BRANCH   1  11
ATOM     10  O   UNL     1       2.670   8.780  17.204  0.00  0.00    +0.000 OA
ATOM     11  C   UNL     1       2.026   8.485  18.189  0.00  0.00    +0.000 C 
ATOM     12  N   UNL     1       2.084   7.208  18.785  0.00  0.00    +0.000 N 
ATOM     13  C   UNL     1       1.286   6.894  19.971  0.00  0.00    +0.000 C 
ATOM     14  C   UNL     1       1.717   5.657  20.746  0.00  0.00    +0.000 C 
ATOM     15  C   UNL     1       1.941   4.516  19.795  0.00  0.00    +0.000 A 
ATOM     16  C   UNL     1       1.552   3.210  20.091  0.00  0.00    +0.000 A 
ATOM     17  C   UNL     1       1.778   2.194  19.162  0.00  0.00    +0.000 A 
ATOM     18  C   UNL     1       2.404   2.475  17.946  0.00  0.00    +0.000 A 
ATOM     19  C   UNL     1       2.816   3.775  17.656  0.00  0.00    +0.000 A 
ATOM     20  C   UNL     1       2.582   4.804  18.575  0.00  0.00    +0.000 A 
ATOM     21  C   UNL     1       3.049   6.217  18.320  0.00  0.00    +0.000 C 
ENDBRANCH   1  11
BRANCH   5  22
ATOM     22  C   UNL     1      -1.517  13.163  22.507  0.00  0.00    +0.000 A 
ATOM     23  C   UNL     1      -0.873  14.204  23.144  0.00  0.00    +0.000 A 
ATOM     24  C   UNL     1      -1.729  14.640  24.184  0.00  0.00    +0.000 A 
ATOM     25  C   UNL     1      -2.844  13.841  24.121  0.00  0.00    +0.000 A 
ATOM     26  O   UNL     1      -2.733  12.954  23.104  0.00  0.00    +0.000 OA
ENDBRANCH   5  22
BRANCH   7  27
ATOM     27  C   UNL     1      -2.567  11.209  18.040  0.00  0.00    +0.000 C 
ATOM     28  F   UNL     1      -3.786  11.798  18.082  0.00  0.00    +0.000 F 
ATOM     29  F   UNL     1      -1.959  11.685  16.922  0.00  0.00    +0.000 F 
ATOM     30  F   UNL     1      -2.792   9.887  17.811  0.00  0.00    +0.000 F 
ENDBRANCH   7  27
TORSDOF 3
ENDMDL
MODEL 6
REMARK VINA RESULT:      -8.3      2.351      3.551
REMARK  Name = 
REMARK  3 active torsions:
REMARK  status: ('A' for Active; 'I' for Inactive)
REMARK    1  A    between atoms: C_2  and  C_3
REMARK    2  A    between atoms: C_7  and  C_8
REMARK    3  A    between atoms: C_14  and  C_15
REMARK                            x       y       z     vdW  Elec       q    Type
REMARK                         _______ _______ _______ _____ _____    ______ ____
ROOT
ATOM      1  C   UNL     1       1.130   9.568  18.882  0.00  0.00    +0.000 A 
ATOM      2  C   UNL     1       1.985   9.449  17.767  0.00  0.00    +0.000 A 
ATOM      3  C   UNL     1       2.633   8.241  17.920  0.00  0.00    +0.000 A 
ATOM      4  N   UNL     1       3.586   7.621  17.172  0.00  0.00    +0.000 NA
ATOM      5  C   UNL     1       3.937   6.420  17.540  0.00  0.00    +0.000 A 
ATOM      6  C   UNL     1       3.354   5.698  18.718  0.00  0.00    +0.000 A 
ATOM      7  C   UNL     1       2.448   6.366  19.445  0.00  0.00    +0.000 A 
ATOM      8  N   UNL     1       2.098   7.654  19.063  0.00  0.00    +0.000 N 
ATOM      9  N   UNL     1       1.282   8.508  19.686  0.00  0.00    +0.000 NA
ENDROOT
BRANCH   1  11
ATOM     10  O   UNL     1      -0.996  10.451  19.398  0.00  0.00    +0.000 OA
ATOM     11  C   UNL     1       0.175  10.674  19.172  0.00  0.00    +0.000 C 
ATOM     12  N   UNL     1       0.735  11.967  19.245  0.00  0.00    +0.000 N 
ATOM     13  C   UNL     1       2.153  12.190  18.960  0.00  0.00    +0.000 C 
ATOM     14  C   UNL     1       2.721  13.516  19.447  0.00  0.00    +0.000 C 
ATOM     15  C   UNL     1       1.798  14.636  19.058  0.00  0.00    +0.000 A 
ATOM     16  C   UNL     1       2.268  15.866  18.603  0.00  0.00    +0.000 A 
ATOM     17  C   UNL     1       1.361  16.865  18.247  0.00  0.00    +0.000 A 
ATOM     18  C   UNL     1      -0.013  16.643  18.360  0.00  0.00    +0.000 A 
ATOM     19  C   UNL     1      -0.487  15.421  18.837  0.00  0.00    +0.000 A 
ATOM     20  C   UNL     1       0.414  14.409  19.184  0.00  0.00    +0.000 A 
ATOM     21  C   UNL     1      -0.055  13.088  19.745  0.00  0.00    +0.000 C 
ENDBRANCH   1  11
BRANCH   5  22
ATOM     22  C   UNL     1       4.932   5.704  16.774  0.00  0.00    +0.000 A 
ATOM     23  C   UNL     1       5.048   4.376  16.419  0.00  0.00    +0.000 A 
ATOM     24  C   UNL     1       6.261   4.248  15.700  0.00  0.00    +0.000 A 
ATOM     25  C   UNL     1       6.815   5.504  15.660  0.00  0.00    +0.000 A 
ATOM     26  O   UNL     1       6.015   6.394  16.293  0.00  0.00    +0.000 OA
ENDBRANCH   5  22
BRANCH   7  27
ATOM     27  C   UNL     1       1.802   5.806  20.656  0.00  0.00    +0.000 C 
ATOM     28  F   UNL     1       0.665   5.109  20.429  0.00  0.00    +0.000 F 
ATOM     29  F   UNL     1       2.632   4.964  21.326  0.00  0.00    +0.000 F 
ATOM     30  F   UNL     1       1.474   6.790  21.538  0.00  0.00    +0.000 F 
ENDBRANCH   7  27
TORSDOF 3
ENDMDL
MODEL 7
REMARK VINA RESULT:      -8.1      2.688      3.007
REMARK  Name = 
REMARK  3 active torsions:
REMARK  status: ('A' for Active; 'I' for Inactive)
REMARK    1  A    between atoms: C_2  and  C_3
REMARK    2  A    between atoms: C_7  and  C_8
REMARK    3  A    between atoms: C_14  and  C_15
REMARK                            x       y       z     vdW  Elec       q    Type
REMARK                         _______ _______ _______ _____ _____    ______ ____
ROOT
ATOM      1  C   UNL     1       1.099   7.850  20.596  0.00  0.00    +0.000 A 
ATOM      2  C   UNL     1       1.820   8.218  19.441  0.00  0.00    +0.000 A 
ATOM      3  C   UNL     1       2.512   7.088  19.058  0.00  0.00    +0.000 A 
ATOM      4  N   UNL     1       3.387   6.860  18.041  0.00  0.00    +0.000 NA
ATOM      5  C   UNL     1       3.809   5.635  17.887  0.00  0.00    +0.000 A 
ATOM      6  C   UNL     1       3.386   4.487  18.753  0.00  0.00    +0.000 A 
ATOM      7  C   UNL     1       2.555   4.769  19.765  0.00  0.00    +0.000 A 
ATOM      8  N   UNL     1       2.130   6.079  19.938  0.00  0.00    +0.000 N 
ATOM      9  N   UNL     1       1.371   6.579  20.916  0.00  0.00    +0.000 NA
ENDROOT
BRANCH   1  11
ATOM     10  O   UNL     1      -0.604   8.213  22.188  0.00  0.00    +0.000 OA
ATOM     11  C   UNL     1       0.156   8.699  21.377  0.00  0.00    +0.000 C 
ATOM     12  N   UNL     1       0.265  10.091  21.171  0.00  0.00    +0.000 N 
ATOM     13  C   UNL     1       1.194  10.633  20.179  0.00  0.00    +0.000 C 
ATOM     14  C   UNL     1       1.514  12.115  20.319  0.00  0.00    +0.000 C 
ATOM     15  C   UNL     1       0.244  12.892  20.510  0.00  0.00    +0.000 A 
ATOM     16  C   UNL     1       0.026  14.129  19.904  0.00  0.00    +0.000 A 
ATOM     17  C   UNL     1      -1.180  14.798  20.112  0.00  0.00    +0.000 A 
ATOM     18  C   UNL     1      -2.162  14.245  20.935  0.00  0.00    +0.000 A 
ATOM     19  C   UNL     1      -1.939  13.020  21.562  0.00  0.00    +0.000 A 
ATOM     20  C   UNL     1      -0.739  12.334  21.350  0.00  0.00    +0.000 A 
ATOM     21  C   UNL     1      -0.439  11.025  22.043  0.00  0.00    +0.000 C 
ENDBRANCH   1  11
BRANCH   5  22
ATOM     22  C   UNL     1       4.726   5.328  16.812  0.00  0.00    +0.000 A 
ATOM     23  C   UNL     1       5.228   6.091  15.779  0.00  0.00    +0.000 A 
ATOM     24  C   UNL     1       6.054   5.240  15.005  0.00  0.00    +0.000 A 
ATOM     25  C   UNL     1       6.007   4.009  15.611  0.00  0.00    +0.000 A 
ATOM     26  O   UNL     1       5.219   4.053  16.711  0.00  0.00    +0.000 OA
ENDBRANCH   5  22
BRANCH   7  27
ATOM     27  C   UNL     1       2.069   3.753  20.729  0.00  0.00    +0.000 C 
ATOM     28  F   UNL     1       2.414   3.977  22.019  0.00  0.00    +0.000 F 
ATOM     29  F   UNL     1       0.714   3.652  20.714  0.00  0.00    +0.000 F 
ATOM     30  F   UNL     1       2.542   2.515  20.419  0.00  0.00    +0.000 F 
ENDBRANCH   7  27
TORSDOF 3
ENDMDL
MODEL 8
REMARK VINA RESULT:      -8.1      3.232      8.493
REMARK  Name = 
REMARK  3 active torsions:
REMARK  status: ('A' for Active; 'I' for Inactive)
REMARK    1  A    between atoms: C_2  and  C_3
REMARK    2  A    between atoms: C_7  and  C_8
REMARK    3  A    between atoms: C_14  and  C_15
REMARK                            x       y       z     vdW  Elec       q    Type
REMARK                         _______ _______ _______ _____ _____    ______ ____
ROOT
ATOM      1  C   UNL     1       1.536   9.315  18.804  0.00  0.00    +0.000 A 
ATOM      2  C   UNL     1       1.280  10.626  18.354  0.00  0.00    +0.000 A 
ATOM      3  C   UNL     1       0.567  11.236  19.365  0.00  0.00    +0.000 A 
ATOM      4  N   UNL     1       0.028  12.481  19.473  0.00  0.00    +0.000 NA
ATOM      5  C   UNL     1      -0.519  12.791  20.617  0.00  0.00    +0.000 A 
ATOM      6  C   UNL     1      -0.579  11.868  21.796  0.00  0.00    +0.000 A 
ATOM      7  C   UNL     1      -0.069  10.640  21.627  0.00  0.00    +0.000 A 
ATOM      8  N   UNL     1       0.488  10.308  20.400  0.00  0.00    +0.000 N 
ATOM      9  N   UNL     1       0.975   9.130  20.005  0.00  0.00    +0.000 NA
ENDROOT
BRANCH   1  11
ATOM     10  O   UNL     1       2.959   8.507  17.103  0.00  0.00    +0.000 OA
ATOM     11  C   UNL     1       2.314   8.257  18.100  0.00  0.00    +0.000 C 
ATOM     12  N   UNL     1       2.314   6.985  18.710  0.00  0.00    +0.000 N 
ATOM     13  C   UNL     1       1.517   6.727  19.911  0.00  0.00    +0.000 C 
ATOM     14  C   UNL     1       1.894   5.476  20.693  0.00  0.00    +0.000 C 
ATOM     15  C   UNL     1       2.043   4.315  19.753  0.00  0.00    +0.000 A 
ATOM     16  C   UNL     1       1.591   3.035  20.069  0.00  0.00    +0.000 A 
ATOM     17  C   UNL     1       1.750   1.999  19.149  0.00  0.00    +0.000 A 
ATOM     18  C   UNL     1       2.372   2.233  17.921  0.00  0.00    +0.000 A 
ATOM     19  C   UNL     1       2.847   3.507  17.611  0.00  0.00    +0.000 A 
ATOM     20  C   UNL     1       2.681   4.556  18.521  0.00  0.00    +0.000 A 
ATOM     21  C   UNL     1       3.219   5.940  18.243  0.00  0.00    +0.000 C 
ENDBRANCH   1  11
BRANCH   5  22
ATOM     22  C   UNL     1      -1.093  14.106  20.797  0.00  0.00    +0.000 A 
ATOM     23  C   UNL     1      -0.907  15.296  20.126  0.00  0.00    +0.000 A 
ATOM     24  C   UNL     1      -1.707  16.264  20.780  0.00  0.00    +0.000 A 
ATOM     25  C   UNL     1      -2.333  15.608  21.810  0.00  0.00    +0.000 A 
ATOM     26  O   UNL     1      -1.981  14.301  21.823  0.00  0.00    +0.000 OA
ENDBRANCH   5  22
BRANCH   7  27
ATOM     27  C   UNL     1      -0.080   9.601  22.684  0.00  0.00    +0.000 C 
ATOM     28  F   UNL     1       1.142   9.186  23.091  0.00  0.00    +0.000 F 
ATOM     29  F   UNL     1      -0.725  10.025  23.802  0.00  0.00    +0.000 F 
ATOM     30  F   UNL     1      -0.741   8.486  22.270  0.00  0.00    +0.000 F 
ENDBRANCH   7  27
TORSDOF 3
ENDMDL
MODEL 9
REMARK VINA RESULT:      -8.0      4.154      9.181
REMARK  Name = 
REMARK  3 active torsions:
REMARK  status: ('A' for Active; 'I' for Inactive)
REMARK    1  A    between atoms: C_2  and  C_3
REMARK    2  A    between atoms: C_7  and  C_8
REMARK    3  A    between atoms: C_14  and  C_15
REMARK                            x       y       z     vdW  Elec       q    Type
REMARK                         _______ _______ _______ _____ _____    ______ ____
ROOT
ATOM      1  C   UNL     1       1.103   9.836  19.380  0.00  0.00    +0.000 A 
ATOM      2  C   UNL     1       0.015   9.586  20.241  0.00  0.00    +0.000 A 
ATOM      3  C   UNL     1      -0.266  10.793  20.847  0.00  0.00    +0.000 A 
ATOM      4  N   UNL     1      -1.186  11.145  21.787  0.00  0.00    +0.000 NA
ATOM      5  C   UNL     1      -1.263  12.410  22.094  0.00  0.00    +0.000 A 
ATOM      6  C   UNL     1      -0.411  13.478  21.476  0.00  0.00    +0.000 A 
ATOM      7  C   UNL     1       0.506  13.076  20.585  0.00  0.00    +0.000 A 
ATOM      8  N   UNL     1       0.600  11.725  20.282  0.00  0.00    +0.000 N 
ATOM      9  N   UNL     1       1.484  11.115  19.489  0.00  0.00    +0.000 NA
ENDROOT
BRANCH   1  11
ATOM     10  O   UNL     1       2.169   9.214  17.369  0.00  0.00    +0.000 OA
ATOM     11  C   UNL     1       1.764   8.869  18.460  0.00  0.00    +0.000 C 
ATOM     12  N   UNL     1       1.957   7.568  18.969  0.00  0.00    +0.000 N 
ATOM     13  C   UNL     1       1.449   7.194  20.289  0.00  0.00    +0.000 C 
ATOM     14  C   UNL     1       2.045   5.929  20.890  0.00  0.00    +0.000 C 
ATOM     15  C   UNL     1       2.048   4.833  19.863  0.00  0.00    +0.000 A 
ATOM     16  C   UNL     1       1.737   3.512  20.180  0.00  0.00    +0.000 A 
ATOM     17  C   UNL     1       1.747   2.539  19.179  0.00  0.00    +0.000 A 
ATOM     18  C   UNL     1       2.081   2.880  17.867  0.00  0.00    +0.000 A 
ATOM     19  C   UNL     1       2.416   4.196  17.550  0.00  0.00    +0.000 A 
ATOM     20  C   UNL     1       2.396   5.181  18.543  0.00  0.00    +0.000 A 
ATOM     21  C   UNL     1       2.792   6.609  18.253  0.00  0.00    +0.000 C 
ENDBRANCH   1  11
BRANCH   5  22
ATOM     22  C   UNL     1      -2.234  12.847  23.072  0.00  0.00    +0.000 A 
ATOM     23  C   UNL     1      -2.341  14.002  23.817  0.00  0.00    +0.000 A 
ATOM     24  C   UNL     1      -3.478  13.851  24.647  0.00  0.00    +0.000 A 
ATOM     25  C   UNL     1      -3.998  12.613  24.360  0.00  0.00    +0.000 A 
ATOM     26  O   UNL     1      -3.263  12.002  23.400  0.00  0.00    +0.000 OA
ENDBRANCH   5  22
BRANCH   7  27
ATOM     27  C   UNL     1       1.446  14.002  19.909  0.00  0.00    +0.000 C 
ATOM     28  F   UNL     1       1.404  13.974  18.556  0.00  0.00    +0.000 F 
ATOM     29  F   UNL     1       1.225  15.294  20.266  0.00  0.00    +0.000 F 
ATOM     30  F   UNL     1       2.735  13.732  20.254  0.00  0.00    +0.000 F 
ENDBRANCH   7  27
TORSDOF 3
ENDMDL
