MODEL 1
REMARK VINA RESULT:      -7.2      0.000      0.000
REMARK  Name = 
REMARK  13 active torsions:
REMARK  status: ('A' for Active; 'I' for Inactive)
REMARK    1  A    between atoms: C_1  and  O_2
REMARK    2  A    between atoms: O_2  and  C_3
REMARK    3  A    between atoms: C_3  and  C_4
REMARK    4  A    between atoms: C_4  and  N_5
REMARK    5  A    between atoms: C_8  and  C_9
REMARK    6  A    between atoms: N_11  and  C_12
REMARK    7  A    between atoms: C_13  and  C_14
REMARK    8  A    between atoms: C_13  and  C_15
REMARK    9  A    between atoms: C_16  and  O_17
REMARK   10  A    between atoms: O_17  and  C_18
REMARK   11  A    between atoms: C_21  and  C_22
REMARK   12  A    between atoms: C_27  and  C_28
REMARK   13  A    between atoms: C_27  and  C_29
REMARK                            x       y       z     vdW  Elec       q    Type
REMARK                         _______ _______ _______ _____ _____    ______ ____
ROOT
ATOM      1  C   UNL     1       5.504   3.914  17.665  0.00  0.00    +0.000 C 
ATOM      2  C   UNL     1       5.251   5.426  18.093  0.00  0.00    +0.000 C 
ATOM      3  C   UNL     1       5.931   5.900  19.386  0.00  0.00    +0.000 C 
ATOM      4  C   UNL     1       5.526   6.487  17.016  0.00  0.00    +0.000 C 
ATOM      5  C   UNL     1       3.739   5.036  18.202  0.00  0.00    +0.000 C 
ATOM      6  C   UNL     1       4.127   3.533  18.340  0.00  0.00    +0.000 C 
ATOM      7  C   UNL     1       3.057   2.713  17.607  0.00  0.00    +0.000 C 
ATOM      8  C   UNL     1       4.299   2.940  19.745  0.00  0.00    +0.000 C 
ENDROOT
BRANCH   1  11
ATOM      9  C   UNL     1       6.691   4.004  15.441  0.00  0.00    +0.000 C 
ATOM     10  O   UNL     1       7.746   4.389  15.940  0.00  0.00    +0.000 OA
ATOM     11  N   UNL     1       5.573   3.686  16.195  0.00  0.00    +0.000 N 
ATOM     12  H   UNL     1       4.777   3.395  15.634  0.00  0.00    +0.000 HD
BRANCH   9  16
ATOM     13  N   UNL     1       5.631   3.393  12.101  0.00  0.00    +0.000 N 
ATOM     14  C   UNL     1       6.565   4.338  11.792  0.00  0.00    +0.000 A 
ATOM     15  C   UNL     1       7.136   4.699  12.990  0.00  0.00    +0.000 A 
ATOM     16  C   UNL     1       6.497   3.906  13.981  0.00  0.00    +0.000 A 
ATOM     17  N   UNL     1       5.606   3.062  13.415  0.00  0.00    +0.000 NA
BRANCH  13  18
ATOM     18  C   UNL     1       4.615   2.876  11.199  0.00  0.00    +0.000 C 
BRANCH  18  19
ATOM     19  C   UNL     1       3.615   3.960  10.826  0.00  0.00    +0.000 C 
BRANCH  19  21
ATOM     20  C   UNL     1       2.438   4.816   8.986  0.00  0.00    +0.000 C 
ATOM     21  O   UNL     1       2.974   3.641   9.589  0.00  0.00    +0.000 OA
ENDBRANCH  19  21
ENDBRANCH  18  19
ENDBRANCH  13  18
ENDBRANCH   9  16
ENDBRANCH   1  11
BRANCH   5  22
ATOM     22  O   UNL     1       2.930   5.571  19.272  0.00  0.00    +0.000 OA
BRANCH  22  23
ATOM     23  C   UNL     1       2.379   6.814  19.101  0.00  0.00    +0.000 A 
ATOM     24  C   UNL     1       2.282   7.467  17.873  0.00  0.00    +0.000 A 
ATOM     25  C   UNL     1       1.799   8.775  17.812  0.00  0.00    +0.000 A 
ATOM     26  C   UNL     1       1.369   9.418  18.978  0.00  0.00    +0.000 A 
ATOM     27  C   UNL     1       1.377   8.722  20.190  0.00  0.00    +0.000 A 
ATOM     28 CL   UNL     1       0.793   9.429  21.655  0.00  0.00    +0.000 Cl
ATOM     29  C   UNL     1       1.877   7.419  20.251  0.00  0.00    +0.000 A 
BRANCH  26  30
ATOM     30  C   UNL     1       0.962  10.784  18.887  0.00  0.00    +0.000 C 
ATOM     31  N   UNL     1       0.597  11.890  18.854  0.00  0.00    +0.000 NA
ENDBRANCH  26  30
ENDBRANCH  22  23
ENDBRANCH   5  22
TORSDOF 8
ENDMDL
MODEL 2
REMARK VINA RESULT:      -6.7      1.203      1.596
REMARK  Name = 
REMARK  13 active torsions:
REMARK  status: ('A' for Active; 'I' for Inactive)
REMARK    1  A    between atoms: C_1  and  O_2
REMARK    2  A    between atoms: O_2  and  C_3
REMARK    3  A    between atoms: C_3  and  C_4
REMARK    4  A    between atoms: C_4  and  N_5
REMARK    5  A    between atoms: C_8  and  C_9
REMARK    6  A    between atoms: N_11  and  C_12
REMARK    7  A    between atoms: C_13  and  C_14
REMARK    8  A    between atoms: C_13  and  C_15
REMARK    9  A    between atoms: C_16  and  O_17
REMARK   10  A    between atoms: O_17  and  C_18
REMARK   11  A    between atoms: C_21  and  C_22
REMARK   12  A    between atoms: C_27  and  C_28
REMARK   13  A    between atoms: C_27  and  C_29
REMARK                            x       y       z     vdW  Elec       q    Type
REMARK                         _______ _______ _______ _____ _____    ______ ____
ROOT
ATOM      1  C   UNL     1       5.443   4.003  17.746  0.00  0.00    +0.000 C 
ATOM      2  C   UNL     1       5.164   5.491  18.238  0.00  0.00    +0.000 C 
ATOM      3  C   UNL     1       5.692   5.868  19.630  0.00  0.00    +0.000 C 
ATOM      4  C   UNL     1       5.581   6.610  17.271  0.00  0.00    +0.000 C 
ATOM      5  C   UNL     1       3.644   5.130  18.143  0.00  0.00    +0.000 C 
ATOM      6  C   UNL     1       3.990   3.613  18.229  0.00  0.00    +0.000 C 
ATOM      7  C   UNL     1       3.002   2.864  17.324  0.00  0.00    +0.000 C 
ATOM      8  C   UNL     1       3.984   2.930  19.604  0.00  0.00    +0.000 C 
ENDROOT
BRANCH   1  11
ATOM      9  C   UNL     1       6.902   4.160  15.694  0.00  0.00    +0.000 C 
ATOM     10  O   UNL     1       7.905   4.446  16.343  0.00  0.00    +0.000 OA
ATOM     11  N   UNL     1       5.683   3.865  16.284  0.00  0.00    +0.000 N 
ATOM     12  H   UNL     1       4.948   3.661  15.610  0.00  0.00    +0.000 HD
BRANCH   9  16
ATOM     13  N   UNL     1       6.263   3.783  12.215  0.00  0.00    +0.000 N 
ATOM     14  C   UNL     1       7.208   4.760  12.090  0.00  0.00    +0.000 A 
ATOM     15  C   UNL     1       7.623   5.039  13.372  0.00  0.00    +0.000 A 
ATOM     16  C   UNL     1       6.886   4.167  14.218  0.00  0.00    +0.000 A 
ATOM     17  N   UNL     1       6.088   3.356  13.489  0.00  0.00    +0.000 NA
BRANCH  13  18
ATOM     18  C   UNL     1       5.375   3.321  11.162  0.00  0.00    +0.000 C 
BRANCH  18  19
ATOM     19  C   UNL     1       5.134   1.823  11.270  0.00  0.00    +0.000 C 
BRANCH  19  21
ATOM     20  C   UNL     1       6.164  -0.284  11.270  0.00  0.00    +0.000 C 
ATOM     21  O   UNL     1       6.341   1.104  11.008  0.00  0.00    +0.000 OA
ENDBRANCH  19  21
ENDBRANCH  18  19
ENDBRANCH  13  18
ENDBRANCH   9  16
ENDBRANCH   1  11
BRANCH   5  22
ATOM     22  O   UNL     1       2.722   5.615  19.143  0.00  0.00    +0.000 OA
BRANCH  22  23
ATOM     23  C   UNL     1       2.247   6.894  19.011  0.00  0.00    +0.000 A 
ATOM     24  C   UNL     1       2.145   7.573  17.797  0.00  0.00    +0.000 A 
ATOM     25  C   UNL     1       1.748   8.910  17.774  0.00  0.00    +0.000 A 
ATOM     26  C   UNL     1       1.408   9.561  18.966  0.00  0.00    +0.000 A 
ATOM     27  C   UNL     1       1.419   8.846  20.167  0.00  0.00    +0.000 A 
ATOM     28 CL   UNL     1       0.941   9.566  21.664  0.00  0.00    +0.000 Cl
ATOM     29  C   UNL     1       1.833   7.512  20.189  0.00  0.00    +0.000 A 
BRANCH  26  30
ATOM     30  C   UNL     1       1.090  10.952  18.910  0.00  0.00    +0.000 C 
ATOM     31  N   UNL     1       0.880  12.098  18.881  0.00  0.00    +0.000 NA
ENDBRANCH  26  30
ENDBRANCH  22  23
ENDBRANCH   5  22
TORSDOF 8
ENDMDL
MODEL 3
REMARK VINA RESULT:      -6.6      4.845      8.816
REMARK  Name = 
REMARK  13 active torsions:
REMARK  status: ('A' for Active; 'I' for Inactive)
REMARK    1  A    between atoms: C_1  and  O_2
REMARK    2  A    between atoms: O_2  and  C_3
REMARK    3  A    between atoms: C_3  and  C_4
REMARK    4  A    between atoms: C_4  and  N_5
REMARK    5  A    between atoms: C_8  and  C_9
REMARK    6  A    between atoms: N_11  and  C_12
REMARK    7  A    between atoms: C_13  and  C_14
REMARK    8  A    between atoms: C_13  and  C_15
REMARK    9  A    between atoms: C_16  and  O_17
REMARK   10  A    between atoms: O_17  and  C_18
REMARK   11  A    between atoms: C_21  and  C_22
REMARK   12  A    between atoms: C_27  and  C_28
REMARK   13  A    between atoms: C_27  and  C_29
REMARK                            x       y       z     vdW  Elec       q    Type
REMARK                         _______ _______ _______ _____ _____    ______ ____
ROOT
ATOM      1  C   UNL     1       0.165  11.113  18.522  0.00  0.00    +0.000 C 
ATOM      2  C   UNL     1      -1.421  11.171  18.404  0.00  0.00    +0.000 C 
ATOM      3  C   UNL     1      -1.995  11.909  17.185  0.00  0.00    +0.000 C 
ATOM      4  C   UNL     1      -2.155   9.825  18.511  0.00  0.00    +0.000 C 
ATOM      5  C   UNL     1      -1.391  11.966  19.751  0.00  0.00    +0.000 C 
ATOM      6  C   UNL     1       0.098  12.350  19.503  0.00  0.00    +0.000 C 
ATOM      7  C   UNL     1       0.805  12.352  20.865  0.00  0.00    +0.000 C 
ATOM      8  C   UNL     1       0.413  13.680  18.803  0.00  0.00    +0.000 C 
ENDROOT
BRANCH   1  11
ATOM      9  C   UNL     1       1.661   9.081  18.494  0.00  0.00    +0.000 C 
ATOM     10  O   UNL     1       2.225   9.424  17.457  0.00  0.00    +0.000 OA
ATOM     11  N   UNL     1       0.700   9.859  19.120  0.00  0.00    +0.000 N 
ATOM     12  H   UNL     1       0.319   9.430  19.961  0.00  0.00    +0.000 HD
BRANCH   9  16
ATOM     13  N   UNL     1       2.677   5.812  19.460  0.00  0.00    +0.000 N 
ATOM     14  C   UNL     1       2.137   6.164  20.662  0.00  0.00    +0.000 A 
ATOM     15  C   UNL     1       1.641   7.435  20.488  0.00  0.00    +0.000 A 
ATOM     16  C   UNL     1       1.909   7.775  19.134  0.00  0.00    +0.000 A 
ATOM     17  N   UNL     1       2.500   6.744  18.492  0.00  0.00    +0.000 NA
BRANCH  13  18
ATOM     18  C   UNL     1       3.518   4.653  19.213  0.00  0.00    +0.000 C 
BRANCH  18  19
ATOM     19  C   UNL     1       4.992   5.031  19.254  0.00  0.00    +0.000 C 
BRANCH  19  21
ATOM     20  C   UNL     1       5.191   4.282  17.040  0.00  0.00    +0.000 C 
ATOM     21  O   UNL     1       5.459   5.351  17.942  0.00  0.00    +0.000 OA
ENDBRANCH  19  21
ENDBRANCH  18  19
ENDBRANCH  13  18
ENDBRANCH   9  16
ENDBRANCH   1  11
BRANCH   5  22
ATOM     22  O   UNL     1      -2.294  13.075  19.955  0.00  0.00    +0.000 OA
BRANCH  22  23
ATOM     23  C   UNL     1      -3.433  12.850  20.683  0.00  0.00    +0.000 A 
ATOM     24  C   UNL     1      -4.694  12.644  20.126  0.00  0.00    +0.000 A 
ATOM     25  C   UNL     1      -5.814  12.527  20.950  0.00  0.00    +0.000 A 
ATOM     26  C   UNL     1      -5.667  12.569  22.341  0.00  0.00    +0.000 A 
ATOM     27  C   UNL     1      -4.388  12.677  22.895  0.00  0.00    +0.000 A 
ATOM     28 CL   UNL     1      -4.127  12.662  24.603  0.00  0.00    +0.000 Cl
ATOM     29  C   UNL     1      -3.271  12.812  22.067  0.00  0.00    +0.000 A 
BRANCH  26  30
ATOM     30  C   UNL     1      -6.845  12.531  23.147  0.00  0.00    +0.000 C 
ATOM     31  N   UNL     1      -7.822  12.454  23.778  0.00  0.00    +0.000 NA
ENDBRANCH  26  30
ENDBRANCH  22  23
ENDBRANCH   5  22
TORSDOF 8
ENDMDL
MODEL 4
REMARK VINA RESULT:      -6.6      5.048      8.916
REMARK  Name = 
REMARK  13 active torsions:
REMARK  status: ('A' for Active; 'I' for Inactive)
REMARK    1  A    between atoms: C_1  and  O_2
REMARK    2  A    between atoms: O_2  and  C_3
REMARK    3  A    between atoms: C_3  and  C_4
REMARK    4  A    between atoms: C_4  and  N_5
REMARK    5  A    between atoms: C_8  and  C_9
REMARK    6  A    between atoms: N_11  and  C_12
REMARK    7  A    between atoms: C_13  and  C_14
REMARK    8  A    between atoms: C_13  and  C_15
REMARK    9  A    between atoms: C_16  and  O_17
REMARK   10  A    between atoms: O_17  and  C_18
REMARK   11  A    between atoms: C_21  and  C_22
REMARK   12  A    between atoms: C_27  and  C_28
REMARK   13  A    between atoms: C_27  and  C_29
REMARK                            x       y       z     vdW  Elec       q    Type
REMARK                         _______ _______ _______ _____ _____    ______ ____
ROOT
ATOM      1  C   UNL     1       0.156  11.169  18.582  0.00  0.00    +0.000 C 
ATOM      2  C   UNL     1      -1.428  11.239  18.451  0.00  0.00    +0.000 C 
ATOM      3  C   UNL     1      -1.987  12.005  17.243  0.00  0.00    +0.000 C 
ATOM      4  C   UNL     1      -2.170   9.895  18.524  0.00  0.00    +0.000 C 
ATOM      5  C   UNL     1      -1.407  12.006  19.815  0.00  0.00    +0.000 C 
ATOM      6  C   UNL     1       0.087  12.386  19.588  0.00  0.00    +0.000 C 
ATOM      7  C   UNL     1       0.782  12.356  20.956  0.00  0.00    +0.000 C 
ATOM      8  C   UNL     1       0.415  13.728  18.919  0.00  0.00    +0.000 C 
ENDROOT
BRANCH   1  11
ATOM      9  C   UNL     1       1.638   9.128  18.523  0.00  0.00    +0.000 C 
ATOM     10  O   UNL     1       2.212   9.488  17.497  0.00  0.00    +0.000 OA
ATOM     11  N   UNL     1       0.679   9.900  19.159  0.00  0.00    +0.000 N 
ATOM     12  H   UNL     1       0.290   9.458  19.989  0.00  0.00    +0.000 HD
BRANCH   9  16
ATOM     13  N   UNL     1       2.596   5.820  19.413  0.00  0.00    +0.000 N 
ATOM     14  C   UNL     1       2.116   6.173  20.640  0.00  0.00    +0.000 A 
ATOM     15  C   UNL     1       1.651   7.460  20.499  0.00  0.00    +0.000 A 
ATOM     16  C   UNL     1       1.874   7.808  19.140  0.00  0.00    +0.000 A 
ATOM     17  N   UNL     1       2.408   6.767  18.463  0.00  0.00    +0.000 NA
BRANCH  13  18
ATOM     18  C   UNL     1       3.391   4.640  19.120  0.00  0.00    +0.000 C 
BRANCH  18  19
ATOM     19  C   UNL     1       2.515   3.503  18.616  0.00  0.00    +0.000 C 
BRANCH  19  21
ATOM     20  C   UNL     1       3.622   1.442  18.457  0.00  0.00    +0.000 C 
ATOM     21  O   UNL     1       2.837   2.287  19.293  0.00  0.00    +0.000 OA
ENDBRANCH  19  21
ENDBRANCH  18  19
ENDBRANCH  13  18
ENDBRANCH   9  16
ENDBRANCH   1  11
BRANCH   5  22
ATOM     22  O   UNL     1      -2.305  13.115  20.034  0.00  0.00    +0.000 OA
BRANCH  22  23
ATOM     23  C   UNL     1      -3.451  12.882  20.749  0.00  0.00    +0.000 A 
ATOM     24  C   UNL     1      -4.703  12.664  20.177  0.00  0.00    +0.000 A 
ATOM     25  C   UNL     1      -5.832  12.539  20.989  0.00  0.00    +0.000 A 
ATOM     26  C   UNL     1      -5.701  12.586  22.381  0.00  0.00    +0.000 A 
ATOM     27  C   UNL     1      -4.430  12.706  22.950  0.00  0.00    +0.000 A 
ATOM     28 CL   UNL     1      -4.188  12.697  24.661  0.00  0.00    +0.000 Cl
ATOM     29  C   UNL     1      -3.304  12.848  22.134  0.00  0.00    +0.000 A 
BRANCH  26  30
ATOM     30  C   UNL     1      -6.889  12.539  23.174  0.00  0.00    +0.000 C 
ATOM     31  N   UNL     1      -7.844  12.550  23.841  0.00  0.00    +0.000 NA
ENDBRANCH  26  30
ENDBRANCH  22  23
ENDBRANCH   5  22
TORSDOF 8
ENDMDL
MODEL 5
REMARK VINA RESULT:      -6.6      3.649      8.574
REMARK  Name = 
REMARK  13 active torsions:
REMARK  status: ('A' for Active; 'I' for Inactive)
REMARK    1  A    between atoms: C_1  and  O_2
REMARK    2  A    between atoms: O_2  and  C_3
REMARK    3  A    between atoms: C_3  and  C_4
REMARK    4  A    between atoms: C_4  and  N_5
REMARK    5  A    between atoms: C_8  and  C_9
REMARK    6  A    between atoms: N_11  and  C_12
REMARK    7  A    between atoms: C_13  and  C_14
REMARK    8  A    between atoms: C_13  and  C_15
REMARK    9  A    between atoms: C_16  and  O_17
REMARK   10  A    between atoms: O_17  and  C_18
REMARK   11  A    between atoms: C_21  and  C_22
REMARK   12  A    between atoms: C_27  and  C_28
REMARK   13  A    between atoms: C_27  and  C_29
REMARK                            x       y       z     vdW  Elec       q    Type
REMARK                         _______ _______ _______ _____ _____    ______ ____
ROOT
ATOM      1  C   UNL     1       3.057   4.452  19.742  0.00  0.00    +0.000 C 
ATOM      2  C   UNL     1       2.598   3.964  18.298  0.00  0.00    +0.000 C 
ATOM      3  C   UNL     1       2.075   2.524  18.190  0.00  0.00    +0.000 C 
ATOM      4  C   UNL     1       1.596   4.872  17.567  0.00  0.00    +0.000 C 
ATOM      5  C   UNL     1       4.081   4.203  17.857  0.00  0.00    +0.000 C 
ATOM      6  C   UNL     1       4.547   4.110  19.341  0.00  0.00    +0.000 C 
ATOM      7  C   UNL     1       5.694   5.112  19.526  0.00  0.00    +0.000 C 
ATOM      8  C   UNL     1       5.011   2.752  19.886  0.00  0.00    +0.000 C 
ENDROOT
BRANCH   1  11
ATOM      9  C   UNL     1       1.617   6.331  20.613  0.00  0.00    +0.000 C 
ATOM     10  O   UNL     1       0.757   5.566  21.044  0.00  0.00    +0.000 OA
ATOM     11  N   UNL     1       2.793   5.889  20.027  0.00  0.00    +0.000 N 
ATOM     12  H   UNL     1       3.395   6.645  19.711  0.00  0.00    +0.000 HD
BRANCH   9  16
ATOM     13  N   UNL     1       1.223   9.797  19.914  0.00  0.00    +0.000 N 
ATOM     14  C   UNL     1       0.902   9.872  21.238  0.00  0.00    +0.000 A 
ATOM     15  C   UNL     1       1.026   8.591  21.723  0.00  0.00    +0.000 A 
ATOM     16  C   UNL     1       1.448   7.797  20.622  0.00  0.00    +0.000 A 
ATOM     17  N   UNL     1       1.620   8.562  19.521  0.00  0.00    +0.000 NA
BRANCH  13  18
ATOM     18  C   UNL     1       1.021  10.846  18.930  0.00  0.00    +0.000 C 
BRANCH  18  19
ATOM     19  C   UNL     1       0.562  12.136  19.594  0.00  0.00    +0.000 C 
BRANCH  19  21
ATOM     20  C   UNL     1      -1.335  12.295  18.224  0.00  0.00    +0.000 C 
ATOM     21  O   UNL     1      -0.863  12.230  19.567  0.00  0.00    +0.000 OA
ENDBRANCH  19  21
ENDBRANCH  18  19
ENDBRANCH  13  18
ENDBRANCH   9  16
ENDBRANCH   1  11
BRANCH   5  22
ATOM     22  O   UNL     1       4.720   3.283  16.945  0.00  0.00    +0.000 OA
BRANCH  22  23
ATOM     23  C   UNL     1       5.598   3.797  16.026  0.00  0.00    +0.000 A 
ATOM     24  C   UNL     1       6.665   4.636  16.343  0.00  0.00    +0.000 A 
ATOM     25  C   UNL     1       7.443   5.194  15.328  0.00  0.00    +0.000 A 
ATOM     26  C   UNL     1       7.182   4.875  13.990  0.00  0.00    +0.000 A 
ATOM     27  C   UNL     1       6.173   3.956  13.686  0.00  0.00    +0.000 A 
ATOM     28 CL   UNL     1       5.845   3.462  12.063  0.00  0.00    +0.000 Cl
ATOM     29  C   UNL     1       5.385   3.413  14.704  0.00  0.00    +0.000 A 
BRANCH  26  30
ATOM     30  C   UNL     1       7.945   5.532  12.977  0.00  0.00    +0.000 C 
ATOM     31  N   UNL     1       8.521   6.090  12.132  0.00  0.00    +0.000 NA
ENDBRANCH  26  30
ENDBRANCH  22  23
ENDBRANCH   5  22
TORSDOF 8
ENDMDL
MODEL 6
REMARK VINA RESULT:      -6.5      4.786      8.820
REMARK  Name = 
REMARK  13 active torsions:
REMARK  status: ('A' for Active; 'I' for Inactive)
REMARK    1  A    between atoms: C_1  and  O_2
REMARK    2  A    between atoms: O_2  and  C_3
REMARK    3  A    between atoms: C_3  and  C_4
REMARK    4  A    between atoms: C_4  and  N_5
REMARK    5  A    between atoms: C_8  and  C_9
REMARK    6  A    between atoms: N_11  and  C_12
REMARK    7  A    between atoms: C_13  and  C_14
REMARK    8  A    between atoms: C_13  and  C_15
REMARK    9  A    between atoms: C_16  and  O_17
REMARK   10  A    between atoms: O_17  and  C_18
REMARK   11  A    between atoms: C_21  and  C_22
REMARK   12  A    between atoms: C_27  and  C_28
REMARK   13  A    between atoms: C_27  and  C_29
REMARK                            x       y       z     vdW  Elec       q    Type
REMARK                         _______ _______ _______ _____ _____    ______ ____
ROOT
ATOM      1  C   UNL     1       0.359  10.961  18.466  0.00  0.00    +0.000 C 
ATOM      2  C   UNL     1      -1.226  11.108  18.489  0.00  0.00    +0.000 C 
ATOM      3  C   UNL     1      -1.871  11.808  17.285  0.00  0.00    +0.000 C 
ATOM      4  C   UNL     1      -2.019   9.816  18.747  0.00  0.00    +0.000 C 
ATOM      5  C   UNL     1      -1.026  11.975  19.777  0.00  0.00    +0.000 C 
ATOM      6  C   UNL     1       0.452  12.254  19.370  0.00  0.00    +0.000 C 
ATOM      7  C   UNL     1       1.284  12.291  20.660  0.00  0.00    +0.000 C 
ATOM      8  C   UNL     1       0.771  13.520  18.563  0.00  0.00    +0.000 C 
ENDROOT
BRANCH   1  11
ATOM      9  C   UNL     1       1.818   8.903  18.473  0.00  0.00    +0.000 C 
ATOM     10  O   UNL     1       2.376   9.209  17.422  0.00  0.00    +0.000 OA
ATOM     11  N   UNL     1       0.878   9.713  19.090  0.00  0.00    +0.000 N 
ATOM     12  H   UNL     1       0.501   9.314  19.946  0.00  0.00    +0.000 HD
BRANCH   9  16
ATOM     13  N   UNL     1       2.920   5.720  19.616  0.00  0.00    +0.000 N 
ATOM     14  C   UNL     1       2.104   5.986  20.676  0.00  0.00    +0.000 A 
ATOM     15  C   UNL     1       1.534   7.209  20.406  0.00  0.00    +0.000 A 
ATOM     16  C   UNL     1       2.051   7.609  19.144  0.00  0.00    +0.000 A 
ATOM     17  N   UNL     1       2.864   6.657  18.638  0.00  0.00    +0.000 NA
BRANCH  13  18
ATOM     18  C   UNL     1       3.905   4.653  19.549  0.00  0.00    +0.000 C 
BRANCH  18  19
ATOM     19  C   UNL     1       4.941   4.935  18.471  0.00  0.00    +0.000 C 
BRANCH  19  21
ATOM     20  C   UNL     1       7.231   4.902  17.967  0.00  0.00    +0.000 C 
ATOM     21  O   UNL     1       6.230   4.481  18.889  0.00  0.00    +0.000 OA
ENDBRANCH  19  21
ENDBRANCH  18  19
ENDBRANCH  13  18
ENDBRANCH   9  16
ENDBRANCH   1  11
BRANCH   5  22
ATOM     22  O   UNL     1      -1.844  13.146  19.992  0.00  0.00    +0.000 OA
BRANCH  22  23
ATOM     23  C   UNL     1      -2.871  13.054  20.894  0.00  0.00    +0.000 A 
ATOM     24  C   UNL     1      -2.699  12.852  22.263  0.00  0.00    +0.000 A 
ATOM     25  C   UNL     1      -3.809  12.667  23.089  0.00  0.00    +0.000 A 
ATOM     26  C   UNL     1      -5.100  12.728  22.551  0.00  0.00    +0.000 A 
ATOM     27  C   UNL     1      -5.268  13.028  21.196  0.00  0.00    +0.000 A 
ATOM     28 CL   UNL     1      -6.833  13.191  20.481  0.00  0.00    +0.000 Cl
ATOM     29  C   UNL     1      -4.154  13.196  20.369  0.00  0.00    +0.000 A 
BRANCH  26  30
ATOM     30  C   UNL     1      -6.205  12.449  23.411  0.00  0.00    +0.000 C 
ATOM     31  N   UNL     1      -7.114  12.174  24.087  0.00  0.00    +0.000 NA
ENDBRANCH  26  30
ENDBRANCH  22  23
ENDBRANCH   5  22
TORSDOF 8
ENDMDL
MODEL 7
REMARK VINA RESULT:      -6.4      4.593     10.428
REMARK  Name = 
REMARK  13 active torsions:
REMARK  status: ('A' for Active; 'I' for Inactive)
REMARK    1  A    between atoms: C_1  and  O_2
REMARK    2  A    between atoms: O_2  and  C_3
REMARK    3  A    between atoms: C_3  and  C_4
REMARK    4  A    between atoms: C_4  and  N_5
REMARK    5  A    between atoms: C_8  and  C_9
REMARK    6  A    between atoms: N_11  and  C_12
REMARK    7  A    between atoms: C_13  and  C_14
REMARK    8  A    between atoms: C_13  and  C_15
REMARK    9  A    between atoms: C_16  and  O_17
REMARK   10  A    between atoms: O_17  and  C_18
REMARK   11  A    between atoms: C_21  and  C_22
REMARK   12  A    between atoms: C_27  and  C_28
REMARK   13  A    between atoms: C_27  and  C_29
REMARK                            x       y       z     vdW  Elec       q    Type
REMARK                         _______ _______ _______ _____ _____    ______ ____
ROOT
ATOM      1  C   UNL     1       0.661  10.804  20.298  0.00  0.00    +0.000 C 
ATOM      2  C   UNL     1       0.987  10.065  18.927  0.00  0.00    +0.000 C 
ATOM      3  C   UNL     1      -0.212   9.682  18.047  0.00  0.00    +0.000 C 
ATOM      4  C   UNL     1       2.019  10.753  18.019  0.00  0.00    +0.000 C 
ATOM      5  C   UNL     1       1.602   8.924  19.804  0.00  0.00    +0.000 C 
ATOM      6  C   UNL     1       0.772   9.408  21.031  0.00  0.00    +0.000 C 
ATOM      7  C   UNL     1       1.640   9.208  22.280  0.00  0.00    +0.000 C 
ATOM      8  C   UNL     1      -0.597   8.767  21.297  0.00  0.00    +0.000 C 
ENDROOT
BRANCH   1  11
ATOM      9  C   UNL     1       1.529  13.168  20.432  0.00  0.00    +0.000 C 
ATOM     10  O   UNL     1       0.517  13.644  19.922  0.00  0.00    +0.000 OA
ATOM     11  N   UNL     1       1.667  11.818  20.714  0.00  0.00    +0.000 N 
ATOM     12  H   UNL     1       2.568  11.582  21.124  0.00  0.00    +0.000 HD
BRANCH   9  16
ATOM     13  N   UNL     1       4.475  14.690  21.722  0.00  0.00    +0.000 N 
ATOM     14  C   UNL     1       4.493  15.325  20.515  0.00  0.00    +0.000 A 
ATOM     15  C   UNL     1       3.376  14.881  19.846  0.00  0.00    +0.000 A 
ATOM     16  C   UNL     1       2.721  13.985  20.734  0.00  0.00    +0.000 A 
ATOM     17  N   UNL     1       3.378  13.916  21.912  0.00  0.00    +0.000 NA
BRANCH  13  18
ATOM     18  C   UNL     1       5.564  14.661  22.683  0.00  0.00    +0.000 C 
BRANCH  18  19
ATOM     19  C   UNL     1       5.723  13.273  23.286  0.00  0.00    +0.000 C 
BRANCH  19  21
ATOM     20  C   UNL     1       5.658  14.394  25.344  0.00  0.00    +0.000 C 
ATOM     21  O   UNL     1       5.217  13.249  24.622  0.00  0.00    +0.000 OA
ENDBRANCH  19  21
ENDBRANCH  18  19
ENDBRANCH  13  18
ENDBRANCH   9  16
ENDBRANCH   1  11
BRANCH   5  22
ATOM     22  O   UNL     1       1.410   7.542  19.430  0.00  0.00    +0.000 OA
BRANCH  22  23
ATOM     23  C   UNL     1       2.522   6.795  19.141  0.00  0.00    +0.000 A 
ATOM     24  C   UNL     1       3.032   5.793  19.965  0.00  0.00    +0.000 A 
ATOM     25  C   UNL     1       4.230   5.158  19.637  0.00  0.00    +0.000 A 
ATOM     26  C   UNL     1       4.900   5.494  18.455  0.00  0.00    +0.000 A 
ATOM     27  C   UNL     1       4.333   6.429  17.585  0.00  0.00    +0.000 A 
ATOM     28 CL   UNL     1       5.069   6.838  16.075  0.00  0.00    +0.000 Cl
ATOM     29  C   UNL     1       3.142   7.076  17.925  0.00  0.00    +0.000 A 
BRANCH  26  30
ATOM     30  C   UNL     1       6.165   4.883  18.197  0.00  0.00    +0.000 C 
ATOM     31  N   UNL     1       7.220   4.434  17.990  0.00  0.00    +0.000 NA
ENDBRANCH  26  30
ENDBRANCH  22  23
ENDBRANCH   5  22
TORSDOF 8
ENDMDL
MODEL 8
REMARK VINA RESULT:      -6.3      4.811      8.731
REMARK  Name = 
REMARK  13 active torsions:
REMARK  status: ('A' for Active; 'I' for Inactive)
REMARK    1  A    between atoms: C_1  and  O_2
REMARK    2  A    between atoms: O_2  and  C_3
REMARK    3  A    between atoms: C_3  and  C_4
REMARK    4  A    between atoms: C_4  and  N_5
REMARK    5  A    between atoms: C_8  and  C_9
REMARK    6  A    between atoms: N_11  and  C_12
REMARK    7  A    between atoms: C_13  and  C_14
REMARK    8  A    between atoms: C_13  and  C_15
REMARK    9  A    between atoms: C_16  and  O_17
REMARK   10  A    between atoms: O_17  and  C_18
REMARK   11  A    between atoms: C_21  and  C_22
REMARK   12  A    between atoms: C_27  and  C_28
REMARK   13  A    between atoms: C_27  and  C_29
REMARK                            x       y       z     vdW  Elec       q    Type
REMARK                         _______ _______ _______ _____ _____    ______ ____
ROOT
ATOM      1  C   UNL     1       0.331  10.983  18.482  0.00  0.00    +0.000 C 
ATOM      2  C   UNL     1      -1.250  11.163  18.487  0.00  0.00    +0.000 C 
ATOM      3  C   UNL     1      -1.864  11.897  17.286  0.00  0.00    +0.000 C 
ATOM      4  C   UNL     1      -2.074   9.884  18.712  0.00  0.00    +0.000 C 
ATOM      5  C   UNL     1      -1.050  12.004  19.791  0.00  0.00    +0.000 C 
ATOM      6  C   UNL     1       0.439  12.258  19.409  0.00  0.00    +0.000 C 
ATOM      7  C   UNL     1       1.254  12.256  20.710  0.00  0.00    +0.000 C 
ATOM      8  C   UNL     1       0.796  13.531  18.628  0.00  0.00    +0.000 C 
ENDROOT
BRANCH   1  11
ATOM      9  C   UNL     1       1.751   8.898  18.477  0.00  0.00    +0.000 C 
ATOM     10  O   UNL     1       2.333   9.212  17.442  0.00  0.00    +0.000 OA
ATOM     11  N   UNL     1       0.816   9.714  19.092  0.00  0.00    +0.000 N 
ATOM     12  H   UNL     1       0.415   9.306  19.934  0.00  0.00    +0.000 HD
BRANCH   9  16
ATOM     13  N   UNL     1       2.647   5.603  19.476  0.00  0.00    +0.000 N 
ATOM     14  C   UNL     1       2.098   5.978  20.667  0.00  0.00    +0.000 A 
ATOM     15  C   UNL     1       1.645   7.263  20.478  0.00  0.00    +0.000 A 
ATOM     16  C   UNL     1       1.947   7.587  19.128  0.00  0.00    +0.000 A 
ATOM     17  N   UNL     1       2.517   6.535  18.500  0.00  0.00    +0.000 NA
BRANCH  13  18
ATOM     18  C   UNL     1       3.456   4.418  19.249  0.00  0.00    +0.000 C 
BRANCH  18  19
ATOM     19  C   UNL     1       3.735   4.224  17.766  0.00  0.00    +0.000 C 
BRANCH  19  21
ATOM     20  C   UNL     1       3.109   2.001  18.176  0.00  0.00    +0.000 C 
ATOM     21  O   UNL     1       4.021   2.852  17.488  0.00  0.00    +0.000 OA
ENDBRANCH  19  21
ENDBRANCH  18  19
ENDBRANCH  13  18
ENDBRANCH   9  16
ENDBRANCH   1  11
BRANCH   5  22
ATOM     22  O   UNL     1      -1.845  13.189  20.016  0.00  0.00    +0.000 OA
BRANCH  22  23
ATOM     23  C   UNL     1      -2.860  13.116  20.935  0.00  0.00    +0.000 A 
ATOM     24  C   UNL     1      -2.677  12.820  22.285  0.00  0.00    +0.000 A 
ATOM     25  C   UNL     1      -3.782  12.665  23.123  0.00  0.00    +0.000 A 
ATOM     26  C   UNL     1      -5.074  12.850  22.620  0.00  0.00    +0.000 A 
ATOM     27  C   UNL     1      -5.246  13.242  21.290  0.00  0.00    +0.000 A 
ATOM     28 CL   UNL     1      -6.808  13.559  20.622  0.00  0.00    +0.000 Cl
ATOM     29  C   UNL     1      -4.138  13.380  20.448  0.00  0.00    +0.000 A 
BRANCH  26  30
ATOM     30  C   UNL     1      -6.181  12.598  23.488  0.00  0.00    +0.000 C 
ATOM     31  N   UNL     1      -7.095  12.446  24.193  0.00  0.00    +0.000 NA
ENDBRANCH  26  30
ENDBRANCH  22  23
ENDBRANCH   5  22
TORSDOF 8
ENDMDL
MODEL 9
REMARK VINA RESULT:      -6.3      5.221      8.986
REMARK  Name = 
REMARK  13 active torsions:
REMARK  status: ('A' for Active; 'I' for Inactive)
REMARK    1  A    between atoms: C_1  and  O_2
REMARK    2  A    between atoms: O_2  and  C_3
REMARK    3  A    between atoms: C_3  and  C_4
REMARK    4  A    between atoms: C_4  and  N_5
REMARK    5  A    between atoms: C_8  and  C_9
REMARK    6  A    between atoms: N_11  and  C_12
REMARK    7  A    between atoms: C_13  and  C_14
REMARK    8  A    between atoms: C_13  and  C_15
REMARK    9  A    between atoms: C_16  and  O_17
REMARK   10  A    between atoms: O_17  and  C_18
REMARK   11  A    between atoms: C_21  and  C_22
REMARK   12  A    between atoms: C_27  and  C_28
REMARK   13  A    between atoms: C_27  and  C_29
REMARK                            x       y       z     vdW  Elec       q    Type
REMARK                         _______ _______ _______ _____ _____    ______ ____
ROOT
ATOM      1  C   UNL     1       0.273  10.957  18.371  0.00  0.00    +0.000 C 
ATOM      2  C   UNL     1      -1.309  11.122  18.315  0.00  0.00    +0.000 C 
ATOM      3  C   UNL     1      -1.881  11.880  17.107  0.00  0.00    +0.000 C 
ATOM      4  C   UNL     1      -2.128   9.831  18.475  0.00  0.00    +0.000 C 
ATOM      5  C   UNL     1      -1.171  11.933  19.646  0.00  0.00    +0.000 C 
ATOM      6  C   UNL     1       0.330  12.211  19.332  0.00  0.00    +0.000 C 
ATOM      7  C   UNL     1       1.090  12.184  20.664  0.00  0.00    +0.000 C 
ATOM      8  C   UNL     1       0.705  13.505  18.597  0.00  0.00    +0.000 C 
ENDROOT
BRANCH   1  11
ATOM      9  C   UNL     1       1.760   8.920  18.408  0.00  0.00    +0.000 C 
ATOM     10  O   UNL     1       2.422   9.299  17.444  0.00  0.00    +0.000 OA
ATOM     11  N   UNL     1       0.745   9.679  18.969  0.00  0.00    +0.000 N 
ATOM     12  H   UNL     1       0.285   9.221  19.753  0.00  0.00    +0.000 HD
BRANCH   9  16
ATOM     13  N   UNL     1       2.518   5.549  19.253  0.00  0.00    +0.000 N 
ATOM     14  C   UNL     1       2.195   5.951  20.515  0.00  0.00    +0.000 A 
ATOM     15  C   UNL     1       1.828   7.272  20.400  0.00  0.00    +0.000 A 
ATOM     16  C   UNL     1       1.943   7.589  19.019  0.00  0.00    +0.000 A 
ATOM     17  N   UNL     1       2.318   6.502  18.310  0.00  0.00    +0.000 NA
BRANCH  13  18
ATOM     18  C   UNL     1       3.179   4.303  18.901  0.00  0.00    +0.000 C 
BRANCH  18  19
ATOM     19  C   UNL     1       3.289   3.385  20.110  0.00  0.00    +0.000 C 
BRANCH  19  21
ATOM     20  C   UNL     1       1.584   2.546  21.485  0.00  0.00    +0.000 C 
ATOM     21  O   UNL     1       2.156   2.517  20.181  0.00  0.00    +0.000 OA
ENDBRANCH  19  21
ENDBRANCH  18  19
ENDBRANCH  13  18
ENDBRANCH   9  16
ENDBRANCH   1  11
BRANCH   5  22
ATOM     22  O   UNL     1      -1.987  13.105  19.866  0.00  0.00    +0.000 OA
BRANCH  22  23
ATOM     23  C   UNL     1      -3.007  13.014  20.777  0.00  0.00    +0.000 A 
ATOM     24  C   UNL     1      -2.823  12.907  22.155  0.00  0.00    +0.000 A 
ATOM     25  C   UNL     1      -3.920  12.714  22.995  0.00  0.00    +0.000 A 
ATOM     26  C   UNL     1      -5.213  12.673  22.461  0.00  0.00    +0.000 A 
ATOM     27  C   UNL     1      -5.398  12.879  21.091  0.00  0.00    +0.000 A 
ATOM     28 CL   UNL     1      -6.971  12.914  20.375  0.00  0.00    +0.000 Cl
ATOM     29  C   UNL     1      -4.296  13.055  20.250  0.00  0.00    +0.000 A 
BRANCH  26  30
ATOM     30  C   UNL     1      -6.300  12.389  23.343  0.00  0.00    +0.000 C 
ATOM     31  N   UNL     1      -7.221  12.175  24.023  0.00  0.00    +0.000 NA
ENDBRANCH  26  30
ENDBRANCH  22  23
ENDBRANCH   5  22
TORSDOF 8
ENDMDL
