MODEL 1
REMARK VINA RESULT:      -7.9      0.000      0.000
REMARK  Name = 
REMARK  8 active torsions:
REMARK  status: ('A' for Active; 'I' for Inactive)
REMARK    1  A    between atoms: C_1  and  C_2
REMARK    2  A    between atoms: C_7  and  C_8
REMARK    3  A    between atoms: C_8  and  N_9
REMARK    4  A    between atoms: C_13  and  C_14
REMARK    5  A    between atoms: N_18  and  C_19
REMARK    6  A    between atoms: C_19  and  C_20
REMARK    7  A    between atoms: C_20  and  O_22
REMARK    8  A    between atoms: C_24  and  C_25
REMARK                            x       y       z     vdW  Elec       q    Type
REMARK                         _______ _______ _______ _____ _____    ______ ____
ROOT
ATOM      1  N   UNL     1       2.290   7.929  18.845  0.00  0.00    +0.000 NA
ATOM      2  C   UNL     1       1.553   7.678  20.086  0.00  0.00    +0.000 C 
ATOM      3  C   UNL     1       1.967   6.353  20.732  0.00  0.00    +0.000 C 
ATOM      4  C   UNL     1       1.815   5.198  19.754  0.00  0.00    +0.000 C 
ATOM      5  C   UNL     1       2.570   5.478  18.445  0.00  0.00    +0.000 C 
ATOM      6  C   UNL     1       2.153   6.843  17.871  0.00  0.00    +0.000 C 
ENDROOT
BRANCH   5   7
ATOM      7  C   UNL     1       4.054   5.146  18.552  0.00  0.00    +0.000 A 
ATOM      8  C   UNL     1       5.067   5.973  18.078  0.00  0.00    +0.000 A 
ATOM      9  C   UNL     1       6.266   5.300  18.310  0.00  0.00    +0.000 A 
ATOM     10  N   UNL     1       6.070   4.131  18.904  0.00  0.00    +0.000 NA
ATOM     11  N   UNL     1       4.721   4.046  19.074  0.00  0.00    +0.000 N 
BRANCH  11  12
ATOM     12  C   UNL     1       4.268   2.781  19.630  0.00  0.00    +0.000 C 
BRANCH  12  13
ATOM     13  C   UNL     1       3.645   1.879  18.604  0.00  0.00    +0.000 C 
ATOM     14  O   UNL     1       2.685   2.087  17.882  0.00  0.00    +0.000 OA
BRANCH  13  15
ATOM     15  O   UNL     1       4.333   0.716  18.475  0.00  0.00    +0.000 OA
ATOM     16  H   UNL     1       3.733   0.036  18.848  0.00  0.00    +0.000 HD
ENDBRANCH  13  15
ENDBRANCH  12  13
ENDBRANCH  11  12
ENDBRANCH   5   7
BRANCH   1  17
ATOM     17  C   UNL     1       2.052   9.257  18.258  0.00  0.00    +0.000 C 
BRANCH  17  24
ATOM     18  C   UNL     1      -4.818  12.256  18.792  0.00  0.00    +0.000 C 
ATOM     19  C   UNL     1      -3.603  11.489  18.357  0.00  0.00    +0.000 A 
ATOM     20  C   UNL     1      -3.645  10.660  17.227  0.00  0.00    +0.000 A 
ATOM     21  C   UNL     1      -2.534   9.910  16.827  0.00  0.00    +0.000 A 
ATOM     22  C   UNL     1      -1.388  10.036  17.605  0.00  0.00    +0.000 A 
ATOM     23  O   UNL     1      -0.213   9.379  17.391  0.00  0.00    +0.000 OA
ATOM     24  C   UNL     1       0.665   9.798  18.348  0.00  0.00    +0.000 A 
ATOM     25  C   UNL     1       0.063  10.730  19.184  0.00  0.00    +0.000 A 
ATOM     26  C   UNL     1       0.682  11.459  20.318  0.00  0.00    +0.000 C 
ATOM     27  C   UNL     1      -1.282  10.861  18.715  0.00  0.00    +0.000 A 
ATOM     28  C   UNL     1      -2.412  11.607  19.101  0.00  0.00    +0.000 A 
ENDBRANCH  17  24
ENDBRANCH   1  17
TORSDOF 6
ENDMDL
MODEL 2
REMARK VINA RESULT:      -7.6      0.960      1.031
REMARK  Name = 
REMARK  8 active torsions:
REMARK  status: ('A' for Active; 'I' for Inactive)
REMARK    1  A    between atoms: C_1  and  C_2
REMARK    2  A    between atoms: C_7  and  C_8
REMARK    3  A    between atoms: C_8  and  N_9
REMARK    4  A    between atoms: C_13  and  C_14
REMARK    5  A    between atoms: N_18  and  C_19
REMARK    6  A    between atoms: C_19  and  C_20
REMARK    7  A    between atoms: C_20  and  O_22
REMARK    8  A    between atoms: C_24  and  C_25
REMARK                            x       y       z     vdW  Elec       q    Type
REMARK                         _______ _______ _______ _____ _____    ______ ____
ROOT
ATOM      1  N   UNL     1       2.309   7.879  19.032  0.00  0.00    +0.000 NA
ATOM      2  C   UNL     1       1.524   7.563  20.228  0.00  0.00    +0.000 C 
ATOM      3  C   UNL     1       1.884   6.186  20.794  0.00  0.00    +0.000 C 
ATOM      4  C   UNL     1       1.739   5.105  19.733  0.00  0.00    +0.000 C 
ATOM      5  C   UNL     1       2.545   5.455  18.473  0.00  0.00    +0.000 C 
ATOM      6  C   UNL     1       2.180   6.866  17.981  0.00  0.00    +0.000 C 
ENDROOT
BRANCH   5   7
ATOM      7  C   UNL     1       4.016   5.078  18.605  0.00  0.00    +0.000 A 
ATOM      8  C   UNL     1       5.065   5.953  18.337  0.00  0.00    +0.000 A 
ATOM      9  C   UNL     1       6.240   5.225  18.518  0.00  0.00    +0.000 A 
ATOM     10  N   UNL     1       5.996   3.976  18.891  0.00  0.00    +0.000 NA
ATOM     11  N   UNL     1       4.639   3.892  18.967  0.00  0.00    +0.000 N 
BRANCH  11  12
ATOM     12  C   UNL     1       4.140   2.560  19.271  0.00  0.00    +0.000 C 
BRANCH  12  13
ATOM     13  C   UNL     1       4.164   2.245  20.738  0.00  0.00    +0.000 C 
ATOM     14  O   UNL     1       3.291   2.412  21.573  0.00  0.00    +0.000 OA
BRANCH  13  15
ATOM     15  O   UNL     1       5.322   1.638  21.102  0.00  0.00    +0.000 OA
ATOM     16  H   UNL     1       5.689   1.291  20.261  0.00  0.00    +0.000 HD
ENDBRANCH  13  15
ENDBRANCH  12  13
ENDBRANCH  11  12
ENDBRANCH   5   7
BRANCH   1  17
ATOM     17  C   UNL     1       2.122   9.250  18.531  0.00  0.00    +0.000 C 
BRANCH  17  24
ATOM     18  C   UNL     1      -4.762  12.260  18.720  0.00  0.00    +0.000 C 
ATOM     19  C   UNL     1      -3.523  11.502  18.339  0.00  0.00    +0.000 A 
ATOM     20  C   UNL     1      -3.495  10.709  17.184  0.00  0.00    +0.000 A 
ATOM     21  C   UNL     1      -2.362   9.967  16.832  0.00  0.00    +0.000 A 
ATOM     22  C   UNL     1      -1.268  10.063  17.685  0.00  0.00    +0.000 A 
ATOM     23  O   UNL     1      -0.083   9.408  17.526  0.00  0.00    +0.000 OA
ATOM     24  C   UNL     1       0.732   9.794  18.550  0.00  0.00    +0.000 A 
ATOM     25  C   UNL     1       0.081  10.701  19.374  0.00  0.00    +0.000 A 
ATOM     26  C   UNL     1       0.629  11.393  20.568  0.00  0.00    +0.000 C 
ATOM     27  C   UNL     1      -1.231  10.853  18.824  0.00  0.00    +0.000 A 
ATOM     28  C   UNL     1      -2.382  11.591  19.161  0.00  0.00    +0.000 A 
ENDBRANCH  17  24
ENDBRANCH   1  17
TORSDOF 6
ENDMDL
MODEL 3
REMARK VINA RESULT:      -7.5      3.337      8.430
REMARK  Name = 
REMARK  8 active torsions:
REMARK  status: ('A' for Active; 'I' for Inactive)
REMARK    1  A    between atoms: C_1  and  C_2
REMARK    2  A    between atoms: C_7  and  C_8
REMARK    3  A    between atoms: C_8  and  N_9
REMARK    4  A    between atoms: C_13  and  C_14
REMARK    5  A    between atoms: N_18  and  C_19
REMARK    6  A    between atoms: C_19  and  C_20
REMARK    7  A    between atoms: C_20  and  O_22
REMARK    8  A    between atoms: C_24  and  C_25
REMARK                            x       y       z     vdW  Elec       q    Type
REMARK                         _______ _______ _______ _____ _____    ______ ____
ROOT
ATOM      1  N   UNL     1       1.694  10.213  18.562  0.00  0.00    +0.000 NA
ATOM      2  C   UNL     1       2.144  11.593  18.364  0.00  0.00    +0.000 C 
ATOM      3  C   UNL     1       1.630  12.521  19.468  0.00  0.00    +0.000 C 
ATOM      4  C   UNL     1       0.115  12.443  19.585  0.00  0.00    +0.000 C 
ATOM      5  C   UNL     1      -0.352  10.991  19.769  0.00  0.00    +0.000 C 
ATOM      6  C   UNL     1       0.236  10.098  18.663  0.00  0.00    +0.000 C 
ENDROOT
BRANCH   5   7
ATOM      7  C   UNL     1      -0.251  10.531  21.219  0.00  0.00    +0.000 A 
ATOM      8  C   UNL     1       0.247   9.290  21.603  0.00  0.00    +0.000 A 
ATOM      9  C   UNL     1       0.121   9.228  22.991  0.00  0.00    +0.000 A 
ATOM     10  N   UNL     1      -0.401  10.340  23.490  0.00  0.00    +0.000 NA
ATOM     11  N   UNL     1      -0.607  11.146  22.411  0.00  0.00    +0.000 N 
BRANCH  11  12
ATOM     12  C   UNL     1      -1.273  12.400  22.723  0.00  0.00    +0.000 C 
BRANCH  12  13
ATOM     13  C   UNL     1      -2.764  12.261  22.834  0.00  0.00    +0.000 C 
ATOM     14  O   UNL     1      -3.431  11.892  23.785  0.00  0.00    +0.000 OA
BRANCH  13  15
ATOM     15  O   UNL     1      -3.392  12.679  21.706  0.00  0.00    +0.000 OA
ATOM     16  H   UNL     1      -2.718  13.216  21.238  0.00  0.00    +0.000 HD
ENDBRANCH  13  15
ENDBRANCH  12  13
ENDBRANCH  11  12
ENDBRANCH   5   7
BRANCH   1  17
ATOM     17  C   UNL     1       2.281   9.244  17.623  0.00  0.00    +0.000 C 
BRANCH  17  24
ATOM     18  C   UNL     1       4.023   2.417  20.237  0.00  0.00    +0.000 C 
ATOM     19  C   UNL     1       3.423   3.777  20.028  0.00  0.00    +0.000 A 
ATOM     20  C   UNL     1       2.406   4.249  20.868  0.00  0.00    +0.000 A 
ATOM     21  C   UNL     1       1.810   5.499  20.666  0.00  0.00    +0.000 A 
ATOM     22  C   UNL     1       2.285   6.246  19.593  0.00  0.00    +0.000 A 
ATOM     23  O   UNL     1       1.824   7.475  19.223  0.00  0.00    +0.000 OA
ATOM     24  C   UNL     1       2.567   7.878  18.151  0.00  0.00    +0.000 A 
ATOM     25  C   UNL     1       3.511   6.914  17.825  0.00  0.00    +0.000 A 
ATOM     26  C   UNL     1       4.539   6.981  16.756  0.00  0.00    +0.000 C 
ATOM     27  C   UNL     1       3.306   5.841  18.748  0.00  0.00    +0.000 A 
ATOM     28  C   UNL     1       3.892   4.579  18.968  0.00  0.00    +0.000 A 
ENDBRANCH  17  24
ENDBRANCH   1  17
TORSDOF 6
ENDMDL
MODEL 4
REMARK VINA RESULT:      -7.5      1.928      2.275
REMARK  Name = 
REMARK  8 active torsions:
REMARK  status: ('A' for Active; 'I' for Inactive)
REMARK    1  A    between atoms: C_1  and  C_2
REMARK    2  A    between atoms: C_7  and  C_8
REMARK    3  A    between atoms: C_8  and  N_9
REMARK    4  A    between atoms: C_13  and  C_14
REMARK    5  A    between atoms: N_18  and  C_19
REMARK    6  A    between atoms: C_19  and  C_20
REMARK    7  A    between atoms: C_20  and  O_22
REMARK    8  A    between atoms: C_24  and  C_25
REMARK                            x       y       z     vdW  Elec       q    Type
REMARK                         _______ _______ _______ _____ _____    ______ ____
ROOT
ATOM      1  N   UNL     1       2.427   8.173  18.629  0.00  0.00    +0.000 NA
ATOM      2  C   UNL     1       1.698   7.815  19.848  0.00  0.00    +0.000 C 
ATOM      3  C   UNL     1       2.177   6.479  20.422  0.00  0.00    +0.000 C 
ATOM      4  C   UNL     1       2.090   5.374  19.379  0.00  0.00    +0.000 C 
ATOM      5  C   UNL     1       2.836   5.766  18.094  0.00  0.00    +0.000 C 
ATOM      6  C   UNL     1       2.351   7.138  17.594  0.00  0.00    +0.000 C 
ENDROOT
BRANCH   5   7
ATOM      7  C   UNL     1       4.334   5.506  18.194  0.00  0.00    +0.000 A 
ATOM      8  C   UNL     1       5.010   5.329  19.397  0.00  0.00    +0.000 A 
ATOM      9  C   UNL     1       6.358   5.175  19.073  0.00  0.00    +0.000 A 
ATOM     10  N   UNL     1       6.560   5.227  17.764  0.00  0.00    +0.000 NA
ATOM     11  N   UNL     1       5.322   5.406  17.224  0.00  0.00    +0.000 N 
BRANCH  11  12
ATOM     12  C   UNL     1       5.322   5.591  15.782  0.00  0.00    +0.000 C 
BRANCH  12  13
ATOM     13  C   UNL     1       6.437   4.856  15.096  0.00  0.00    +0.000 C 
ATOM     14  O   UNL     1       6.404   3.786  14.511  0.00  0.00    +0.000 OA
BRANCH  13  15
ATOM     15  O   UNL     1       7.593   5.566  15.115  0.00  0.00    +0.000 OA
ATOM     16  H   UNL     1       8.039   5.280  15.940  0.00  0.00    +0.000 HD
ENDBRANCH  13  15
ENDBRANCH  12  13
ENDBRANCH  11  12
ENDBRANCH   5   7
BRANCH   1  17
ATOM     17  C   UNL     1       2.123   9.518  18.115  0.00  0.00    +0.000 C 
BRANCH  17  24
ATOM     18  C   UNL     1      -4.789  12.300  19.099  0.00  0.00    +0.000 C 
ATOM     19  C   UNL     1      -3.588  11.546  18.604  0.00  0.00    +0.000 A 
ATOM     20  C   UNL     1      -3.702  10.632  17.547  0.00  0.00    +0.000 A 
ATOM     21  C   UNL     1      -2.602   9.894  17.097  0.00  0.00    +0.000 A 
ATOM     22  C   UNL     1      -1.394  10.121  17.747  0.00  0.00    +0.000 A 
ATOM     23  O   UNL     1      -0.217   9.491  17.468  0.00  0.00    +0.000 OA
ATOM     24  C   UNL     1       0.728  10.015  18.301  0.00  0.00    +0.000 A 
ATOM     25  C   UNL     1       0.169  10.985  19.121  0.00  0.00    +0.000 A 
ATOM     26  C   UNL     1       0.861  11.822  20.133  0.00  0.00    +0.000 C 
ATOM     27  C   UNL     1      -1.219  11.032  18.778  0.00  0.00    +0.000 A 
ATOM     28  C   UNL     1      -2.338  11.764  19.218  0.00  0.00    +0.000 A 
ENDBRANCH  17  24
ENDBRANCH   1  17
TORSDOF 6
ENDMDL
MODEL 5
REMARK VINA RESULT:      -7.4      2.970      8.519
REMARK  Name = 
REMARK  8 active torsions:
REMARK  status: ('A' for Active; 'I' for Inactive)
REMARK    1  A    between atoms: C_1  and  C_2
REMARK    2  A    between atoms: C_7  and  C_8
REMARK    3  A    between atoms: C_8  and  N_9
REMARK    4  A    between atoms: C_13  and  C_14
REMARK    5  A    between atoms: N_18  and  C_19
REMARK    6  A    between atoms: C_19  and  C_20
REMARK    7  A    between atoms: C_20  and  O_22
REMARK    8  A    between atoms: C_24  and  C_25
REMARK                            x       y       z     vdW  Elec       q    Type
REMARK                         _______ _______ _______ _____ _____    ______ ____
ROOT
ATOM      1  N   UNL     1       3.706   4.183  18.948  0.00  0.00    +0.000 NA
ATOM      2  C   UNL     1       2.585   3.244  19.028  0.00  0.00    +0.000 C 
ATOM      3  C   UNL     1       1.256   3.968  19.261  0.00  0.00    +0.000 C 
ATOM      4  C   UNL     1       1.326   4.856  20.495  0.00  0.00    +0.000 C 
ATOM      5  C   UNL     1       2.519   5.821  20.414  0.00  0.00    +0.000 C 
ATOM      6  C   UNL     1       3.816   5.044  20.128  0.00  0.00    +0.000 C 
ENDROOT
BRANCH   5   7
ATOM      7  C   UNL     1       2.204   7.060  19.584  0.00  0.00    +0.000 A 
ATOM      8  C   UNL     1       2.668   7.260  18.288  0.00  0.00    +0.000 A 
ATOM      9  C   UNL     1       2.216   8.521  17.898  0.00  0.00    +0.000 A 
ATOM     10  N   UNL     1       1.499   9.105  18.849  0.00  0.00    +0.000 NA
ATOM     11  N   UNL     1       1.471   8.204  19.870  0.00  0.00    +0.000 N 
BRANCH  11  12
ATOM     12  C   UNL     1       0.807   8.685  21.071  0.00  0.00    +0.000 C 
BRANCH  12  13
ATOM     13  C   UNL     1       0.571  10.167  21.057  0.00  0.00    +0.000 C 
ATOM     14  O   UNL     1       1.269  11.060  21.507  0.00  0.00    +0.000 OA
BRANCH  13  15
ATOM     15  O   UNL     1      -0.562  10.488  20.382  0.00  0.00    +0.000 OA
ATOM     16  H   UNL     1      -1.186   9.762  20.596  0.00  0.00    +0.000 HD
ENDBRANCH  13  15
ENDBRANCH  12  13
ENDBRANCH  11  12
ENDBRANCH   5   7
BRANCH   1  17
ATOM     17  C   UNL     1       4.988   3.565  18.571  0.00  0.00    +0.000 C 
BRANCH  17  24
ATOM     18  C   UNL     1       8.396   5.871  12.282  0.00  0.00    +0.000 C 
ATOM     19  C   UNL     1       7.520   5.172  13.281  0.00  0.00    +0.000 A 
ATOM     20  C   UNL     1       6.574   4.226  12.866  0.00  0.00    +0.000 A 
ATOM     21  C   UNL     1       5.724   3.591  13.779  0.00  0.00    +0.000 A 
ATOM     22  C   UNL     1       5.874   3.944  15.116  0.00  0.00    +0.000 A 
ATOM     23  O   UNL     1       5.134   3.452  16.150  0.00  0.00    +0.000 OA
ATOM     24  C   UNL     1       5.611   4.022  17.294  0.00  0.00    +0.000 A 
ATOM     25  C   UNL     1       6.661   4.883  17.007  0.00  0.00    +0.000 A 
ATOM     26  C   UNL     1       7.479   5.664  17.969  0.00  0.00    +0.000 C 
ATOM     27  C   UNL     1       6.812   4.851  15.585  0.00  0.00    +0.000 A 
ATOM     28  C   UNL     1       7.656   5.480  14.650  0.00  0.00    +0.000 A 
ENDBRANCH  17  24
ENDBRANCH   1  17
TORSDOF 6
ENDMDL
MODEL 6
REMARK VINA RESULT:      -7.3      2.181      3.634
REMARK  Name = 
REMARK  8 active torsions:
REMARK  status: ('A' for Active; 'I' for Inactive)
REMARK    1  A    between atoms: C_1  and  C_2
REMARK    2  A    between atoms: C_7  and  C_8
REMARK    3  A    between atoms: C_8  and  N_9
REMARK    4  A    between atoms: C_13  and  C_14
REMARK    5  A    between atoms: N_18  and  C_19
REMARK    6  A    between atoms: C_19  and  C_20
REMARK    7  A    between atoms: C_20  and  O_22
REMARK    8  A    between atoms: C_24  and  C_25
REMARK                            x       y       z     vdW  Elec       q    Type
REMARK                         _______ _______ _______ _____ _____    ______ ____
ROOT
ATOM      1  N   UNL     1       2.692   7.224  18.052  0.00  0.00    +0.000 NA
ATOM      2  C   UNL     1       4.047   7.206  17.494  0.00  0.00    +0.000 C 
ATOM      3  C   UNL     1       4.721   5.845  17.688  0.00  0.00    +0.000 C 
ATOM      4  C   UNL     1       4.720   5.439  19.154  0.00  0.00    +0.000 C 
ATOM      5  C   UNL     1       3.300   5.484  19.740  0.00  0.00    +0.000 C 
ATOM      6  C   UNL     1       2.655   6.854  19.470  0.00  0.00    +0.000 C 
ENDROOT
BRANCH   5   7
ATOM      7  C   UNL     1       2.506   4.221  19.426  0.00  0.00    +0.000 A 
ATOM      8  C   UNL     1       1.513   4.154  18.454  0.00  0.00    +0.000 A 
ATOM      9  C   UNL     1       0.992   2.861  18.512  0.00  0.00    +0.000 A 
ATOM     10  N   UNL     1       1.599   2.125  19.433  0.00  0.00    +0.000 NA
ATOM     11  N   UNL     1       2.540   2.947  19.976  0.00  0.00    +0.000 N 
BRANCH  11  12
ATOM     12  C   UNL     1       3.268   2.364  21.091  0.00  0.00    +0.000 C 
BRANCH  12  13
ATOM     13  C   UNL     1       4.594   1.788  20.689  0.00  0.00    +0.000 C 
ATOM     14  O   UNL     1       5.513   1.410  21.396  0.00  0.00    +0.000 OA
BRANCH  13  15
ATOM     15  O   UNL     1       4.689   1.639  19.343  0.00  0.00    +0.000 OA
ATOM     16  H   UNL     1       4.055   0.921  19.133  0.00  0.00    +0.000 HD
ENDBRANCH  13  15
ENDBRANCH  12  13
ENDBRANCH  11  12
ENDBRANCH   5   7
BRANCH   1  17
ATOM     17  C   UNL     1       1.934   8.452  17.761  0.00  0.00    +0.000 C 
BRANCH  17  24
ATOM     18  C   UNL     1      -1.973  11.628  23.340  0.00  0.00    +0.000 C 
ATOM     19  C   UNL     1      -1.023  10.794  22.530  0.00  0.00    +0.000 A 
ATOM     20  C   UNL     1      -0.127   9.917  23.156  0.00  0.00    +0.000 A 
ATOM     21  C   UNL     1       0.790   9.159  22.419  0.00  0.00    +0.000 A 
ATOM     22  C   UNL     1       0.760   9.318  21.038  0.00  0.00    +0.000 A 
ATOM     23  O   UNL     1       1.580   8.684  20.152  0.00  0.00    +0.000 OA
ATOM     24  C   UNL     1       1.210   9.086  18.901  0.00  0.00    +0.000 A 
ATOM     25  C   UNL     1       0.149   9.978  18.972  0.00  0.00    +0.000 A 
ATOM     26  C   UNL     1      -0.575  10.613  17.842  0.00  0.00    +0.000 C 
ATOM     27  C   UNL     1      -0.124  10.149  20.365  0.00  0.00    +0.000 A 
ATOM     28  C   UNL     1      -1.038  10.904  21.125  0.00  0.00    +0.000 A 
ENDBRANCH  17  24
ENDBRANCH   1  17
TORSDOF 6
ENDMDL
MODEL 7
REMARK VINA RESULT:      -7.3      1.151      2.130
REMARK  Name = 
REMARK  8 active torsions:
REMARK  status: ('A' for Active; 'I' for Inactive)
REMARK    1  A    between atoms: C_1  and  C_2
REMARK    2  A    between atoms: C_7  and  C_8
REMARK    3  A    between atoms: C_8  and  N_9
REMARK    4  A    between atoms: C_13  and  C_14
REMARK    5  A    between atoms: N_18  and  C_19
REMARK    6  A    between atoms: C_19  and  C_20
REMARK    7  A    between atoms: C_20  and  O_22
REMARK    8  A    between atoms: C_24  and  C_25
REMARK                            x       y       z     vdW  Elec       q    Type
REMARK                         _______ _______ _______ _____ _____    ______ ____
ROOT
ATOM      1  N   UNL     1       2.228   8.024  18.775  0.00  0.00    +0.000 NA
ATOM      2  C   UNL     1       1.550   7.879  20.066  0.00  0.00    +0.000 C 
ATOM      3  C   UNL     1       1.974   6.596  20.786  0.00  0.00    +0.000 C 
ATOM      4  C   UNL     1       1.755   5.376  19.904  0.00  0.00    +0.000 C 
ATOM      5  C   UNL     1       2.448   5.546  18.543  0.00  0.00    +0.000 C 
ATOM      6  C   UNL     1       2.024   6.874  17.891  0.00  0.00    +0.000 C 
ENDROOT
BRANCH   5   7
ATOM      7  C   UNL     1       3.930   5.194  18.601  0.00  0.00    +0.000 A 
ATOM      8  C   UNL     1       4.941   6.022  18.125  0.00  0.00    +0.000 A 
ATOM      9  C   UNL     1       6.137   5.328  18.305  0.00  0.00    +0.000 A 
ATOM     10  N   UNL     1       5.941   4.145  18.871  0.00  0.00    +0.000 NA
ATOM     11  N   UNL     1       4.596   4.071  19.073  0.00  0.00    +0.000 N 
BRANCH  11  12
ATOM     12  C   UNL     1       4.142   2.796  19.603  0.00  0.00    +0.000 C 
BRANCH  12  13
ATOM     13  C   UNL     1       3.594   1.882  18.546  0.00  0.00    +0.000 C 
ATOM     14  O   UNL     1       2.682   2.078  17.761  0.00  0.00    +0.000 OA
BRANCH  13  15
ATOM     15  O   UNL     1       4.298   0.724  18.470  0.00  0.00    +0.000 OA
ATOM     16  H   UNL     1       5.217   1.010  18.285  0.00  0.00    +0.000 HD
ENDBRANCH  13  15
ENDBRANCH  12  13
ENDBRANCH  11  12
ENDBRANCH   5   7
BRANCH   1  17
ATOM     17  C   UNL     1       1.982   9.311  18.104  0.00  0.00    +0.000 C 
BRANCH  17  24
ATOM     18  C   UNL     1      -3.530  13.511  21.013  0.00  0.00    +0.000 C 
ATOM     19  C   UNL     1      -2.224  12.822  20.742  0.00  0.00    +0.000 A 
ATOM     20  C   UNL     1      -1.107  13.059  21.555  0.00  0.00    +0.000 A 
ATOM     21  C   UNL     1       0.128  12.454  21.296  0.00  0.00    +0.000 A 
ATOM     22  C   UNL     1       0.185  11.604  20.197  0.00  0.00    +0.000 A 
ATOM     23  O   UNL     1       1.295  10.936  19.773  0.00  0.00    +0.000 OA
ATOM     24  C   UNL     1       0.928  10.190  18.691  0.00  0.00    +0.000 A 
ATOM     25  C   UNL     1      -0.420  10.369  18.412  0.00  0.00    +0.000 A 
ATOM     26  C   UNL     1      -1.219   9.709  17.349  0.00  0.00    +0.000 C 
ATOM     27  C   UNL     1      -0.895  11.312  19.377  0.00  0.00    +0.000 A 
ATOM     28  C   UNL     1      -2.128  11.932  19.653  0.00  0.00    +0.000 A 
ENDBRANCH  17  24
ENDBRANCH   1  17
TORSDOF 6
ENDMDL
MODEL 8
REMARK VINA RESULT:      -7.2      4.793      8.875
REMARK  Name = 
REMARK  8 active torsions:
REMARK  status: ('A' for Active; 'I' for Inactive)
REMARK    1  A    between atoms: C_1  and  C_2
REMARK    2  A    between atoms: C_7  and  C_8
REMARK    3  A    between atoms: C_8  and  N_9
REMARK    4  A    between atoms: C_13  and  C_14
REMARK    5  A    between atoms: N_18  and  C_19
REMARK    6  A    between atoms: C_19  and  C_20
REMARK    7  A    between atoms: C_20  and  O_22
REMARK    8  A    between atoms: C_24  and  C_25
REMARK                            x       y       z     vdW  Elec       q    Type
REMARK                         _______ _______ _______ _____ _____    ______ ____
ROOT
ATOM      1  N   UNL     1      -1.963  12.626  21.453  0.00  0.00    +0.000 NA
ATOM      2  C   UNL     1      -2.510  12.658  22.811  0.00  0.00    +0.000 C 
ATOM      3  C   UNL     1      -4.032  12.498  22.812  0.00  0.00    +0.000 C 
ATOM      4  C   UNL     1      -4.692  13.543  21.924  0.00  0.00    +0.000 C 
ATOM      5  C   UNL     1      -4.096  13.520  20.507  0.00  0.00    +0.000 C 
ATOM      6  C   UNL     1      -2.563  13.632  20.572  0.00  0.00    +0.000 C 
ENDROOT
BRANCH   5   7
ATOM      7  C   UNL     1      -4.720  12.437  19.636  0.00  0.00    +0.000 A 
ATOM      8  C   UNL     1      -6.056  12.057  19.712  0.00  0.00    +0.000 A 
ATOM      9  C   UNL     1      -6.221  11.011  18.805  0.00  0.00    +0.000 A 
ATOM     10  N   UNL     1      -5.094  10.728  18.166  0.00  0.00    +0.000 NA
ATOM     11  N   UNL     1      -4.181  11.614  18.655  0.00  0.00    +0.000 N 
BRANCH  11  12
ATOM     12  C   UNL     1      -2.831  11.417  18.155  0.00  0.00    +0.000 C 
BRANCH  12  13
ATOM     13  C   UNL     1      -2.794  11.012  16.710  0.00  0.00    +0.000 C 
ATOM     14  O   UNL     1      -2.154  10.120  16.179  0.00  0.00    +0.000 OA
BRANCH  13  15
ATOM     15  O   UNL     1      -3.661  11.742  15.962  0.00  0.00    +0.000 OA
ATOM     16  H   UNL     1      -3.109  12.456  15.579  0.00  0.00    +0.000 HD
ENDBRANCH  13  15
ENDBRANCH  12  13
ENDBRANCH  11  12
ENDBRANCH   5   7
BRANCH   1  17
ATOM     17  C   UNL     1      -0.492  12.619  21.392  0.00  0.00    +0.000 C 
BRANCH  17  24
ATOM     18  C   UNL     1       2.587   6.033  19.489  0.00  0.00    +0.000 C 
ATOM     19  C   UNL     1       2.047   7.434  19.485  0.00  0.00    +0.000 A 
ATOM     20  C   UNL     1       2.119   8.225  18.331  0.00  0.00    +0.000 A 
ATOM     21  C   UNL     1       1.654   9.545  18.318  0.00  0.00    +0.000 A 
ATOM     22  C   UNL     1       1.114  10.024  19.507  0.00  0.00    +0.000 A 
ATOM     23  O   UNL     1       0.625  11.282  19.701  0.00  0.00    +0.000 OA
ATOM     24  C   UNL     1       0.162  11.341  20.983  0.00  0.00    +0.000 A 
ATOM     25  C   UNL     1       0.347  10.124  21.623  0.00  0.00    +0.000 A 
ATOM     26  C   UNL     1      -0.056   9.758  23.004  0.00  0.00    +0.000 C 
ATOM     27  C   UNL     1       0.992   9.277  20.668  0.00  0.00    +0.000 A 
ATOM     28  C   UNL     1       1.468   7.951  20.661  0.00  0.00    +0.000 A 
ENDBRANCH  17  24
ENDBRANCH   1  17
TORSDOF 6
ENDMDL
MODEL 9
REMARK VINA RESULT:      -7.2      2.608      3.665
REMARK  Name = 
REMARK  8 active torsions:
REMARK  status: ('A' for Active; 'I' for Inactive)
REMARK    1  A    between atoms: C_1  and  C_2
REMARK    2  A    between atoms: C_7  and  C_8
REMARK    3  A    between atoms: C_8  and  N_9
REMARK    4  A    between atoms: C_13  and  C_14
REMARK    5  A    between atoms: N_18  and  C_19
REMARK    6  A    between atoms: C_19  and  C_20
REMARK    7  A    between atoms: C_20  and  O_22
REMARK    8  A    between atoms: C_24  and  C_25
REMARK                            x       y       z     vdW  Elec       q    Type
REMARK                         _______ _______ _______ _____ _____    ______ ____
ROOT
ATOM      1  N   UNL     1       2.304   5.932  19.499  0.00  0.00    +0.000 NA
ATOM      2  C   UNL     1       1.541   5.597  20.704  0.00  0.00    +0.000 C 
ATOM      3  C   UNL     1       1.320   4.087  20.832  0.00  0.00    +0.000 C 
ATOM      4  C   UNL     1       0.659   3.524  19.582  0.00  0.00    +0.000 C 
ATOM      5  C   UNL     1       1.452   3.900  18.320  0.00  0.00    +0.000 C 
ATOM      6  C   UNL     1       1.688   5.419  18.272  0.00  0.00    +0.000 C 
ENDROOT
BRANCH   5   7
ATOM      7  C   UNL     1       2.630   2.963  18.077  0.00  0.00    +0.000 A 
ATOM      8  C   UNL     1       2.663   1.638  18.500  0.00  0.00    +0.000 A 
ATOM      9  C   UNL     1       3.917   1.143  18.142  0.00  0.00    +0.000 A 
ATOM     10  N   UNL     1       4.650   2.055  17.519  0.00  0.00    +0.000 NA
ATOM     11  N   UNL     1       3.856   3.161  17.457  0.00  0.00    +0.000 N 
BRANCH  11  12
ATOM     12  C   UNL     1       4.506   4.330  16.889  0.00  0.00    +0.000 C 
BRANCH  12  13
ATOM     13  C   UNL     1       6.003   4.276  16.988  0.00  0.00    +0.000 C 
ATOM     14  O   UNL     1       6.835   4.414  16.107  0.00  0.00    +0.000 OA
BRANCH  13  15
ATOM     15  O   UNL     1       6.416   4.108  18.270  0.00  0.00    +0.000 OA
ATOM     16  H   UNL     1       7.083   3.392  18.217  0.00  0.00    +0.000 HD
ENDBRANCH  13  15
ENDBRANCH  12  13
ENDBRANCH  11  12
ENDBRANCH   5   7
BRANCH   1  17
ATOM     17  C   UNL     1       2.683   7.351  19.398  0.00  0.00    +0.000 C 
BRANCH  17  24
ATOM     18  C   UNL     1      -2.172  12.325  22.255  0.00  0.00    +0.000 C 
ATOM     19  C   UNL     1      -1.193  11.203  22.065  0.00  0.00    +0.000 A 
ATOM     20  C   UNL     1      -0.766  10.431  23.154  0.00  0.00    +0.000 A 
ATOM     21  C   UNL     1       0.174   9.405  23.001  0.00  0.00    +0.000 A 
ATOM     22  C   UNL     1       0.654   9.191  21.714  0.00  0.00    +0.000 A 
ATOM     23  O   UNL     1       1.582   8.255  21.364  0.00  0.00    +0.000 OA
ATOM     24  C   UNL     1       1.756   8.345  20.014  0.00  0.00    +0.000 A 
ATOM     25  C   UNL     1       0.942   9.336  19.484  0.00  0.00    +0.000 A 
ATOM     26  C   UNL     1       0.798   9.722  18.057  0.00  0.00    +0.000 C 
ATOM     27  C   UNL     1       0.246   9.904  20.597  0.00  0.00    +0.000 A 
ATOM     28  C   UNL     1      -0.699  10.933  20.772  0.00  0.00    +0.000 A 
ENDBRANCH  17  24
ENDBRANCH   1  17
TORSDOF 6
ENDMDL
