MODEL 1
REMARK VINA RESULT:      -6.9      0.000      0.000
REMARK  Name = 
REMARK  7 active torsions:
REMARK  status: ('A' for Active; 'I' for Inactive)
REMARK    1  A    between atoms: C_2  and  SE_3
REMARK    2  A    between atoms: SE_3  and  C_4
REMARK    3  A    between atoms: C_7  and  N_8
REMARK    4  A    between atoms: N_9  and  C_10
REMARK    5  A    between atoms: C_13  and  N_14
REMARK    6  A    between atoms: C_15  and  C_16
REMARK    7  A    between atoms: C_16  and  O_18
REMARK                            x       y       z     vdW  Elec       q    Type
REMARK                         _______ _______ _______ _____ _____    ______ ____
ROOT
ATOM      1  C   UNL     1       9.362  10.621  18.642  0.00  0.00    +0.000 A 
ATOM      2  C   UNL     1       9.626  10.821  19.991  0.00  0.00    +0.000 A 
ATOM      3  C   UNL     1      10.468  11.847  20.396  0.00  0.00    +0.000 A 
ATOM      4  C   UNL     1      11.073  12.710  19.466  0.00  0.00    +0.000 A 
ATOM      5  C   UNL     1      10.813  12.532  18.063  0.00  0.00    +0.000 A 
ATOM      6  C   UNL     1       9.951  11.469  17.689  0.00  0.00    +0.000 A 
ENDROOT
BRANCH   4   7
ATOM      7  N   UNL     1      11.921  13.724  20.003  0.00  0.00    +0.000 N 
ATOM      8  H   UNL     1      12.944  13.605  19.977  0.00  0.00    +0.000 HD
ATOM      9  H   UNL     1      11.594  14.600  20.416  0.00  0.00    +0.000 HD
ENDBRANCH   4   7
BRANCH   1  11
ATOM     10  N   UNL     1       8.685   8.381  18.622  0.00  0.00    +0.000 NA
ATOM     11  N   UNL     1       8.488   9.564  18.273  0.00  0.00    +0.000 NA
BRANCH  10  15
ATOM     12  C   UNL     1       6.078   5.293  17.375  0.00  0.00    +0.000 A 
ATOM     13  C   UNL     1       7.022   5.041  18.376  0.00  0.00    +0.000 A 
ATOM     14  C   UNL     1       7.890   6.051  18.794  0.00  0.00    +0.000 A 
ATOM     15  C   UNL     1       7.824   7.330  18.208  0.00  0.00    +0.000 A 
ATOM     16  C   UNL     1       6.881   7.576  17.202  0.00  0.00    +0.000 A 
ATOM     17  C   UNL     1       6.011   6.561  16.787  0.00  0.00    +0.000 A 
BRANCH  12  18
ATOM     18 SE   UNL     1       4.884   3.899  16.797  0.00  0.00    +0.000 Se
BRANCH  18  20
ATOM     19  N   UNL     1       3.889   3.421  19.643  0.00  0.00    +0.000 NA
ATOM     20  C   UNL     1       4.264   3.598  18.562  0.00  0.00    +0.000 C 
ENDBRANCH  18  20
ENDBRANCH  12  18
ENDBRANCH  10  15
ENDBRANCH   1  11
BRANCH   5  21
ATOM     21  C   UNL     1      11.398  13.410  16.977  0.00  0.00    +0.000 C 
ATOM     22  O   UNL     1      11.166  14.604  16.949  0.00  0.00    +0.000 OA
BRANCH  21  23
ATOM     23  O   UNL     1      12.185  12.928  15.985  0.00  0.00    +0.000 OA
ATOM     24  H   UNL     1      11.892  12.429  15.215  0.00  0.00    +0.000 HD
ENDBRANCH  21  23
ENDBRANCH   5  21
TORSDOF 7
ENDMDL
MODEL 2
REMARK VINA RESULT:      -6.9      0.743      1.292
REMARK  Name = 
REMARK  7 active torsions:
REMARK  status: ('A' for Active; 'I' for Inactive)
REMARK    1  A    between atoms: C_2  and  SE_3
REMARK    2  A    between atoms: SE_3  and  C_4
REMARK    3  A    between atoms: C_7  and  N_8
REMARK    4  A    between atoms: N_9  and  C_10
REMARK    5  A    between atoms: C_13  and  N_14
REMARK    6  A    between atoms: C_15  and  C_16
REMARK    7  A    between atoms: C_16  and  O_18
REMARK                            x       y       z     vdW  Elec       q    Type
REMARK                         _______ _______ _______ _____ _____    ______ ____
ROOT
ATOM      1  C   UNL     1       9.400  10.673  18.575  0.00  0.00    +0.000 A 
ATOM      2  C   UNL     1       9.731  10.822  19.916  0.00  0.00    +0.000 A 
ATOM      3  C   UNL     1      10.586  11.838  20.319  0.00  0.00    +0.000 A 
ATOM      4  C   UNL     1      11.138  12.743  19.396  0.00  0.00    +0.000 A 
ATOM      5  C   UNL     1      10.807  12.619  18.002  0.00  0.00    +0.000 A 
ATOM      6  C   UNL     1       9.935  11.564  17.628  0.00  0.00    +0.000 A 
ENDROOT
BRANCH   4   7
ATOM      7  N   UNL     1      12.005  13.741  19.930  0.00  0.00    +0.000 N 
ATOM      8  H   UNL     1      12.663  13.499  20.685  0.00  0.00    +0.000 HD
ATOM      9  H   UNL     1      12.044  14.712  19.611  0.00  0.00    +0.000 HD
ENDBRANCH   4   7
BRANCH   1  11
ATOM     10  N   UNL     1       8.651   8.458  18.632  0.00  0.00    +0.000 NA
ATOM     11  N   UNL     1       8.516   9.625  18.208  0.00  0.00    +0.000 NA
BRANCH  10  15
ATOM     12  C   UNL     1       6.107   5.303  17.422  0.00  0.00    +0.000 A 
ATOM     13  C   UNL     1       5.988   6.558  16.818  0.00  0.00    +0.000 A 
ATOM     14  C   UNL     1       6.820   7.609  17.211  0.00  0.00    +0.000 A 
ATOM     15  C   UNL     1       7.782   7.413  18.221  0.00  0.00    +0.000 A 
ATOM     16  C   UNL     1       7.893   6.155  18.826  0.00  0.00    +0.000 A 
ATOM     17  C   UNL     1       7.058   5.103  18.429  0.00  0.00    +0.000 A 
BRANCH  12  18
ATOM     18 SE   UNL     1       4.957   3.857  16.883  0.00  0.00    +0.000 Se
BRANCH  18  20
ATOM     19  N   UNL     1       2.475   5.273  17.957  0.00  0.00    +0.000 NA
ATOM     20  C   UNL     1       3.417   4.734  17.554  0.00  0.00    +0.000 C 
ENDBRANCH  18  20
ENDBRANCH  12  18
ENDBRANCH  10  15
ENDBRANCH   1  11
BRANCH   5  21
ATOM     21  C   UNL     1      11.330  13.545  16.923  0.00  0.00    +0.000 C 
ATOM     22  O   UNL     1      11.168  14.748  17.004  0.00  0.00    +0.000 OA
BRANCH  21  23
ATOM     23  O   UNL     1      11.984  13.099  15.823  0.00  0.00    +0.000 OA
ATOM     24  H   UNL     1      12.314  13.640  15.098  0.00  0.00    +0.000 HD
ENDBRANCH  21  23
ENDBRANCH   5  21
TORSDOF 7
ENDMDL
MODEL 3
REMARK VINA RESULT:      -6.8      8.651     11.228
REMARK  Name = 
REMARK  7 active torsions:
REMARK  status: ('A' for Active; 'I' for Inactive)
REMARK    1  A    between atoms: C_2  and  SE_3
REMARK    2  A    between atoms: SE_3  and  C_4
REMARK    3  A    between atoms: C_7  and  N_8
REMARK    4  A    between atoms: N_9  and  C_10
REMARK    5  A    between atoms: C_13  and  N_14
REMARK    6  A    between atoms: C_15  and  C_16
REMARK    7  A    between atoms: C_16  and  O_18
REMARK                            x       y       z     vdW  Elec       q    Type
REMARK                         _______ _______ _______ _____ _____    ______ ____
ROOT
ATOM      1  C   UNL     1       2.184   6.779  19.769  0.00  0.00    +0.000 A 
ATOM      2  C   UNL     1       2.949   6.760  18.610  0.00  0.00    +0.000 A 
ATOM      3  C   UNL     1       3.480   5.567  18.141  0.00  0.00    +0.000 A 
ATOM      4  C   UNL     1       3.262   4.351  18.812  0.00  0.00    +0.000 A 
ATOM      5  C   UNL     1       2.467   4.339  20.011  0.00  0.00    +0.000 A 
ATOM      6  C   UNL     1       1.946   5.579  20.461  0.00  0.00    +0.000 A 
ENDROOT
BRANCH   4   7
ATOM      7  N   UNL     1       3.862   3.193  18.235  0.00  0.00    +0.000 N 
ATOM      8  H   UNL     1       4.197   2.431  18.842  0.00  0.00    +0.000 HD
ATOM      9  H   UNL     1       3.983   3.036  17.231  0.00  0.00    +0.000 HD
ENDBRANCH   4   7
BRANCH   1  11
ATOM     10  N   UNL     1       0.947   8.121  21.233  0.00  0.00    +0.000 NA
ATOM     11  N   UNL     1       1.654   8.021  20.209  0.00  0.00    +0.000 NA
BRANCH  10  15
ATOM     12  C   UNL     1      -0.759  11.794  22.453  0.00  0.00    +0.000 A 
ATOM     13  C   UNL     1       0.037  11.748  21.304  0.00  0.00    +0.000 A 
ATOM     14  C   UNL     1       0.609  10.542  20.893  0.00  0.00    +0.000 A 
ATOM     15  C   UNL     1       0.390   9.364  21.634  0.00  0.00    +0.000 A 
ATOM     16  C   UNL     1      -0.404   9.417  22.787  0.00  0.00    +0.000 A 
ATOM     17  C   UNL     1      -0.977  10.628  23.195  0.00  0.00    +0.000 A 
BRANCH  12  18
ATOM     18 SE   UNL     1      -1.544  13.457  23.021  0.00  0.00    +0.000 Se
BRANCH  18  20
ATOM     19  N   UNL     1      -4.076  12.058  23.997  0.00  0.00    +0.000 NA
ATOM     20  C   UNL     1      -3.116  12.592  23.631  0.00  0.00    +0.000 C 
ENDBRANCH  18  20
ENDBRANCH  12  18
ENDBRANCH  10  15
ENDBRANCH   1  11
BRANCH   5  21
ATOM     21  C   UNL     1       2.156   3.088  20.805  0.00  0.00    +0.000 C 
ATOM     22  O   UNL     1       1.779   2.074  20.248  0.00  0.00    +0.000 OA
BRANCH  21  23
ATOM     23  O   UNL     1       2.262   3.027  22.155  0.00  0.00    +0.000 OA
ATOM     24  H   UNL     1       1.873   2.358  22.728  0.00  0.00    +0.000 HD
ENDBRANCH  21  23
ENDBRANCH   5  21
TORSDOF 7
ENDMDL
MODEL 4
REMARK VINA RESULT:      -6.7      1.569      1.980
REMARK  Name = 
REMARK  7 active torsions:
REMARK  status: ('A' for Active; 'I' for Inactive)
REMARK    1  A    between atoms: C_2  and  SE_3
REMARK    2  A    between atoms: SE_3  and  C_4
REMARK    3  A    between atoms: C_7  and  N_8
REMARK    4  A    between atoms: N_9  and  C_10
REMARK    5  A    between atoms: C_13  and  N_14
REMARK    6  A    between atoms: C_15  and  C_16
REMARK    7  A    between atoms: C_16  and  O_18
REMARK                            x       y       z     vdW  Elec       q    Type
REMARK                         _______ _______ _______ _____ _____    ______ ____
ROOT
ATOM      1  C   UNL     1       9.360  10.750  18.698  0.00  0.00    +0.000 A 
ATOM      2  C   UNL     1       9.544  10.960  20.059  0.00  0.00    +0.000 A 
ATOM      3  C   UNL     1      10.352  11.996  20.506  0.00  0.00    +0.000 A 
ATOM      4  C   UNL     1      11.001  12.860  19.607  0.00  0.00    +0.000 A 
ATOM      5  C   UNL     1      10.824  12.672  18.193  0.00  0.00    +0.000 A 
ATOM      6  C   UNL     1       9.995  11.599  17.776  0.00  0.00    +0.000 A 
ENDROOT
BRANCH   4   7
ATOM      7  N   UNL     1      11.807  13.885  20.186  0.00  0.00    +0.000 N 
ATOM      8  H   UNL     1      11.600  14.875  19.987  0.00  0.00    +0.000 HD
ATOM      9  H   UNL     1      12.595  13.722  20.817  0.00  0.00    +0.000 HD
ENDBRANCH   4   7
BRANCH   1  11
ATOM     10  N   UNL     1       8.696   8.507  18.666  0.00  0.00    +0.000 NA
ATOM     11  N   UNL     1       8.519   9.683  18.286  0.00  0.00    +0.000 NA
BRANCH  10  15
ATOM     12  C   UNL     1       6.281   5.304  17.323  0.00  0.00    +0.000 A 
ATOM     13  C   UNL     1       6.166   6.560  16.717  0.00  0.00    +0.000 A 
ATOM     14  C   UNL     1       6.956   7.626  17.154  0.00  0.00    +0.000 A 
ATOM     15  C   UNL     1       7.871   7.445  18.209  0.00  0.00    +0.000 A 
ATOM     16  C   UNL     1       7.978   6.187  18.816  0.00  0.00    +0.000 A 
ATOM     17  C   UNL     1       7.186   5.120  18.375  0.00  0.00    +0.000 A 
BRANCH  12  18
ATOM     18 SE   UNL     1       5.190   3.837  16.723  0.00  0.00    +0.000 Se
BRANCH  18  20
ATOM     19  N   UNL     1       6.385   3.954  13.916  0.00  0.00    +0.000 NA
ATOM     20  C   UNL     1       5.930   3.905  14.979  0.00  0.00    +0.000 C 
ENDBRANCH  18  20
ENDBRANCH  12  18
ENDBRANCH  10  15
ENDBRANCH   1  11
BRANCH   5  21
ATOM     21  C   UNL     1      11.462  13.550  17.137  0.00  0.00    +0.000 C 
ATOM     22  O   UNL     1      12.333  14.346  17.432  0.00  0.00    +0.000 OA
BRANCH  21  23
ATOM     23  O   UNL     1      11.100  13.513  15.831  0.00  0.00    +0.000 OA
ATOM     24  H   UNL     1      10.205  13.587  15.485  0.00  0.00    +0.000 HD
ENDBRANCH  21  23
ENDBRANCH   5  21
TORSDOF 7
ENDMDL
MODEL 5
REMARK VINA RESULT:      -6.5      7.565     10.188
REMARK  Name = 
REMARK  7 active torsions:
REMARK  status: ('A' for Active; 'I' for Inactive)
REMARK    1  A    between atoms: C_2  and  SE_3
REMARK    2  A    between atoms: SE_3  and  C_4
REMARK    3  A    between atoms: C_7  and  N_8
REMARK    4  A    between atoms: N_9  and  C_10
REMARK    5  A    between atoms: C_13  and  N_14
REMARK    6  A    between atoms: C_15  and  C_16
REMARK    7  A    between atoms: C_16  and  O_18
REMARK                            x       y       z     vdW  Elec       q    Type
REMARK                         _______ _______ _______ _____ _____    ______ ____
ROOT
ATOM      1  C   UNL     1       2.590   6.238  19.893  0.00  0.00    +0.000 A 
ATOM      2  C   UNL     1       2.105   5.137  20.587  0.00  0.00    +0.000 A 
ATOM      3  C   UNL     1       2.698   3.892  20.428  0.00  0.00    +0.000 A 
ATOM      4  C   UNL     1       3.796   3.706  19.571  0.00  0.00    +0.000 A 
ATOM      5  C   UNL     1       4.324   4.829  18.845  0.00  0.00    +0.000 A 
ATOM      6  C   UNL     1       3.688   6.084  19.031  0.00  0.00    +0.000 A 
ENDROOT
BRANCH   4   7
ATOM      7  N   UNL     1       4.316   2.380  19.488  0.00  0.00    +0.000 N 
ATOM      8  H   UNL     1       4.220   1.740  20.290  0.00  0.00    +0.000 HD
ATOM      9  H   UNL     1       4.783   1.985  18.668  0.00  0.00    +0.000 HD
ENDBRANCH   4   7
BRANCH   1  11
ATOM     10  N   UNL     1       1.228   7.726  21.078  0.00  0.00    +0.000 NA
ATOM     11  N   UNL     1       1.958   7.494  20.092  0.00  0.00    +0.000 NA
BRANCH  10  15
ATOM     12  C   UNL     1      -0.765  11.420  21.603  0.00  0.00    +0.000 A 
ATOM     13  C   UNL     1      -0.279  11.069  20.340  0.00  0.00    +0.000 A 
ATOM     14  C   UNL     1       0.383   9.853  20.154  0.00  0.00    +0.000 A 
ATOM     15  C   UNL     1       0.570   8.974  21.239  0.00  0.00    +0.000 A 
ATOM     16  C   UNL     1       0.086   9.334  22.503  0.00  0.00    +0.000 A 
ATOM     17  C   UNL     1      -0.579  10.552  22.685  0.00  0.00    +0.000 A 
BRANCH  12  18
ATOM     18 SE   UNL     1      -1.675  13.096  21.858  0.00  0.00    +0.000 Se
BRANCH  18  20
ATOM     19  N   UNL     1      -3.580  11.876  23.909  0.00  0.00    +0.000 NA
ATOM     20  C   UNL     1      -2.861  12.343  23.131  0.00  0.00    +0.000 C 
ENDBRANCH  18  20
ENDBRANCH  12  18
ENDBRANCH  10  15
ENDBRANCH   1  11
BRANCH   5  21
ATOM     21  C   UNL     1       5.511   4.748  17.908  0.00  0.00    +0.000 C 
ATOM     22  O   UNL     1       5.509   5.344  16.847  0.00  0.00    +0.000 OA
BRANCH  21  23
ATOM     23  O   UNL     1       6.616   4.013  18.181  0.00  0.00    +0.000 OA
ATOM     24  H   UNL     1       6.645   3.192  18.684  0.00  0.00    +0.000 HD
ENDBRANCH  21  23
ENDBRANCH   5  21
TORSDOF 7
ENDMDL
MODEL 6
REMARK VINA RESULT:      -6.5      7.724     10.028
REMARK  Name = 
REMARK  7 active torsions:
REMARK  status: ('A' for Active; 'I' for Inactive)
REMARK    1  A    between atoms: C_2  and  SE_3
REMARK    2  A    between atoms: SE_3  and  C_4
REMARK    3  A    between atoms: C_7  and  N_8
REMARK    4  A    between atoms: N_9  and  C_10
REMARK    5  A    between atoms: C_13  and  N_14
REMARK    6  A    between atoms: C_15  and  C_16
REMARK    7  A    between atoms: C_16  and  O_18
REMARK                            x       y       z     vdW  Elec       q    Type
REMARK                         _______ _______ _______ _____ _____    ______ ____
ROOT
ATOM      1  C   UNL     1       3.469   6.456  17.859  0.00  0.00    +0.000 A 
ATOM      2  C   UNL     1       4.607   6.768  17.127  0.00  0.00    +0.000 A 
ATOM      3  C   UNL     1       5.353   5.762  16.528  0.00  0.00    +0.000 A 
ATOM      4  C   UNL     1       4.986   4.410  16.639  0.00  0.00    +0.000 A 
ATOM      5  C   UNL     1       3.808   4.057  17.385  0.00  0.00    +0.000 A 
ATOM      6  C   UNL     1       3.075   5.113  17.986  0.00  0.00    +0.000 A 
ENDROOT
BRANCH   4   7
ATOM      7  N   UNL     1       5.833   3.468  15.984  0.00  0.00    +0.000 N 
ATOM      8  H   UNL     1       5.959   3.515  14.962  0.00  0.00    +0.000 HD
ATOM      9  H   UNL     1       6.359   2.729  16.454  0.00  0.00    +0.000 HD
ENDBRANCH   4   7
BRANCH   1  11
ATOM     10  N   UNL     1       2.212   7.423  19.579  0.00  0.00    +0.000 NA
ATOM     11  N   UNL     1       2.732   7.517  18.448  0.00  0.00    +0.000 NA
BRANCH  10  15
ATOM     12  C   UNL     1      -0.101  10.531  21.276  0.00  0.00    +0.000 A 
ATOM     13  C   UNL     1       0.149  10.527  19.900  0.00  0.00    +0.000 A 
ATOM     14  C   UNL     1       0.915   9.507  19.328  0.00  0.00    +0.000 A 
ATOM     15  C   UNL     1       1.441   8.479  20.134  0.00  0.00    +0.000 A 
ATOM     16  C   UNL     1       1.192   8.492  21.512  0.00  0.00    +0.000 A 
ATOM     17  C   UNL     1       0.423   9.514  22.081  0.00  0.00    +0.000 A 
BRANCH  12  18
ATOM     18 SE   UNL     1      -1.153  11.938  22.063  0.00  0.00    +0.000 Se
BRANCH  18  20
ATOM     19  N   UNL     1       1.071  13.988  21.643  0.00  0.00    +0.000 NA
ATOM     20  C   UNL     1       0.228  13.211  21.808  0.00  0.00    +0.000 C 
ENDBRANCH  18  20
ENDBRANCH  12  18
ENDBRANCH  10  15
ENDBRANCH   1  11
BRANCH   5  21
ATOM     21  C   UNL     1       3.310   2.637  17.557  0.00  0.00    +0.000 C 
ATOM     22  O   UNL     1       2.125   2.377  17.462  0.00  0.00    +0.000 OA
BRANCH  21  23
ATOM     23  O   UNL     1       4.133   1.597  17.836  0.00  0.00    +0.000 OA
ATOM     24  H   UNL     1       4.208   1.140  18.679  0.00  0.00    +0.000 HD
ENDBRANCH  21  23
ENDBRANCH   5  21
TORSDOF 7
ENDMDL
MODEL 7
REMARK VINA RESULT:      -6.5      7.713     10.323
REMARK  Name = 
REMARK  7 active torsions:
REMARK  status: ('A' for Active; 'I' for Inactive)
REMARK    1  A    between atoms: C_2  and  SE_3
REMARK    2  A    between atoms: SE_3  and  C_4
REMARK    3  A    between atoms: C_7  and  N_8
REMARK    4  A    between atoms: N_9  and  C_10
REMARK    5  A    between atoms: C_13  and  N_14
REMARK    6  A    between atoms: C_15  and  C_16
REMARK    7  A    between atoms: C_16  and  O_18
REMARK                            x       y       z     vdW  Elec       q    Type
REMARK                         _______ _______ _______ _____ _____    ______ ____
ROOT
ATOM      1  C   UNL     1       2.168   5.286  20.265  0.00  0.00    +0.000 A 
ATOM      2  C   UNL     1       1.538   4.049  20.323  0.00  0.00    +0.000 A 
ATOM      3  C   UNL     1       2.194   2.907  19.885  0.00  0.00    +0.000 A 
ATOM      4  C   UNL     1       3.503   2.962  19.375  0.00  0.00    +0.000 A 
ATOM      5  C   UNL     1       4.182   4.228  19.309  0.00  0.00    +0.000 A 
ATOM      6  C   UNL     1       3.477   5.372  19.762  0.00  0.00    +0.000 A 
ENDROOT
BRANCH   4   7
ATOM      7  N   UNL     1       4.069   1.723  18.952  0.00  0.00    +0.000 N 
ATOM      8  H   UNL     1       4.973   1.714  18.457  0.00  0.00    +0.000 HD
ATOM      9  H   UNL     1       3.651   0.804  19.113  0.00  0.00    +0.000 HD
ENDBRANCH   4   7
BRANCH   1  11
ATOM     10  N   UNL     1       1.759   7.587  20.379  0.00  0.00    +0.000 NA
ATOM     11  N   UNL     1       1.463   6.426  20.732  0.00  0.00    +0.000 NA
BRANCH  10  15
ATOM     12  C   UNL     1      -0.321  10.921  21.942  0.00  0.00    +0.000 A 
ATOM     13  C   UNL     1       0.069  10.916  20.598  0.00  0.00    +0.000 A 
ATOM     14  C   UNL     1       0.759   9.822  20.072  0.00  0.00    +0.000 A 
ATOM     15  C   UNL     1       1.070   8.718  20.890  0.00  0.00    +0.000 A 
ATOM     16  C   UNL     1       0.682   8.732  22.236  0.00  0.00    +0.000 A 
ATOM     17  C   UNL     1      -0.011   9.830  22.760  0.00  0.00    +0.000 A 
BRANCH  12  18
ATOM     18 SE   UNL     1      -1.269  12.431  22.667  0.00  0.00    +0.000 Se
BRANCH  18  20
ATOM     19  N   UNL     1      -3.053  12.656  20.200  0.00  0.00    +0.000 NA
ATOM     20  C   UNL     1      -2.376  12.566  21.134  0.00  0.00    +0.000 C 
ENDBRANCH  18  20
ENDBRANCH  12  18
ENDBRANCH  10  15
ENDBRANCH   1  11
BRANCH   5  21
ATOM     21  C   UNL     1       5.595   4.402  18.793  0.00  0.00    +0.000 C 
ATOM     22  O   UNL     1       6.416   5.036  19.428  0.00  0.00    +0.000 OA
BRANCH  21  23
ATOM     23  O   UNL     1       6.018   3.886  17.613  0.00  0.00    +0.000 OA
ATOM     24  H   UNL     1       6.919   3.899  17.275  0.00  0.00    +0.000 HD
ENDBRANCH  21  23
ENDBRANCH   5  21
TORSDOF 7
ENDMDL
MODEL 8
REMARK VINA RESULT:      -6.5      6.477      8.928
REMARK  Name = 
REMARK  7 active torsions:
REMARK  status: ('A' for Active; 'I' for Inactive)
REMARK    1  A    between atoms: C_2  and  SE_3
REMARK    2  A    between atoms: SE_3  and  C_4
REMARK    3  A    between atoms: C_7  and  N_8
REMARK    4  A    between atoms: N_9  and  C_10
REMARK    5  A    between atoms: C_13  and  N_14
REMARK    6  A    between atoms: C_15  and  C_16
REMARK    7  A    between atoms: C_16  and  O_18
REMARK                            x       y       z     vdW  Elec       q    Type
REMARK                         _______ _______ _______ _____ _____    ______ ____
ROOT
ATOM      1  C   UNL     1       3.720   5.778  18.201  0.00  0.00    +0.000 A 
ATOM      2  C   UNL     1       3.272   4.494  17.918  0.00  0.00    +0.000 A 
ATOM      3  C   UNL     1       4.009   3.662  17.087  0.00  0.00    +0.000 A 
ATOM      4  C   UNL     1       5.221   4.083  16.512  0.00  0.00    +0.000 A 
ATOM      5  C   UNL     1       5.714   5.405  16.794  0.00  0.00    +0.000 A 
ATOM      6  C   UNL     1       4.930   6.227  17.643  0.00  0.00    +0.000 A 
ENDROOT
BRANCH   4   7
ATOM      7  N   UNL     1       5.885   3.140  15.673  0.00  0.00    +0.000 N 
ATOM      8  H   UNL     1       5.374   2.317  15.322  0.00  0.00    +0.000 HD
ATOM      9  H   UNL     1       6.857   3.215  15.365  0.00  0.00    +0.000 HD
ENDBRANCH   4   7
BRANCH   1  11
ATOM     10  N   UNL     1       2.371   7.631  18.667  0.00  0.00    +0.000 NA
ATOM     11  N   UNL     1       2.939   6.592  19.063  0.00  0.00    +0.000 NA
BRANCH  10  15
ATOM     12  C   UNL     1       0.179  10.138  21.274  0.00  0.00    +0.000 A 
ATOM     13  C   UNL     1       0.667   8.913  21.740  0.00  0.00    +0.000 A 
ATOM     14  C   UNL     1       1.390   8.075  20.887  0.00  0.00    +0.000 A 
ATOM     15  C   UNL     1       1.629   8.456  19.553  0.00  0.00    +0.000 A 
ATOM     16  C   UNL     1       1.132   9.681  19.090  0.00  0.00    +0.000 A 
ATOM     17  C   UNL     1       0.409  10.520  19.948  0.00  0.00    +0.000 A 
BRANCH  12  18
ATOM     18 SE   UNL     1      -0.820  11.291  22.448  0.00  0.00    +0.000 Se
BRANCH  18  20
ATOM     19  N   UNL     1      -2.293  12.600  20.115  0.00  0.00    +0.000 NA
ATOM     20  C   UNL     1      -1.731  12.101  20.997  0.00  0.00    +0.000 C 
ENDBRANCH  18  20
ENDBRANCH  12  18
ENDBRANCH  10  15
ENDBRANCH   1  11
BRANCH   5  21
ATOM     21  C   UNL     1       7.011   5.958  16.243  0.00  0.00    +0.000 C 
ATOM     22  O   UNL     1       7.512   5.488  15.239  0.00  0.00    +0.000 OA
BRANCH  21  23
ATOM     23  O   UNL     1       7.685   6.977  16.829  0.00  0.00    +0.000 OA
ATOM     24  H   UNL     1       8.405   6.895  17.463  0.00  0.00    +0.000 HD
ENDBRANCH  21  23
ENDBRANCH   5  21
TORSDOF 7
ENDMDL
MODEL 9
REMARK VINA RESULT:      -6.5      7.689     10.254
REMARK  Name = 
REMARK  7 active torsions:
REMARK  status: ('A' for Active; 'I' for Inactive)
REMARK    1  A    between atoms: C_2  and  SE_3
REMARK    2  A    between atoms: SE_3  and  C_4
REMARK    3  A    between atoms: C_7  and  N_8
REMARK    4  A    between atoms: N_9  and  C_10
REMARK    5  A    between atoms: C_13  and  N_14
REMARK    6  A    between atoms: C_15  and  C_16
REMARK    7  A    between atoms: C_16  and  O_18
REMARK                            x       y       z     vdW  Elec       q    Type
REMARK                         _______ _______ _______ _____ _____    ______ ____
ROOT
ATOM      1  C   UNL     1       2.178   5.303  20.252  0.00  0.00    +0.000 A 
ATOM      2  C   UNL     1       1.550   4.065  20.301  0.00  0.00    +0.000 A 
ATOM      3  C   UNL     1       2.209   2.926  19.860  0.00  0.00    +0.000 A 
ATOM      4  C   UNL     1       3.520   2.985  19.357  0.00  0.00    +0.000 A 
ATOM      5  C   UNL     1       4.199   4.251  19.301  0.00  0.00    +0.000 A 
ATOM      6  C   UNL     1       3.490   5.393  19.756  0.00  0.00    +0.000 A 
ENDROOT
BRANCH   4   7
ATOM      7  N   UNL     1       4.091   1.749  18.932  0.00  0.00    +0.000 N 
ATOM      8  H   UNL     1       4.713   1.225  19.565  0.00  0.00    +0.000 HD
ATOM      9  H   UNL     1       3.922   1.309  18.024  0.00  0.00    +0.000 HD
ENDBRANCH   4   7
BRANCH   1  11
ATOM     10  N   UNL     1       1.770   7.603  20.379  0.00  0.00    +0.000 NA
ATOM     11  N   UNL     1       1.469   6.440  20.721  0.00  0.00    +0.000 NA
BRANCH  10  15
ATOM     12  C   UNL     1      -0.267  10.999  21.865  0.00  0.00    +0.000 A 
ATOM     13  C   UNL     1       0.001   9.924  22.718  0.00  0.00    +0.000 A 
ATOM     14  C   UNL     1       0.669   8.795  22.239  0.00  0.00    +0.000 A 
ATOM     15  C   UNL     1       1.076   8.731  20.892  0.00  0.00    +0.000 A 
ATOM     16  C   UNL     1       0.801   9.808  20.041  0.00  0.00    +0.000 A 
ATOM     17  C   UNL     1       0.132  10.939  20.525  0.00  0.00    +0.000 A 
BRANCH  12  18
ATOM     18 SE   UNL     1      -1.192  12.552  22.526  0.00  0.00    +0.000 Se
BRANCH  18  20
ATOM     19  N   UNL     1      -3.099  12.566  20.141  0.00  0.00    +0.000 NA
ATOM     20  C   UNL     1      -2.379  12.563  21.048  0.00  0.00    +0.000 C 
ENDBRANCH  18  20
ENDBRANCH  12  18
ENDBRANCH  10  15
ENDBRANCH   1  11
BRANCH   5  21
ATOM     21  C   UNL     1       5.615   4.430  18.794  0.00  0.00    +0.000 C 
ATOM     22  O   UNL     1       6.432   5.060  19.438  0.00  0.00    +0.000 OA
BRANCH  21  23
ATOM     23  O   UNL     1       6.043   3.922  17.613  0.00  0.00    +0.000 OA
ATOM     24  H   UNL     1       6.144   2.989  17.396  0.00  0.00    +0.000 HD
ENDBRANCH  21  23
ENDBRANCH   5  21
TORSDOF 7
ENDMDL
