MODEL 1
REMARK VINA RESULT:      -8.0      0.000      0.000
REMARK  Name = 
REMARK  11 active torsions:
REMARK  status: ('A' for Active; 'I' for Inactive)
REMARK    1  A    between atoms: C_1  and  O_2
REMARK    2  A    between atoms: O_2  and  C_3
REMARK    3  A    between atoms: C_5  and  C_6
REMARK    4  A    between atoms: C_6  and  C_7
REMARK    5  A    between atoms: C_12  and  C_13
REMARK    6  A    between atoms: C_13  and  C_14
REMARK    7  A    between atoms: C_17  and  O_18
REMARK    8  A    between atoms: O_18  and  C_19
REMARK    9  A    between atoms: C_20  and  O_21
REMARK   10  A    between atoms: O_21  and  C_22
REMARK   11  A    between atoms: C_26  and  O_27
REMARK                            x       y       z     vdW  Elec       q    Type
REMARK                         _______ _______ _______ _____ _____    ______ ____
ROOT
ATOM      1  C   UNL     1       2.107   3.928  19.387  0.00  0.00    +0.000 C 
ATOM      2  C   UNL     1       1.559   2.854  20.286  0.00  0.00    +0.000 C 
ATOM      3  O   UNL     1       0.771   3.017  21.203  0.00  0.00    +0.000 OA
ATOM      4  O   UNL     1       2.010   1.634  19.890  0.00  0.00    +0.000 OA
ATOM      5  C   UNL     1       2.545   1.740  18.576  0.00  0.00    +0.000 C 
ATOM      6  C   UNL     1       3.012   3.187  18.397  0.00  0.00    +0.000 C 
ENDROOT
BRANCH   1   7
ATOM      7  C   UNL     1       2.558   5.196  20.121  0.00  0.00    +0.000 C 
BRANCH   7  10
ATOM      8  C   UNL     1       1.600   8.887  19.531  0.00  0.00    +0.000 A 
ATOM      9  C   UNL     1       1.836   7.653  20.163  0.00  0.00    +0.000 A 
ATOM     10  C   UNL     1       2.448   6.575  19.505  0.00  0.00    +0.000 A 
ATOM     11  C   UNL     1       2.802   6.758  18.162  0.00  0.00    +0.000 A 
ATOM     12  C   UNL     1       2.576   7.978  17.515  0.00  0.00    +0.000 A 
ATOM     13  C   UNL     1       1.976   9.039  18.196  0.00  0.00    +0.000 A 
BRANCH   8  15
ATOM     14  C   UNL     1      -0.234   9.428  20.976  0.00  0.00    +0.000 C 
ATOM     15  O   UNL     1       0.987   9.794  20.354  0.00  0.00    +0.000 OA
ENDBRANCH   8  15
BRANCH  13  16
ATOM     16  O   UNL     1       1.756  10.204  17.516  0.00  0.00    +0.000 OA
ATOM     17  H   UNL     1       0.853  10.196  17.158  0.00  0.00    +0.000 HD
ENDBRANCH  13  16
ENDBRANCH   7  10
ENDBRANCH   1   7
BRANCH   6  18
ATOM     18  C   UNL     1       4.539   3.224  18.536  0.00  0.00    +0.000 C 
BRANCH  18  19
ATOM     19  C   UNL     1       5.353   4.384  18.016  0.00  0.00    +0.000 A 
ATOM     20  C   UNL     1       5.963   5.201  18.976  0.00  0.00    +0.000 A 
ATOM     21  C   UNL     1       6.831   6.231  18.613  0.00  0.00    +0.000 A 
ATOM     22  C   UNL     1       7.118   6.482  17.268  0.00  0.00    +0.000 A 
ATOM     23  C   UNL     1       6.480   5.700  16.287  0.00  0.00    +0.000 A 
ATOM     24  C   UNL     1       5.635   4.632  16.669  0.00  0.00    +0.000 A 
BRANCH  22  25
ATOM     25  O   UNL     1       8.014   7.434  16.862  0.00  0.00    +0.000 OA
ATOM     26  C   UNL     1       8.139   8.610  17.653  0.00  0.00    +0.000 C 
ENDBRANCH  22  25
BRANCH  23  27
ATOM     27  O   UNL     1       6.627   5.821  14.926  0.00  0.00    +0.000 OA
ATOM     28  C   UNL     1       6.579   4.605  14.183  0.00  0.00    +0.000 C 
ENDBRANCH  23  27
ENDBRANCH  18  19
ENDBRANCH   6  18
TORSDOF 8
ENDMDL
MODEL 2
REMARK VINA RESULT:      -7.9      0.754      2.097
REMARK  Name = 
REMARK  11 active torsions:
REMARK  status: ('A' for Active; 'I' for Inactive)
REMARK    1  A    between atoms: C_1  and  O_2
REMARK    2  A    between atoms: O_2  and  C_3
REMARK    3  A    between atoms: C_5  and  C_6
REMARK    4  A    between atoms: C_6  and  C_7
REMARK    5  A    between atoms: C_12  and  C_13
REMARK    6  A    between atoms: C_13  and  C_14
REMARK    7  A    between atoms: C_17  and  O_18
REMARK    8  A    between atoms: O_18  and  C_19
REMARK    9  A    between atoms: C_20  and  O_21
REMARK   10  A    between atoms: O_21  and  C_22
REMARK   11  A    between atoms: C_26  and  O_27
REMARK                            x       y       z     vdW  Elec       q    Type
REMARK                         _______ _______ _______ _____ _____    ______ ____
ROOT
ATOM      1  C   UNL     1       2.043   4.136  19.390  0.00  0.00    +0.000 C 
ATOM      2  C   UNL     1       1.593   2.980  20.243  0.00  0.00    +0.000 C 
ATOM      3  O   UNL     1       0.783   3.031  21.152  0.00  0.00    +0.000 OA
ATOM      4  O   UNL     1       2.168   1.826  19.811  0.00  0.00    +0.000 OA
ATOM      5  C   UNL     1       2.705   2.033  18.510  0.00  0.00    +0.000 C 
ATOM      6  C   UNL     1       3.029   3.524  18.390  0.00  0.00    +0.000 C 
ENDROOT
BRANCH   1   7
ATOM      7  C   UNL     1       2.358   5.414  20.176  0.00  0.00    +0.000 C 
BRANCH   7  10
ATOM      8  C   UNL     1       1.490   9.103  19.448  0.00  0.00    +0.000 A 
ATOM      9  C   UNL     1       1.646   7.873  20.113  0.00  0.00    +0.000 A 
ATOM     10  C   UNL     1       2.325   6.788  19.539  0.00  0.00    +0.000 A 
ATOM     11  C   UNL     1       2.833   6.958  18.245  0.00  0.00    +0.000 A 
ATOM     12  C   UNL     1       2.689   8.172  17.566  0.00  0.00    +0.000 A 
ATOM     13  C   UNL     1       2.018   9.242  18.164  0.00  0.00    +0.000 A 
BRANCH   8  15
ATOM     14  C   UNL     1       0.763   9.876  21.597  0.00  0.00    +0.000 C 
ATOM     15  O   UNL     1       0.789  10.018  20.185  0.00  0.00    +0.000 OA
ENDBRANCH   8  15
BRANCH  13  16
ATOM     16  O   UNL     1       1.884  10.401  17.452  0.00  0.00    +0.000 OA
ATOM     17  H   UNL     1       2.044  10.216  16.513  0.00  0.00    +0.000 HD
ENDBRANCH  13  16
ENDBRANCH   7  10
ENDBRANCH   1   7
BRANCH   6  18
ATOM     18  C   UNL     1       4.542   3.706  18.553  0.00  0.00    +0.000 C 
BRANCH  18  19
ATOM     19  C   UNL     1       5.410   4.184  17.413  0.00  0.00    +0.000 A 
ATOM     20  C   UNL     1       5.218   3.559  16.174  0.00  0.00    +0.000 A 
ATOM     21  C   UNL     1       5.879   3.996  15.026  0.00  0.00    +0.000 A 
ATOM     22  C   UNL     1       6.763   5.077  15.079  0.00  0.00    +0.000 A 
ATOM     23  C   UNL     1       7.002   5.690  16.324  0.00  0.00    +0.000 A 
ATOM     24  C   UNL     1       6.295   5.264  17.472  0.00  0.00    +0.000 A 
BRANCH  22  25
ATOM     25  O   UNL     1       7.384   5.588  13.971  0.00  0.00    +0.000 OA
ATOM     26  C   UNL     1       7.425   4.780  12.800  0.00  0.00    +0.000 C 
ENDBRANCH  22  25
BRANCH  23  27
ATOM     27  O   UNL     1       7.851   6.744  16.562  0.00  0.00    +0.000 OA
ATOM     28  C   UNL     1       7.345   7.771  17.413  0.00  0.00    +0.000 C 
ENDBRANCH  23  27
ENDBRANCH  18  19
ENDBRANCH   6  18
TORSDOF 8
ENDMDL
MODEL 3
REMARK VINA RESULT:      -7.9      1.223      2.380
REMARK  Name = 
REMARK  11 active torsions:
REMARK  status: ('A' for Active; 'I' for Inactive)
REMARK    1  A    between atoms: C_1  and  O_2
REMARK    2  A    between atoms: O_2  and  C_3
REMARK    3  A    between atoms: C_5  and  C_6
REMARK    4  A    between atoms: C_6  and  C_7
REMARK    5  A    between atoms: C_12  and  C_13
REMARK    6  A    between atoms: C_13  and  C_14
REMARK    7  A    between atoms: C_17  and  O_18
REMARK    8  A    between atoms: O_18  and  C_19
REMARK    9  A    between atoms: C_20  and  O_21
REMARK   10  A    between atoms: O_21  and  C_22
REMARK   11  A    between atoms: C_26  and  O_27
REMARK                            x       y       z     vdW  Elec       q    Type
REMARK                         _______ _______ _______ _____ _____    ______ ____
ROOT
ATOM      1  C   UNL     1       2.142   4.751  18.528  0.00  0.00    +0.000 C 
ATOM      2  C   UNL     1       1.366   4.004  19.578  0.00  0.00    +0.000 C 
ATOM      3  O   UNL     1       0.686   4.503  20.459  0.00  0.00    +0.000 OA
ATOM      4  O   UNL     1       1.464   2.663  19.371  0.00  0.00    +0.000 OA
ATOM      5  C   UNL     1       1.956   2.431  18.057  0.00  0.00    +0.000 C 
ATOM      6  C   UNL     1       2.780   3.659  17.663  0.00  0.00    +0.000 C 
ENDROOT
BRANCH   1   7
ATOM      7  C   UNL     1       2.940   5.945  19.063  0.00  0.00    +0.000 C 
BRANCH   7  10
ATOM      8  C   UNL     1       1.175   9.087  20.443  0.00  0.00    +0.000 A 
ATOM      9  C   UNL     1       1.860   7.861  20.377  0.00  0.00    +0.000 A 
ATOM     10  C   UNL     1       2.348   7.335  19.171  0.00  0.00    +0.000 A 
ATOM     11  C   UNL     1       2.106   8.071  18.003  0.00  0.00    +0.000 A 
ATOM     12  C   UNL     1       1.427   9.294  18.047  0.00  0.00    +0.000 A 
ATOM     13  C   UNL     1       0.961   9.800  19.263  0.00  0.00    +0.000 A 
BRANCH   8  15
ATOM     14  C   UNL     1      -0.539   9.078  22.119  0.00  0.00    +0.000 C 
ATOM     15  O   UNL     1       0.781   9.406  21.715  0.00  0.00    +0.000 OA
ENDBRANCH   8  15
BRANCH  13  16
ATOM     16  O   UNL     1       0.284  10.988  19.252  0.00  0.00    +0.000 OA
ATOM     17  H   UNL     1      -0.669  10.808  19.225  0.00  0.00    +0.000 HD
ENDBRANCH  13  16
ENDBRANCH   7  10
ENDBRANCH   1   7
BRANCH   6  18
ATOM     18  C   UNL     1       4.267   3.308  17.795  0.00  0.00    +0.000 C 
BRANCH  18  19
ATOM     19  C   UNL     1       5.308   3.910  16.882  0.00  0.00    +0.000 A 
ATOM     20  C   UNL     1       5.474   3.299  15.633  0.00  0.00    +0.000 A 
ATOM     21  C   UNL     1       6.322   3.837  14.664  0.00  0.00    +0.000 A 
ATOM     22  C   UNL     1       7.040   5.009  14.916  0.00  0.00    +0.000 A 
ATOM     23  C   UNL     1       6.919   5.613  16.181  0.00  0.00    +0.000 A 
ATOM     24  C   UNL     1       6.025   5.082  17.140  0.00  0.00    +0.000 A 
BRANCH  22  25
ATOM     25  O   UNL     1       7.831   5.615  13.977  0.00  0.00    +0.000 OA
ATOM     26  C   UNL     1       7.738   5.156  12.633  0.00  0.00    +0.000 C 
ENDBRANCH  22  25
BRANCH  23  27
ATOM     27  O   UNL     1       7.564   6.750  16.605  0.00  0.00    +0.000 OA
ATOM     28  C   UNL     1       7.704   6.898  18.018  0.00  0.00    +0.000 C 
ENDBRANCH  23  27
ENDBRANCH  18  19
ENDBRANCH   6  18
TORSDOF 8
ENDMDL
MODEL 4
REMARK VINA RESULT:      -7.6      1.206      1.942
REMARK  Name = 
REMARK  11 active torsions:
REMARK  status: ('A' for Active; 'I' for Inactive)
REMARK    1  A    between atoms: C_1  and  O_2
REMARK    2  A    between atoms: O_2  and  C_3
REMARK    3  A    between atoms: C_5  and  C_6
REMARK    4  A    between atoms: C_6  and  C_7
REMARK    5  A    between atoms: C_12  and  C_13
REMARK    6  A    between atoms: C_13  and  C_14
REMARK    7  A    between atoms: C_17  and  O_18
REMARK    8  A    between atoms: O_18  and  C_19
REMARK    9  A    between atoms: C_20  and  O_21
REMARK   10  A    between atoms: O_21  and  C_22
REMARK   11  A    between atoms: C_26  and  O_27
REMARK                            x       y       z     vdW  Elec       q    Type
REMARK                         _______ _______ _______ _____ _____    ______ ____
ROOT
ATOM      1  C   UNL     1       1.963   4.522  18.563  0.00  0.00    +0.000 C 
ATOM      2  C   UNL     1       1.306   3.786  19.699  0.00  0.00    +0.000 C 
ATOM      3  O   UNL     1       0.804   4.292  20.688  0.00  0.00    +0.000 OA
ATOM      4  O   UNL     1       1.279   2.451  19.440  0.00  0.00    +0.000 OA
ATOM      5  C   UNL     1       1.549   2.239  18.060  0.00  0.00    +0.000 C 
ATOM      6  C   UNL     1       2.386   3.427  17.578  0.00  0.00    +0.000 C 
ENDROOT
BRANCH   1   7
ATOM      7  C   UNL     1       2.913   5.642  19.003  0.00  0.00    +0.000 C 
BRANCH   7  10
ATOM      8  C   UNL     1       1.329   8.928  20.260  0.00  0.00    +0.000 A 
ATOM      9  C   UNL     1       1.869   7.630  20.235  0.00  0.00    +0.000 A 
ATOM     10  C   UNL     1       2.477   7.090  19.092  0.00  0.00    +0.000 A 
ATOM     11  C   UNL     1       2.511   7.889  17.942  0.00  0.00    +0.000 A 
ATOM     12  C   UNL     1       1.981   9.184  17.946  0.00  0.00    +0.000 A 
ATOM     13  C   UNL     1       1.390   9.702  19.101  0.00  0.00    +0.000 A 
BRANCH   8  15
ATOM     14  C   UNL     1      -0.451   8.644  21.840  0.00  0.00    +0.000 C 
ATOM     15  O   UNL     1       0.779   9.249  21.472  0.00  0.00    +0.000 OA
ENDBRANCH   8  15
BRANCH  13  16
ATOM     16  O   UNL     1       0.866  10.963  19.049  0.00  0.00    +0.000 OA
ATOM     17  H   UNL     1       1.113  11.442  19.857  0.00  0.00    +0.000 HD
ENDBRANCH  13  16
ENDBRANCH   7  10
ENDBRANCH   1   7
BRANCH   6  18
ATOM     18  C   UNL     1       3.847   2.977  17.470  0.00  0.00    +0.000 C 
BRANCH  18  19
ATOM     19  C   UNL     1       4.965   3.965  17.238  0.00  0.00    +0.000 A 
ATOM     20  C   UNL     1       4.779   4.890  16.203  0.00  0.00    +0.000 A 
ATOM     21  C   UNL     1       5.691   5.921  15.972  0.00  0.00    +0.000 A 
ATOM     22  C   UNL     1       6.828   6.060  16.771  0.00  0.00    +0.000 A 
ATOM     23  C   UNL     1       7.055   5.114  17.789  0.00  0.00    +0.000 A 
ATOM     24  C   UNL     1       6.102   4.098  18.040  0.00  0.00    +0.000 A 
BRANCH  22  25
ATOM     25  O   UNL     1       7.717   7.092  16.632  0.00  0.00    +0.000 OA
ATOM     26  C   UNL     1       7.564   8.220  17.485  0.00  0.00    +0.000 C 
ENDBRANCH  22  25
BRANCH  23  27
ATOM     27  O   UNL     1       8.125   5.085  18.651  0.00  0.00    +0.000 OA
ATOM     28  C   UNL     1       7.940   5.756  19.897  0.00  0.00    +0.000 C 
ENDBRANCH  23  27
ENDBRANCH  18  19
ENDBRANCH   6  18
TORSDOF 8
ENDMDL
MODEL 5
REMARK VINA RESULT:      -7.4      1.402      6.365
REMARK  Name = 
REMARK  11 active torsions:
REMARK  status: ('A' for Active; 'I' for Inactive)
REMARK    1  A    between atoms: C_1  and  O_2
REMARK    2  A    between atoms: O_2  and  C_3
REMARK    3  A    between atoms: C_5  and  C_6
REMARK    4  A    between atoms: C_6  and  C_7
REMARK    5  A    between atoms: C_12  and  C_13
REMARK    6  A    between atoms: C_13  and  C_14
REMARK    7  A    between atoms: C_17  and  O_18
REMARK    8  A    between atoms: O_18  and  C_19
REMARK    9  A    between atoms: C_20  and  O_21
REMARK   10  A    between atoms: O_21  and  C_22
REMARK   11  A    between atoms: C_26  and  O_27
REMARK                            x       y       z     vdW  Elec       q    Type
REMARK                         _______ _______ _______ _____ _____    ______ ____
ROOT
ATOM      1  C   UNL     1       3.295   4.017  19.594  0.00  0.00    +0.000 C 
ATOM      2  C   UNL     1       2.892   2.573  19.715  0.00  0.00    +0.000 C 
ATOM      3  O   UNL     1       3.264   1.661  18.996  0.00  0.00    +0.000 OA
ATOM      4  O   UNL     1       2.093   2.397  20.802  0.00  0.00    +0.000 OA
ATOM      5  C   UNL     1       2.196   3.539  21.644  0.00  0.00    +0.000 C 
ATOM      6  C   UNL     1       2.579   4.722  20.752  0.00  0.00    +0.000 C 
ENDROOT
BRANCH   1   7
ATOM      7  C   UNL     1       3.271   4.561  18.161  0.00  0.00    +0.000 C 
BRANCH   7  10
ATOM      8  C   UNL     1       6.358   6.176  16.501  0.00  0.00    +0.000 A 
ATOM      9  C   UNL     1       5.278   5.943  17.372  0.00  0.00    +0.000 A 
ATOM     10  C   UNL     1       4.532   4.755  17.344  0.00  0.00    +0.000 A 
ATOM     11  C   UNL     1       4.885   3.795  16.387  0.00  0.00    +0.000 A 
ATOM     12  C   UNL     1       5.956   4.007  15.512  0.00  0.00    +0.000 A 
ATOM     13  C   UNL     1       6.690   5.194  15.567  0.00  0.00    +0.000 A 
BRANCH   8  15
ATOM     14  C   UNL     1       7.764   7.589  17.832  0.00  0.00    +0.000 C 
ATOM     15  O   UNL     1       6.938   7.400  16.694  0.00  0.00    +0.000 OA
ENDBRANCH   8  15
BRANCH  13  16
ATOM     16  O   UNL     1       7.713   5.364  14.677  0.00  0.00    +0.000 OA
ATOM     17  H   UNL     1       7.345   5.618  13.816  0.00  0.00    +0.000 HD
ENDBRANCH  13  16
ENDBRANCH   7  10
ENDBRANCH   1   7
BRANCH   6  18
ATOM     18  C   UNL     1       1.326   5.573  20.511  0.00  0.00    +0.000 C 
BRANCH  18  19
ATOM     19  C   UNL     1       1.398   7.077  20.410  0.00  0.00    +0.000 A 
ATOM     20  C   UNL     1       1.706   7.607  19.151  0.00  0.00    +0.000 A 
ATOM     21  C   UNL     1       1.686   8.982  18.913  0.00  0.00    +0.000 A 
ATOM     22  C   UNL     1       1.359   9.879  19.933  0.00  0.00    +0.000 A 
ATOM     23  C   UNL     1       1.090   9.367  21.217  0.00  0.00    +0.000 A 
ATOM     24  C   UNL     1       1.073   7.970  21.436  0.00  0.00    +0.000 A 
BRANCH  22  25
ATOM     25  O   UNL     1       1.258  11.230  19.735  0.00  0.00    +0.000 OA
ATOM     26  C   UNL     1       0.060  11.728  19.151  0.00  0.00    +0.000 C 
ENDBRANCH  22  25
BRANCH  23  27
ATOM     27  O   UNL     1       0.774  10.100  22.335  0.00  0.00    +0.000 OA
ATOM     28  C   UNL     1      -0.451   9.756  22.981  0.00  0.00    +0.000 C 
ENDBRANCH  23  27
ENDBRANCH  18  19
ENDBRANCH   6  18
TORSDOF 8
ENDMDL
MODEL 6
REMARK VINA RESULT:      -7.3      1.403      6.295
REMARK  Name = 
REMARK  11 active torsions:
REMARK  status: ('A' for Active; 'I' for Inactive)
REMARK    1  A    between atoms: C_1  and  O_2
REMARK    2  A    between atoms: O_2  and  C_3
REMARK    3  A    between atoms: C_5  and  C_6
REMARK    4  A    between atoms: C_6  and  C_7
REMARK    5  A    between atoms: C_12  and  C_13
REMARK    6  A    between atoms: C_13  and  C_14
REMARK    7  A    between atoms: C_17  and  O_18
REMARK    8  A    between atoms: O_18  and  C_19
REMARK    9  A    between atoms: C_20  and  O_21
REMARK   10  A    between atoms: O_21  and  C_22
REMARK   11  A    between atoms: C_26  and  O_27
REMARK                            x       y       z     vdW  Elec       q    Type
REMARK                         _______ _______ _______ _____ _____    ______ ____
ROOT
ATOM      1  C   UNL     1       3.384   3.386  19.170  0.00  0.00    +0.000 C 
ATOM      2  C   UNL     1       2.970   2.423  18.091  0.00  0.00    +0.000 C 
ATOM      3  O   UNL     1       3.469   1.331  17.873  0.00  0.00    +0.000 OA
ATOM      4  O   UNL     1       1.893   2.906  17.417  0.00  0.00    +0.000 OA
ATOM      5  C   UNL     1       1.310   3.963  18.170  0.00  0.00    +0.000 C 
ATOM      6  C   UNL     1       2.422   4.571  19.027  0.00  0.00    +0.000 C 
ENDROOT
BRANCH   1   7
ATOM      7  C   UNL     1       4.900   3.571  19.303  0.00  0.00    +0.000 C 
BRANCH   7  10
ATOM      8  C   UNL     1       6.513   5.612  16.452  0.00  0.00    +0.000 A 
ATOM      9  C   UNL     1       5.689   4.709  17.148  0.00  0.00    +0.000 A 
ATOM     10  C   UNL     1       5.657   4.646  18.549  0.00  0.00    +0.000 A 
ATOM     11  C   UNL     1       6.506   5.510  19.252  0.00  0.00    +0.000 A 
ATOM     12  C   UNL     1       7.332   6.416  18.580  0.00  0.00    +0.000 A 
ATOM     13  C   UNL     1       7.338   6.467  17.184  0.00  0.00    +0.000 A 
BRANCH   8  15
ATOM     14  C   UNL     1       6.295   4.202  14.526  0.00  0.00    +0.000 C 
ATOM     15  O   UNL     1       6.393   5.499  15.094  0.00  0.00    +0.000 OA
ENDBRANCH   8  15
BRANCH  13  16
ATOM     16  O   UNL     1       8.179   7.353  16.572  0.00  0.00    +0.000 OA
ATOM     17  H   UNL     1       8.030   8.238  16.942  0.00  0.00    +0.000 HD
ENDBRANCH  13  16
ENDBRANCH   7  10
ENDBRANCH   1   7
BRANCH   6  18
ATOM     18  C   UNL     1       2.871   5.885  18.378  0.00  0.00    +0.000 C 
BRANCH  18  19
ATOM     19  C   UNL     1       2.317   7.217  18.822  0.00  0.00    +0.000 A 
ATOM     20  C   UNL     1       2.113   8.176  17.820  0.00  0.00    +0.000 A 
ATOM     21  C   UNL     1       1.499   9.399  18.094  0.00  0.00    +0.000 A 
ATOM     22  C   UNL     1       1.069   9.707  19.387  0.00  0.00    +0.000 A 
ATOM     23  C   UNL     1       1.305   8.775  20.415  0.00  0.00    +0.000 A 
ATOM     24  C   UNL     1       1.891   7.522  20.117  0.00  0.00    +0.000 A 
BRANCH  22  25
ATOM     25  O   UNL     1       0.401  10.862  19.695  0.00  0.00    +0.000 OA
ATOM     26  C   UNL     1      -0.418  11.445  18.688  0.00  0.00    +0.000 C 
ENDBRANCH  22  25
BRANCH  23  27
ATOM     27  O   UNL     1       0.970   8.922  21.740  0.00  0.00    +0.000 OA
ATOM     28  C   UNL     1      -0.385   8.630  22.077  0.00  0.00    +0.000 C 
ENDBRANCH  23  27
ENDBRANCH  18  19
ENDBRANCH   6  18
TORSDOF 8
ENDMDL
MODEL 7
REMARK VINA RESULT:      -7.3      1.388      6.227
REMARK  Name = 
REMARK  11 active torsions:
REMARK  status: ('A' for Active; 'I' for Inactive)
REMARK    1  A    between atoms: C_1  and  O_2
REMARK    2  A    between atoms: O_2  and  C_3
REMARK    3  A    between atoms: C_5  and  C_6
REMARK    4  A    between atoms: C_6  and  C_7
REMARK    5  A    between atoms: C_12  and  C_13
REMARK    6  A    between atoms: C_13  and  C_14
REMARK    7  A    between atoms: C_17  and  O_18
REMARK    8  A    between atoms: O_18  and  C_19
REMARK    9  A    between atoms: C_20  and  O_21
REMARK   10  A    between atoms: O_21  and  C_22
REMARK   11  A    between atoms: C_26  and  O_27
REMARK                            x       y       z     vdW  Elec       q    Type
REMARK                         _______ _______ _______ _____ _____    ______ ____
ROOT
ATOM      1  C   UNL     1       3.505   3.625  19.198  0.00  0.00    +0.000 C 
ATOM      2  C   UNL     1       3.015   2.523  18.298  0.00  0.00    +0.000 C 
ATOM      3  O   UNL     1       3.541   1.434  18.144  0.00  0.00    +0.000 OA
ATOM      4  O   UNL     1       1.839   2.880  17.716  0.00  0.00    +0.000 OA
ATOM      5  C   UNL     1       1.296   3.996  18.411  0.00  0.00    +0.000 C 
ATOM      6  C   UNL     1       2.471   4.745  19.045  0.00  0.00    +0.000 C 
ENDROOT
BRANCH   1   7
ATOM      7  C   UNL     1       5.014   3.883  19.114  0.00  0.00    +0.000 C 
BRANCH   7  10
ATOM      8  C   UNL     1       7.041   5.824  16.465  0.00  0.00    +0.000 A 
ATOM      9  C   UNL     1       6.527   5.392  17.701  0.00  0.00    +0.000 A 
ATOM     10  C   UNL     1       5.703   4.262  17.819  0.00  0.00    +0.000 A 
ATOM     11  C   UNL     1       5.378   3.576  16.641  0.00  0.00    +0.000 A 
ATOM     12  C   UNL     1       5.879   3.990  15.403  0.00  0.00    +0.000 A 
ATOM     13  C   UNL     1       6.706   5.111  15.313  0.00  0.00    +0.000 A 
BRANCH   8  15
ATOM     14  C   UNL     1       7.649   7.774  17.720  0.00  0.00    +0.000 C 
ATOM     15  O   UNL     1       7.813   6.949  16.578  0.00  0.00    +0.000 OA
ENDBRANCH   8  15
BRANCH  13  16
ATOM     16  O   UNL     1       7.153   5.490  14.078  0.00  0.00    +0.000 OA
ATOM     17  H   UNL     1       6.394   5.576  13.480  0.00  0.00    +0.000 HD
ENDBRANCH  13  16
ENDBRANCH   7  10
ENDBRANCH   1   7
BRANCH   6  18
ATOM     18  C   UNL     1       2.766   5.989  18.198  0.00  0.00    +0.000 C 
BRANCH  18  19
ATOM     19  C   UNL     1       2.283   7.359  18.608  0.00  0.00    +0.000 A 
ATOM     20  C   UNL     1       2.395   8.375  17.650  0.00  0.00    +0.000 A 
ATOM     21  C   UNL     1       1.876   9.651  17.875  0.00  0.00    +0.000 A 
ATOM     22  C   UNL     1       1.229   9.956  19.075  0.00  0.00    +0.000 A 
ATOM     23  C   UNL     1       1.146   8.961  20.067  0.00  0.00    +0.000 A 
ATOM     24  C   UNL     1       1.638   7.660  19.810  0.00  0.00    +0.000 A 
BRANCH  22  25
ATOM     25  O   UNL     1       0.643  11.170  19.319  0.00  0.00    +0.000 OA
ATOM     26  C   UNL     1      -0.508  11.517  18.557  0.00  0.00    +0.000 C 
ENDBRANCH  22  25
BRANCH  23  27
ATOM     27  O   UNL     1       0.566   9.093  21.306  0.00  0.00    +0.000 OA
ATOM     28  C   UNL     1       1.462   9.086  22.417  0.00  0.00    +0.000 C 
ENDBRANCH  23  27
ENDBRANCH  18  19
ENDBRANCH   6  18
TORSDOF 8
ENDMDL
MODEL 8
REMARK VINA RESULT:      -7.2      0.976      1.043
REMARK  Name = 
REMARK  11 active torsions:
REMARK  status: ('A' for Active; 'I' for Inactive)
REMARK    1  A    between atoms: C_1  and  O_2
REMARK    2  A    between atoms: O_2  and  C_3
REMARK    3  A    between atoms: C_5  and  C_6
REMARK    4  A    between atoms: C_6  and  C_7
REMARK    5  A    between atoms: C_12  and  C_13
REMARK    6  A    between atoms: C_13  and  C_14
REMARK    7  A    between atoms: C_17  and  O_18
REMARK    8  A    between atoms: O_18  and  C_19
REMARK    9  A    between atoms: C_20  and  O_21
REMARK   10  A    between atoms: O_21  and  C_22
REMARK   11  A    between atoms: C_26  and  O_27
REMARK                            x       y       z     vdW  Elec       q    Type
REMARK                         _______ _______ _______ _____ _____    ______ ____
ROOT
ATOM      1  C   UNL     1       1.934   4.668  18.690  0.00  0.00    +0.000 C 
ATOM      2  C   UNL     1       1.223   3.924  19.787  0.00  0.00    +0.000 C 
ATOM      3  O   UNL     1       0.621   4.425  20.722  0.00  0.00    +0.000 OA
ATOM      4  O   UNL     1       1.276   2.584  19.558  0.00  0.00    +0.000 OA
ATOM      5  C   UNL     1       1.663   2.359  18.208  0.00  0.00    +0.000 C 
ATOM      6  C   UNL     1       2.482   3.574  17.766  0.00  0.00    +0.000 C 
ENDROOT
BRANCH   1   7
ATOM      7  C   UNL     1       2.796   5.838  19.177  0.00  0.00    +0.000 C 
BRANCH   7  10
ATOM      8  C   UNL     1       1.037   9.194  19.904  0.00  0.00    +0.000 A 
ATOM      9  C   UNL     1       1.583   7.909  20.070  0.00  0.00    +0.000 A 
ATOM     10  C   UNL     1       2.343   7.280  19.073  0.00  0.00    +0.000 A 
ATOM     11  C   UNL     1       2.525   7.972  17.869  0.00  0.00    +0.000 A 
ATOM     12  C   UNL     1       1.991   9.251  17.683  0.00  0.00    +0.000 A 
ATOM     13  C   UNL     1       1.247   9.861  18.696  0.00  0.00    +0.000 A 
BRANCH   8  15
ATOM     14  C   UNL     1       0.894   9.435  22.284  0.00  0.00    +0.000 C 
ATOM     15  O   UNL     1       0.326   9.613  20.996  0.00  0.00    +0.000 OA
ENDBRANCH   8  15
BRANCH  13  16
ATOM     16  O   UNL     1       0.727  11.102  18.459  0.00  0.00    +0.000 OA
ATOM     17  H   UNL     1       1.218  11.757  18.981  0.00  0.00    +0.000 HD
ENDBRANCH  13  16
ENDBRANCH   7  10
ENDBRANCH   1   7
BRANCH   6  18
ATOM     18  C   UNL     1       3.966   3.190  17.783  0.00  0.00    +0.000 C 
BRANCH  18  19
ATOM     19  C   UNL     1       5.055   4.235  17.754  0.00  0.00    +0.000 A 
ATOM     20  C   UNL     1       5.499   4.712  18.994  0.00  0.00    +0.000 A 
ATOM     21  C   UNL     1       6.578   5.592  19.094  0.00  0.00    +0.000 A 
ATOM     22  C   UNL     1       7.250   6.029  17.950  0.00  0.00    +0.000 A 
ATOM     23  C   UNL     1       6.791   5.595  16.692  0.00  0.00    +0.000 A 
ATOM     24  C   UNL     1       5.723   4.671  16.606  0.00  0.00    +0.000 A 
BRANCH  22  25
ATOM     25  O   UNL     1       8.355   6.836  17.997  0.00  0.00    +0.000 OA
ATOM     26  C   UNL     1       8.153   8.244  17.950  0.00  0.00    +0.000 C 
ENDBRANCH  22  25
BRANCH  23  27
ATOM     27  O   UNL     1       7.316   5.939  15.470  0.00  0.00    +0.000 OA
ATOM     28  C   UNL     1       7.104   5.004  14.414  0.00  0.00    +0.000 C 
ENDBRANCH  23  27
ENDBRANCH  18  19
ENDBRANCH   6  18
TORSDOF 8
ENDMDL
MODEL 9
REMARK VINA RESULT:      -7.2      1.304      6.156
REMARK  Name = 
REMARK  11 active torsions:
REMARK  status: ('A' for Active; 'I' for Inactive)
REMARK    1  A    between atoms: C_1  and  O_2
REMARK    2  A    between atoms: O_2  and  C_3
REMARK    3  A    between atoms: C_5  and  C_6
REMARK    4  A    between atoms: C_6  and  C_7
REMARK    5  A    between atoms: C_12  and  C_13
REMARK    6  A    between atoms: C_13  and  C_14
REMARK    7  A    between atoms: C_17  and  O_18
REMARK    8  A    between atoms: O_18  and  C_19
REMARK    9  A    between atoms: C_20  and  O_21
REMARK   10  A    between atoms: O_21  and  C_22
REMARK   11  A    between atoms: C_26  and  O_27
REMARK                            x       y       z     vdW  Elec       q    Type
REMARK                         _______ _______ _______ _____ _____    ______ ____
ROOT
ATOM      1  C   UNL     1       3.108   3.505  20.171  0.00  0.00    +0.000 C 
ATOM      2  C   UNL     1       1.994   2.813  19.434  0.00  0.00    +0.000 C 
ATOM      3  O   UNL     1       1.973   1.639  19.102  0.00  0.00    +0.000 OA
ATOM      4  O   UNL     1       0.954   3.668  19.244  0.00  0.00    +0.000 OA
ATOM      5  C   UNL     1       1.116   4.794  20.098  0.00  0.00    +0.000 C 
ATOM      6  C   UNL     1       2.615   4.943  20.365  0.00  0.00    +0.000 C 
ENDROOT
BRANCH   1   7
ATOM      7  C   UNL     1       4.510   3.183  19.642  0.00  0.00    +0.000 C 
BRANCH   7  10
ATOM      8  C   UNL     1       6.580   5.289  17.157  0.00  0.00    +0.000 A 
ATOM      9  C   UNL     1       6.173   4.619  18.325  0.00  0.00    +0.000 A 
ATOM     10  C   UNL     1       5.051   3.777  18.358  0.00  0.00    +0.000 A 
ATOM     11  C   UNL     1       4.316   3.638  17.173  0.00  0.00    +0.000 A 
ATOM     12  C   UNL     1       4.704   4.295  16.001  0.00  0.00    +0.000 A 
ATOM     13  C   UNL     1       5.831   5.119  15.992  0.00  0.00    +0.000 A 
BRANCH   8  15
ATOM     14  C   UNL     1       7.520   7.450  17.595  0.00  0.00    +0.000 C 
ATOM     15  O   UNL     1       7.692   6.063  17.351  0.00  0.00    +0.000 OA
ENDBRANCH   8  15
BRANCH  13  16
ATOM     16  O   UNL     1       6.157   5.758  14.828  0.00  0.00    +0.000 OA
ATOM     17  H   UNL     1       6.196   5.106  14.110  0.00  0.00    +0.000 HD
ENDBRANCH  13  16
ENDBRANCH   7  10
ENDBRANCH   1   7
BRANCH   6  18
ATOM     18  C   UNL     1       3.150   6.090  19.499  0.00  0.00    +0.000 C 
BRANCH  18  19
ATOM     19  C   UNL     1       2.400   7.393  19.359  0.00  0.00    +0.000 A 
ATOM     20  C   UNL     1       2.294   7.919  18.065  0.00  0.00    +0.000 A 
ATOM     21  C   UNL     1       1.528   9.054  17.799  0.00  0.00    +0.000 A 
ATOM     22  C   UNL     1       0.840   9.708  18.825  0.00  0.00    +0.000 A 
ATOM     23  C   UNL     1       0.970   9.219  20.139  0.00  0.00    +0.000 A 
ATOM     24  C   UNL     1       1.716   8.044  20.390  0.00  0.00    +0.000 A 
BRANCH  22  25
ATOM     25  O   UNL     1       0.020  10.783  18.608  0.00  0.00    +0.000 OA
ATOM     26  C   UNL     1      -1.313  10.526  18.183  0.00  0.00    +0.000 C 
ENDBRANCH  22  25
BRANCH  23  27
ATOM     27  O   UNL     1       0.385   9.747  21.265  0.00  0.00    +0.000 OA
ATOM     28  C   UNL     1       0.834   9.213  22.510  0.00  0.00    +0.000 C 
ENDBRANCH  23  27
ENDBRANCH  18  19
ENDBRANCH   6  18
TORSDOF 8
ENDMDL
