MODEL 1
REMARK VINA RESULT:      -7.5      0.000      0.000
REMARK  Name = 
REMARK  14 active torsions:
REMARK  status: ('A' for Active; 'I' for Inactive)
REMARK    1  A    between atoms: C_1  and  C_2
REMARK    2  A    between atoms: C_2  and  C_3
REMARK    3  A    between atoms: C_3  and  C_4
REMARK    4  A    between atoms: C_3  and  C_6
REMARK    5  A    between atoms: C_4  and  C_5
REMARK    6  A    between atoms: C_6  and  C_7
REMARK    7  A    between atoms: C_6  and  C_8
REMARK    8  A    between atoms: C_8  and  C_9
REMARK    9  A    between atoms: N_11  and  C_12
REMARK   10  A    between atoms: C_17  and  S_18
REMARK   11  A    between atoms: S_18  and  C_19
REMARK   12  A    between atoms: C_19  and  C_21
REMARK   13  A    between atoms: C_21  and  C_22
REMARK   14  A    between atoms: C_21  and  C_23
REMARK                            x       y       z     vdW  Elec       q    Type
REMARK                         _______ _______ _______ _____ _____    ______ ____
ROOT
ATOM      1  C   UNL     1       2.069   6.423  20.001  0.00  0.00    +0.000 C 
ATOM      2  O   UNL     1       1.472   5.815  20.880  0.00  0.00    +0.000 OA
ATOM      3  N   UNL     1       1.970   7.794  19.790  0.00  0.00    +0.000 N 
ATOM      4  H   UNL     1       2.374   8.173  18.939  0.00  0.00    +0.000 HD
ENDROOT
BRANCH   1   5
ATOM      5  C   UNL     1       3.024   5.641  19.044  0.00  0.00    +0.000 C 
ATOM      6  C   UNL     1       4.369   5.370  19.772  0.00  0.00    +0.000 C 
ATOM      7  C   UNL     1       5.521   4.886  18.875  0.00  0.00    +0.000 C 
ATOM      8  C   UNL     1       5.795   5.777  17.676  0.00  0.00    +0.000 C 
ATOM      9  C   UNL     1       4.520   6.184  16.944  0.00  0.00    +0.000 C 
ATOM     10  C   UNL     1       3.467   6.699  17.923  0.00  0.00    +0.000 C 
BRANCH   5  11
ATOM     11  C   UNL     1       2.268   4.410  18.338  0.00  0.00    +0.000 C 
ATOM     12  C   UNL     1       1.136   4.938  17.415  0.00  0.00    +0.000 C 
BRANCH  11  13
ATOM     13  C   UNL     1       1.736   3.027  18.953  0.00  0.00    +0.000 C 
BRANCH  13  15
ATOM     14  C   UNL     1       3.744   1.727  18.071  0.00  0.00    +0.000 C 
ATOM     15  C   UNL     1       2.225   1.698  18.345  0.00  0.00    +0.000 C 
ENDBRANCH  13  15
BRANCH  13  16
ATOM     16  C   UNL     1       1.357   2.918  20.472  0.00  0.00    +0.000 C 
ATOM     17  C   UNL     1       2.438   2.629  21.504  0.00  0.00    +0.000 C 
ENDBRANCH  13  16
ENDBRANCH  11  13
ENDBRANCH   5  11
ENDBRANCH   1   5
BRANCH   3  18
ATOM     18  C   UNL     1       1.200   8.714  20.574  0.00  0.00    +0.000 A 
ATOM     19  C   UNL     1       1.181   8.653  21.975  0.00  0.00    +0.000 A 
ATOM     20  C   UNL     1       0.457   9.564  22.749  0.00  0.00    +0.000 A 
ATOM     21  C   UNL     1      -0.263  10.576  22.137  0.00  0.00    +0.000 A 
ATOM     22  C   UNL     1      -0.264  10.670  20.748  0.00  0.00    +0.000 A 
ATOM     23  C   UNL     1       0.449   9.745  19.955  0.00  0.00    +0.000 A 
BRANCH  23  24
ATOM     24  S   UNL     1       0.351  10.034  18.189  0.00  0.00    +0.000 S 
BRANCH  24  25
ATOM     25  C   UNL     1      -1.073  11.054  18.104  0.00  0.00    +0.000 C 
ATOM     26  O   UNL     1      -0.952  12.264  18.213  0.00  0.00    +0.000 OA
BRANCH  25  27
ATOM     27  C   UNL     1      -2.408  10.359  17.932  0.00  0.00    +0.000 C 
ATOM     28  C   UNL     1      -3.530  11.346  18.241  0.00  0.00    +0.000 C 
ATOM     29  C   UNL     1      -2.514   9.845  16.498  0.00  0.00    +0.000 C 
ENDBRANCH  25  27
ENDBRANCH  24  25
ENDBRANCH  23  24
ENDBRANCH   3  18
TORSDOF 9
ENDMDL
MODEL 2
REMARK VINA RESULT:      -7.4      1.045      2.976
REMARK  Name = 
REMARK  14 active torsions:
REMARK  status: ('A' for Active; 'I' for Inactive)
REMARK    1  A    between atoms: C_1  and  C_2
REMARK    2  A    between atoms: C_2  and  C_3
REMARK    3  A    between atoms: C_3  and  C_4
REMARK    4  A    between atoms: C_3  and  C_6
REMARK    5  A    between atoms: C_4  and  C_5
REMARK    6  A    between atoms: C_6  and  C_7
REMARK    7  A    between atoms: C_6  and  C_8
REMARK    8  A    between atoms: C_8  and  C_9
REMARK    9  A    between atoms: N_11  and  C_12
REMARK   10  A    between atoms: C_17  and  S_18
REMARK   11  A    between atoms: S_18  and  C_19
REMARK   12  A    between atoms: C_19  and  C_21
REMARK   13  A    between atoms: C_21  and  C_22
REMARK   14  A    between atoms: C_21  and  C_23
REMARK                            x       y       z     vdW  Elec       q    Type
REMARK                         _______ _______ _______ _____ _____    ______ ____
ROOT
ATOM      1  C   UNL     1       2.013   6.270  19.911  0.00  0.00    +0.000 C 
ATOM      2  O   UNL     1       1.455   5.679  20.828  0.00  0.00    +0.000 OA
ATOM      3  N   UNL     1       1.938   7.643  19.705  0.00  0.00    +0.000 N 
ATOM      4  H   UNL     1       2.297   8.011  18.829  0.00  0.00    +0.000 HD
ENDROOT
BRANCH   1   5
ATOM      5  C   UNL     1       2.884   5.463  18.899  0.00  0.00    +0.000 C 
ATOM      6  C   UNL     1       1.958   4.607  17.992  0.00  0.00    +0.000 C 
ATOM      7  C   UNL     1       2.664   3.530  17.152  0.00  0.00    +0.000 C 
ATOM      8  C   UNL     1       3.547   2.592  17.957  0.00  0.00    +0.000 C 
ATOM      9  C   UNL     1       4.433   3.331  18.955  0.00  0.00    +0.000 C 
ATOM     10  C   UNL     1       3.619   4.334  19.770  0.00  0.00    +0.000 C 
BRANCH   5  11
ATOM     11  C   UNL     1       3.993   6.398  18.204  0.00  0.00    +0.000 C 
ATOM     12  C   UNL     1       3.305   7.526  17.390  0.00  0.00    +0.000 C 
BRANCH  11  13
ATOM     13  C   UNL     1       5.322   6.008  17.395  0.00  0.00    +0.000 C 
BRANCH  13  15
ATOM     14  C   UNL     1       5.477   4.750  15.183  0.00  0.00    +0.000 C 
ATOM     15  C   UNL     1       5.329   6.130  15.858  0.00  0.00    +0.000 C 
ENDBRANCH  13  15
BRANCH  13  16
ATOM     16  C   UNL     1       6.739   6.192  18.044  0.00  0.00    +0.000 C 
ATOM     17  C   UNL     1       7.686   5.005  18.146  0.00  0.00    +0.000 C 
ENDBRANCH  13  16
ENDBRANCH  11  13
ENDBRANCH   5  11
ENDBRANCH   1   5
BRANCH   3  18
ATOM     18  C   UNL     1       1.243   8.584  20.533  0.00  0.00    +0.000 A 
ATOM     19  C   UNL     1       1.234   8.470  21.931  0.00  0.00    +0.000 A 
ATOM     20  C   UNL     1       0.585   9.399  22.749  0.00  0.00    +0.000 A 
ATOM     21  C   UNL     1      -0.069  10.481  22.186  0.00  0.00    +0.000 A 
ATOM     22  C   UNL     1      -0.078  10.629  20.802  0.00  0.00    +0.000 A 
ATOM     23  C   UNL     1       0.559   9.688  19.965  0.00  0.00    +0.000 A 
BRANCH  23  24
ATOM     24  S   UNL     1       0.462  10.052  18.213  0.00  0.00    +0.000 S 
BRANCH  24  25
ATOM     25  C   UNL     1      -0.954  11.084  18.172  0.00  0.00    +0.000 C 
ATOM     26  O   UNL     1      -0.819  12.293  18.283  0.00  0.00    +0.000 OA
BRANCH  25  27
ATOM     27  C   UNL     1      -2.300  10.402  18.033  0.00  0.00    +0.000 C 
ATOM     28  C   UNL     1      -3.404  11.405  18.351  0.00  0.00    +0.000 C 
ATOM     29  C   UNL     1      -2.438   9.872  16.608  0.00  0.00    +0.000 C 
ENDBRANCH  25  27
ENDBRANCH  24  25
ENDBRANCH  23  24
ENDBRANCH   3  18
TORSDOF 9
ENDMDL
MODEL 3
REMARK VINA RESULT:      -7.3      0.841      1.069
REMARK  Name = 
REMARK  14 active torsions:
REMARK  status: ('A' for Active; 'I' for Inactive)
REMARK    1  A    between atoms: C_1  and  C_2
REMARK    2  A    between atoms: C_2  and  C_3
REMARK    3  A    between atoms: C_3  and  C_4
REMARK    4  A    between atoms: C_3  and  C_6
REMARK    5  A    between atoms: C_4  and  C_5
REMARK    6  A    between atoms: C_6  and  C_7
REMARK    7  A    between atoms: C_6  and  C_8
REMARK    8  A    between atoms: C_8  and  C_9
REMARK    9  A    between atoms: N_11  and  C_12
REMARK   10  A    between atoms: C_17  and  S_18
REMARK   11  A    between atoms: S_18  and  C_19
REMARK   12  A    between atoms: C_19  and  C_21
REMARK   13  A    between atoms: C_21  and  C_22
REMARK   14  A    between atoms: C_21  and  C_23
REMARK                            x       y       z     vdW  Elec       q    Type
REMARK                         _______ _______ _______ _____ _____    ______ ____
ROOT
ATOM      1  C   UNL     1       2.183   6.463  20.005  0.00  0.00    +0.000 C 
ATOM      2  O   UNL     1       1.710   5.828  20.939  0.00  0.00    +0.000 OA
ATOM      3  N   UNL     1       1.959   7.818  19.786  0.00  0.00    +0.000 N 
ATOM      4  H   UNL     1       2.259   8.211  18.899  0.00  0.00    +0.000 HD
ENDROOT
BRANCH   1   5
ATOM      5  C   UNL     1       3.114   5.740  18.982  0.00  0.00    +0.000 C 
ATOM      6  C   UNL     1       4.504   5.503  19.633  0.00  0.00    +0.000 C 
ATOM      7  C   UNL     1       5.625   5.082  18.667  0.00  0.00    +0.000 C 
ATOM      8  C   UNL     1       5.804   6.011  17.478  0.00  0.00    +0.000 C 
ATOM      9  C   UNL     1       4.479   6.387  16.822  0.00  0.00    +0.000 C 
ATOM     10  C   UNL     1       3.461   6.840  17.867  0.00  0.00    +0.000 C 
BRANCH   5  11
ATOM     11  C   UNL     1       2.367   4.499  18.284  0.00  0.00    +0.000 C 
ATOM     12  C   UNL     1       1.161   5.004  17.448  0.00  0.00    +0.000 C 
BRANCH  11  13
ATOM     13  C   UNL     1       1.931   3.077  18.887  0.00  0.00    +0.000 C 
BRANCH  13  15
ATOM     14  C   UNL     1       3.877   2.054  17.596  0.00  0.00    +0.000 C 
ATOM     15  C   UNL     1       2.907   1.888  18.786  0.00  0.00    +0.000 C 
ENDBRANCH  13  15
BRANCH  13  16
ATOM     16  C   UNL     1       0.966   2.991  20.121  0.00  0.00    +0.000 C 
ATOM     17  C   UNL     1       1.510   2.583  21.482  0.00  0.00    +0.000 C 
ENDBRANCH  13  16
ENDBRANCH  11  13
ENDBRANCH   5  11
ENDBRANCH   1   5
BRANCH   3  18
ATOM     18  C   UNL     1       1.185   8.691  20.620  0.00  0.00    +0.000 A 
ATOM     19  C   UNL     1       1.176   8.559  22.016  0.00  0.00    +0.000 A 
ATOM     20  C   UNL     1       0.450   9.424  22.840  0.00  0.00    +0.000 A 
ATOM     21  C   UNL     1      -0.285  10.457  22.284  0.00  0.00    +0.000 A 
ATOM     22  C   UNL     1      -0.296  10.622  20.902  0.00  0.00    +0.000 A 
ATOM     23  C   UNL     1       0.420   9.744  20.059  0.00  0.00    +0.000 A 
BRANCH  23  24
ATOM     24  S   UNL     1       0.307  10.120  18.311  0.00  0.00    +0.000 S 
BRANCH  24  25
ATOM     25  C   UNL     1      -1.412  10.429  18.154  0.00  0.00    +0.000 C 
ATOM     26  O   UNL     1      -2.191   9.488  18.128  0.00  0.00    +0.000 OA
BRANCH  25  27
ATOM     27  C   UNL     1      -1.843  11.875  18.021  0.00  0.00    +0.000 C 
ATOM     28  C   UNL     1      -2.879  12.189  19.096  0.00  0.00    +0.000 C 
ATOM     29  C   UNL     1      -0.615  12.770  18.168  0.00  0.00    +0.000 C 
ENDBRANCH  25  27
ENDBRANCH  24  25
ENDBRANCH  23  24
ENDBRANCH   3  18
TORSDOF 9
ENDMDL
MODEL 4
REMARK VINA RESULT:      -7.2      1.326      3.299
REMARK  Name = 
REMARK  14 active torsions:
REMARK  status: ('A' for Active; 'I' for Inactive)
REMARK    1  A    between atoms: C_1  and  C_2
REMARK    2  A    between atoms: C_2  and  C_3
REMARK    3  A    between atoms: C_3  and  C_4
REMARK    4  A    between atoms: C_3  and  C_6
REMARK    5  A    between atoms: C_4  and  C_5
REMARK    6  A    between atoms: C_6  and  C_7
REMARK    7  A    between atoms: C_6  and  C_8
REMARK    8  A    between atoms: C_8  and  C_9
REMARK    9  A    between atoms: N_11  and  C_12
REMARK   10  A    between atoms: C_17  and  S_18
REMARK   11  A    between atoms: S_18  and  C_19
REMARK   12  A    between atoms: C_19  and  C_21
REMARK   13  A    between atoms: C_21  and  C_22
REMARK   14  A    between atoms: C_21  and  C_23
REMARK                            x       y       z     vdW  Elec       q    Type
REMARK                         _______ _______ _______ _____ _____    ______ ____
ROOT
ATOM      1  C   UNL     1       1.993   6.350  19.924  0.00  0.00    +0.000 C 
ATOM      2  O   UNL     1       1.442   5.726  20.821  0.00  0.00    +0.000 OA
ATOM      3  N   UNL     1       1.906   7.728  19.760  0.00  0.00    +0.000 N 
ATOM      4  H   UNL     1       2.261   8.126  18.896  0.00  0.00    +0.000 HD
ENDROOT
BRANCH   1   5
ATOM      5  C   UNL     1       2.872   5.583  18.886  0.00  0.00    +0.000 C 
ATOM      6  C   UNL     1       1.953   4.732  17.966  0.00  0.00    +0.000 C 
ATOM      7  C   UNL     1       2.673   3.688  17.095  0.00  0.00    +0.000 C 
ATOM      8  C   UNL     1       3.578   2.747  17.871  0.00  0.00    +0.000 C 
ATOM      9  C   UNL     1       4.458   3.479  18.880  0.00  0.00    +0.000 C 
ATOM     10  C   UNL     1       3.633   4.447  19.725  0.00  0.00    +0.000 C 
BRANCH   5  11
ATOM     11  C   UNL     1       3.958   6.554  18.206  0.00  0.00    +0.000 C 
ATOM     12  C   UNL     1       3.245   7.714  17.462  0.00  0.00    +0.000 C 
BRANCH  11  13
ATOM     13  C   UNL     1       5.267   6.207  17.345  0.00  0.00    +0.000 C 
BRANCH  13  15
ATOM     14  C   UNL     1       5.624   5.045  15.104  0.00  0.00    +0.000 C 
ATOM     15  C   UNL     1       5.219   6.356  15.812  0.00  0.00    +0.000 C 
ENDBRANCH  13  15
BRANCH  13  16
ATOM     16  C   UNL     1       6.701   6.412  17.949  0.00  0.00    +0.000 C 
ATOM     17  C   UNL     1       7.538   7.611  17.526  0.00  0.00    +0.000 C 
ENDBRANCH  13  16
ENDBRANCH  11  13
ENDBRANCH   5  11
ENDBRANCH   1   5
BRANCH   3  18
ATOM     18  C   UNL     1       1.203   8.637  20.618  0.00  0.00    +0.000 A 
ATOM     19  C   UNL     1       1.206   8.485  22.012  0.00  0.00    +0.000 A 
ATOM     20  C   UNL     1       0.550   9.383  22.859  0.00  0.00    +0.000 A 
ATOM     21  C   UNL     1      -0.125  10.470  22.328  0.00  0.00    +0.000 A 
ATOM     22  C   UNL     1      -0.145  10.655  20.949  0.00  0.00    +0.000 A 
ATOM     23  C   UNL     1       0.500   9.745  20.083  0.00  0.00    +0.000 A 
BRANCH  23  24
ATOM     24  S   UNL     1       0.385  10.153  18.342  0.00  0.00    +0.000 S 
BRANCH  24  25
ATOM     25  C   UNL     1      -1.335  10.459  18.191  0.00  0.00    +0.000 C 
ATOM     26  O   UNL     1      -2.113   9.517  18.181  0.00  0.00    +0.000 OA
BRANCH  25  27
ATOM     27  C   UNL     1      -1.768  11.903  18.042  0.00  0.00    +0.000 C 
ATOM     28  C   UNL     1      -2.826  12.218  19.095  0.00  0.00    +0.000 C 
ATOM     29  C   UNL     1      -0.546  12.802  18.209  0.00  0.00    +0.000 C 
ENDBRANCH  25  27
ENDBRANCH  24  25
ENDBRANCH  23  24
ENDBRANCH   3  18
TORSDOF 9
ENDMDL
MODEL 5
REMARK VINA RESULT:      -7.2      0.512      1.285
REMARK  Name = 
REMARK  14 active torsions:
REMARK  status: ('A' for Active; 'I' for Inactive)
REMARK    1  A    between atoms: C_1  and  C_2
REMARK    2  A    between atoms: C_2  and  C_3
REMARK    3  A    between atoms: C_3  and  C_4
REMARK    4  A    between atoms: C_3  and  C_6
REMARK    5  A    between atoms: C_4  and  C_5
REMARK    6  A    between atoms: C_6  and  C_7
REMARK    7  A    between atoms: C_6  and  C_8
REMARK    8  A    between atoms: C_8  and  C_9
REMARK    9  A    between atoms: N_11  and  C_12
REMARK   10  A    between atoms: C_17  and  S_18
REMARK   11  A    between atoms: S_18  and  C_19
REMARK   12  A    between atoms: C_19  and  C_21
REMARK   13  A    between atoms: C_21  and  C_22
REMARK   14  A    between atoms: C_21  and  C_23
REMARK                            x       y       z     vdW  Elec       q    Type
REMARK                         _______ _______ _______ _____ _____    ______ ____
ROOT
ATOM      1  C   UNL     1       2.291   6.526  19.881  0.00  0.00    +0.000 C 
ATOM      2  O   UNL     1       1.853   5.863  20.812  0.00  0.00    +0.000 OA
ATOM      3  N   UNL     1       2.014   7.874  19.679  0.00  0.00    +0.000 N 
ATOM      4  H   UNL     1       2.289   8.287  18.794  0.00  0.00    +0.000 HD
ENDROOT
BRANCH   1   5
ATOM      5  C   UNL     1       3.239   5.851  18.840  0.00  0.00    +0.000 C 
ATOM      6  C   UNL     1       4.650   5.679  19.467  0.00  0.00    +0.000 C 
ATOM      7  C   UNL     1       5.773   5.314  18.481  0.00  0.00    +0.000 C 
ATOM      8  C   UNL     1       5.887   6.252  17.292  0.00  0.00    +0.000 C 
ATOM      9  C   UNL     1       4.535   6.566  16.659  0.00  0.00    +0.000 C 
ATOM     10  C   UNL     1       3.514   6.968  17.722  0.00  0.00    +0.000 C 
BRANCH   5  11
ATOM     11  C   UNL     1       2.540   4.576  18.151  0.00  0.00    +0.000 C 
ATOM     12  C   UNL     1       1.139   4.964  17.610  0.00  0.00    +0.000 C 
BRANCH  11  13
ATOM     13  C   UNL     1       2.422   3.058  18.656  0.00  0.00    +0.000 C 
BRANCH  13  15
ATOM     14  C   UNL     1       1.281   2.636  20.897  0.00  0.00    +0.000 C 
ATOM     15  C   UNL     1       1.130   2.599  19.361  0.00  0.00    +0.000 C 
ENDBRANCH  13  15
BRANCH  13  16
ATOM     16  C   UNL     1       3.167   1.901  17.901  0.00  0.00    +0.000 C 
ATOM     17  C   UNL     1       4.083   0.961  18.670  0.00  0.00    +0.000 C 
ENDBRANCH  13  16
ENDBRANCH  11  13
ENDBRANCH   5  11
ENDBRANCH   1   5
BRANCH   3  18
ATOM     18  C   UNL     1       1.216   8.707  20.531  0.00  0.00    +0.000 A 
ATOM     19  C   UNL     1       1.061   8.431  21.897  0.00  0.00    +0.000 A 
ATOM     20  C   UNL     1       0.311   9.253  22.742  0.00  0.00    +0.000 A 
ATOM     21  C   UNL     1      -0.300  10.390  22.239  0.00  0.00    +0.000 A 
ATOM     22  C   UNL     1      -0.165  10.698  20.889  0.00  0.00    +0.000 A 
ATOM     23  C   UNL     1       0.576   9.865  20.022  0.00  0.00    +0.000 A 
BRANCH  23  24
ATOM     24  S   UNL     1       0.659  10.430  18.324  0.00  0.00    +0.000 S 
BRANCH  24  25
ATOM     25  C   UNL     1      -0.838  11.334  18.207  0.00  0.00    +0.000 C 
ATOM     26  O   UNL     1      -0.801  12.555  18.168  0.00  0.00    +0.000 OA
BRANCH  25  27
ATOM     27  C   UNL     1      -2.126  10.536  18.196  0.00  0.00    +0.000 C 
ATOM     28  C   UNL     1      -3.308  11.492  18.319  0.00  0.00    +0.000 C 
ATOM     29  C   UNL     1      -2.200   9.741  16.895  0.00  0.00    +0.000 C 
ENDBRANCH  25  27
ENDBRANCH  24  25
ENDBRANCH  23  24
ENDBRANCH   3  18
TORSDOF 9
ENDMDL
MODEL 6
REMARK VINA RESULT:      -7.1      1.477      3.349
REMARK  Name = 
REMARK  14 active torsions:
REMARK  status: ('A' for Active; 'I' for Inactive)
REMARK    1  A    between atoms: C_1  and  C_2
REMARK    2  A    between atoms: C_2  and  C_3
REMARK    3  A    between atoms: C_3  and  C_4
REMARK    4  A    between atoms: C_3  and  C_6
REMARK    5  A    between atoms: C_4  and  C_5
REMARK    6  A    between atoms: C_6  and  C_7
REMARK    7  A    between atoms: C_6  and  C_8
REMARK    8  A    between atoms: C_8  and  C_9
REMARK    9  A    between atoms: N_11  and  C_12
REMARK   10  A    between atoms: C_17  and  S_18
REMARK   11  A    between atoms: S_18  and  C_19
REMARK   12  A    between atoms: C_19  and  C_21
REMARK   13  A    between atoms: C_21  and  C_22
REMARK   14  A    between atoms: C_21  and  C_23
REMARK                            x       y       z     vdW  Elec       q    Type
REMARK                         _______ _______ _______ _____ _____    ______ ____
ROOT
ATOM      1  C   UNL     1       2.062   6.449  19.940  0.00  0.00    +0.000 C 
ATOM      2  O   UNL     1       1.520   5.771  20.804  0.00  0.00    +0.000 OA
ATOM      3  N   UNL     1       1.935   7.830  19.834  0.00  0.00    +0.000 N 
ATOM      4  H   UNL     1       2.288   8.274  18.992  0.00  0.00    +0.000 HD
ENDROOT
BRANCH   1   5
ATOM      5  C   UNL     1       2.974   5.752  18.882  0.00  0.00    +0.000 C 
ATOM      6  C   UNL     1       2.120   4.765  18.039  0.00  0.00    +0.000 C 
ATOM      7  C   UNL     1       2.916   3.781  17.165  0.00  0.00    +0.000 C 
ATOM      8  C   UNL     1       3.965   2.984  17.921  0.00  0.00    +0.000 C 
ATOM      9  C   UNL     1       4.799   3.852  18.858  0.00  0.00    +0.000 C 
ATOM     10  C   UNL     1       3.906   4.747  19.715  0.00  0.00    +0.000 C 
BRANCH   5  11
ATOM     11  C   UNL     1       3.901   6.819  18.115  0.00  0.00    +0.000 C 
ATOM     12  C   UNL     1       3.018   7.847  17.358  0.00  0.00    +0.000 C 
BRANCH  11  13
ATOM     13  C   UNL     1       5.208   6.598  17.210  0.00  0.00    +0.000 C 
BRANCH  13  15
ATOM     14  C   UNL     1       5.695   5.180  15.148  0.00  0.00    +0.000 C 
ATOM     15  C   UNL     1       5.052   6.479  15.682  0.00  0.00    +0.000 C 
ENDBRANCH  13  15
BRANCH  13  16
ATOM     16  C   UNL     1       6.598   7.178  17.654  0.00  0.00    +0.000 C 
ATOM     17  C   UNL     1       7.572   6.301  18.428  0.00  0.00    +0.000 C 
ENDBRANCH  13  16
ENDBRANCH  11  13
ENDBRANCH   5  11
ENDBRANCH   1   5
BRANCH   3  18
ATOM     18  C   UNL     1       1.196   8.680  20.721  0.00  0.00    +0.000 A 
ATOM     19  C   UNL     1       1.244   8.513  22.112  0.00  0.00    +0.000 A 
ATOM     20  C   UNL     1       0.552   9.355  22.986  0.00  0.00    +0.000 A 
ATOM     21  C   UNL     1      -0.205  10.402  22.487  0.00  0.00    +0.000 A 
ATOM     22  C   UNL     1      -0.272  10.601  21.111  0.00  0.00    +0.000 A 
ATOM     23  C   UNL     1       0.409   9.746  20.218  0.00  0.00    +0.000 A 
BRANCH  23  24
ATOM     24  S   UNL     1       0.224  10.166  18.486  0.00  0.00    +0.000 S 
BRANCH  24  25
ATOM     25  C   UNL     1       0.622  11.874  18.520  0.00  0.00    +0.000 C 
ATOM     26  O   UNL     1       1.758  12.219  18.807  0.00  0.00    +0.000 OA
BRANCH  25  27
ATOM     27  C   UNL     1      -0.498  12.848  18.219  0.00  0.00    +0.000 C 
ATOM     28  C   UNL     1      -1.804  12.076  18.063  0.00  0.00    +0.000 C 
ATOM     29  C   UNL     1      -0.592  13.857  19.360  0.00  0.00    +0.000 C 
ENDBRANCH  25  27
ENDBRANCH  24  25
ENDBRANCH  23  24
ENDBRANCH   3  18
TORSDOF 9
ENDMDL
MODEL 7
REMARK VINA RESULT:      -7.0      1.009      3.161
REMARK  Name = 
REMARK  14 active torsions:
REMARK  status: ('A' for Active; 'I' for Inactive)
REMARK    1  A    between atoms: C_1  and  C_2
REMARK    2  A    between atoms: C_2  and  C_3
REMARK    3  A    between atoms: C_3  and  C_4
REMARK    4  A    between atoms: C_3  and  C_6
REMARK    5  A    between atoms: C_4  and  C_5
REMARK    6  A    between atoms: C_6  and  C_7
REMARK    7  A    between atoms: C_6  and  C_8
REMARK    8  A    between atoms: C_8  and  C_9
REMARK    9  A    between atoms: N_11  and  C_12
REMARK   10  A    between atoms: C_17  and  S_18
REMARK   11  A    between atoms: S_18  and  C_19
REMARK   12  A    between atoms: C_19  and  C_21
REMARK   13  A    between atoms: C_21  and  C_22
REMARK   14  A    between atoms: C_21  and  C_23
REMARK                            x       y       z     vdW  Elec       q    Type
REMARK                         _______ _______ _______ _____ _____    ______ ____
ROOT
ATOM      1  C   UNL     1       2.125   6.179  19.954  0.00  0.00    +0.000 C 
ATOM      2  O   UNL     1       1.683   5.637  20.959  0.00  0.00    +0.000 OA
ATOM      3  N   UNL     1       1.966   7.528  19.658  0.00  0.00    +0.000 N 
ATOM      4  H   UNL     1       2.224   7.843  18.728  0.00  0.00    +0.000 HD
ENDROOT
BRANCH   1   5
ATOM      5  C   UNL     1       2.937   5.334  18.923  0.00  0.00    +0.000 C 
ATOM      6  C   UNL     1       1.954   4.641  17.940  0.00  0.00    +0.000 C 
ATOM      7  C   UNL     1       2.565   3.537  17.060  0.00  0.00    +0.000 C 
ATOM      8  C   UNL     1       3.306   2.461  17.835  0.00  0.00    +0.000 C 
ATOM      9  C   UNL     1       4.232   3.039  18.901  0.00  0.00    +0.000 C 
ATOM     10  C   UNL     1       3.507   4.082  19.748  0.00  0.00    +0.000 C 
BRANCH   5  11
ATOM     11  C   UNL     1       4.169   6.172  18.318  0.00  0.00    +0.000 C 
ATOM     12  C   UNL     1       3.647   7.253  17.334  0.00  0.00    +0.000 C 
BRANCH  11  13
ATOM     13  C   UNL     1       5.577   5.673  17.732  0.00  0.00    +0.000 C 
BRANCH  13  15
ATOM     14  C   UNL     1       7.817   6.370  18.730  0.00  0.00    +0.000 C 
ATOM     15  C   UNL     1       6.707   5.297  18.710  0.00  0.00    +0.000 C 
ENDBRANCH  13  15
BRANCH  13  16
ATOM     16  C   UNL     1       5.648   4.904  16.366  0.00  0.00    +0.000 C 
ATOM     17  C   UNL     1       6.911   4.978  15.520  0.00  0.00    +0.000 C 
ENDBRANCH  13  16
ENDBRANCH  11  13
ENDBRANCH   5  11
ENDBRANCH   1   5
BRANCH   3  18
ATOM     18  C   UNL     1       1.306   8.500  20.480  0.00  0.00    +0.000 A 
ATOM     19  C   UNL     1       1.321   8.414  21.879  0.00  0.00    +0.000 A 
ATOM     20  C   UNL     1       0.707   9.372  22.690  0.00  0.00    +0.000 A 
ATOM     21  C   UNL     1       0.065  10.457  22.117  0.00  0.00    +0.000 A 
ATOM     22  C   UNL     1       0.034  10.578  20.730  0.00  0.00    +0.000 A 
ATOM     23  C   UNL     1       0.635   9.607  19.901  0.00  0.00    +0.000 A 
BRANCH  23  24
ATOM     24  S   UNL     1       0.513   9.938  18.144  0.00  0.00    +0.000 S 
BRANCH  24  25
ATOM     25  C   UNL     1      -0.882  10.998  18.108  0.00  0.00    +0.000 C 
ATOM     26  O   UNL     1      -0.721  12.206  18.204  0.00  0.00    +0.000 OA
BRANCH  25  27
ATOM     27  C   UNL     1      -2.243  10.343  17.991  0.00  0.00    +0.000 C 
ATOM     28  C   UNL     1      -3.322  11.365  18.338  0.00  0.00    +0.000 C 
ATOM     29  C   UNL     1      -2.419   9.825  16.567  0.00  0.00    +0.000 C 
ENDBRANCH  25  27
ENDBRANCH  24  25
ENDBRANCH  23  24
ENDBRANCH   3  18
TORSDOF 9
ENDMDL
MODEL 8
REMARK VINA RESULT:      -7.0      1.359      2.013
REMARK  Name = 
REMARK  14 active torsions:
REMARK  status: ('A' for Active; 'I' for Inactive)
REMARK    1  A    between atoms: C_1  and  C_2
REMARK    2  A    between atoms: C_2  and  C_3
REMARK    3  A    between atoms: C_3  and  C_4
REMARK    4  A    between atoms: C_3  and  C_6
REMARK    5  A    between atoms: C_4  and  C_5
REMARK    6  A    between atoms: C_6  and  C_7
REMARK    7  A    between atoms: C_6  and  C_8
REMARK    8  A    between atoms: C_8  and  C_9
REMARK    9  A    between atoms: N_11  and  C_12
REMARK   10  A    between atoms: C_17  and  S_18
REMARK   11  A    between atoms: S_18  and  C_19
REMARK   12  A    between atoms: C_19  and  C_21
REMARK   13  A    between atoms: C_21  and  C_22
REMARK   14  A    between atoms: C_21  and  C_23
REMARK                            x       y       z     vdW  Elec       q    Type
REMARK                         _______ _______ _______ _____ _____    ______ ____
ROOT
ATOM      1  C   UNL     1       2.134   6.588  19.972  0.00  0.00    +0.000 C 
ATOM      2  O   UNL     1       1.571   5.872  20.791  0.00  0.00    +0.000 OA
ATOM      3  N   UNL     1       1.957   7.965  19.884  0.00  0.00    +0.000 N 
ATOM      4  H   UNL     1       2.338   8.440  19.072  0.00  0.00    +0.000 HD
ENDROOT
BRANCH   1   5
ATOM      5  C   UNL     1       3.133   5.951  18.956  0.00  0.00    +0.000 C 
ATOM      6  C   UNL     1       4.541   5.864  19.607  0.00  0.00    +0.000 C 
ATOM      7  C   UNL     1       5.697   5.547  18.644  0.00  0.00    +0.000 C 
ATOM      8  C   UNL     1       5.781   6.474  17.444  0.00  0.00    +0.000 C 
ATOM      9  C   UNL     1       4.424   6.706  16.786  0.00  0.00    +0.000 C 
ATOM     10  C   UNL     1       3.366   7.066  17.827  0.00  0.00    +0.000 C 
BRANCH   5  11
ATOM     11  C   UNL     1       2.515   4.631  18.275  0.00  0.00    +0.000 C 
ATOM     12  C   UNL     1       1.186   4.977  17.552  0.00  0.00    +0.000 C 
BRANCH  11  13
ATOM     13  C   UNL     1       2.335   3.148  18.859  0.00  0.00    +0.000 C 
BRANCH  13  15
ATOM     14  C   UNL     1       3.855   1.175  18.315  0.00  0.00    +0.000 C 
ATOM     15  C   UNL     1       2.571   1.941  17.930  0.00  0.00    +0.000 C 
ENDBRANCH  13  15
BRANCH  13  16
ATOM     16  C   UNL     1       2.627   2.841  20.371  0.00  0.00    +0.000 C 
ATOM     17  C   UNL     1       1.470   2.611  21.333  0.00  0.00    +0.000 C 
ENDBRANCH  13  16
ENDBRANCH  11  13
ENDBRANCH   5  11
ENDBRANCH   1   5
BRANCH   3  18
ATOM     18  C   UNL     1       1.134   8.766  20.741  0.00  0.00    +0.000 A 
ATOM     19  C   UNL     1       1.121   8.583  22.131  0.00  0.00    +0.000 A 
ATOM     20  C   UNL     1       0.345   9.379  22.979  0.00  0.00    +0.000 A 
ATOM     21  C   UNL     1      -0.436  10.394  22.454  0.00  0.00    +0.000 A 
ATOM     22  C   UNL     1      -0.445  10.608  21.078  0.00  0.00    +0.000 A 
ATOM     23  C   UNL     1       0.321   9.799  20.211  0.00  0.00    +0.000 A 
BRANCH  23  24
ATOM     24  S   UNL     1       0.202  10.233  18.477  0.00  0.00    +0.000 S 
BRANCH  24  25
ATOM     25  C   UNL     1       0.316  11.981  18.569  0.00  0.00    +0.000 C 
ATOM     26  O   UNL     1      -0.591  12.666  18.122  0.00  0.00    +0.000 OA
BRANCH  25  27
ATOM     27  C   UNL     1       1.577  12.557  19.179  0.00  0.00    +0.000 C 
ATOM     28  C   UNL     1       2.579  12.857  18.069  0.00  0.00    +0.000 C 
ATOM     29  C   UNL     1       1.216  13.827  19.946  0.00  0.00    +0.000 C 
ENDBRANCH  25  27
ENDBRANCH  24  25
ENDBRANCH  23  24
ENDBRANCH   3  18
TORSDOF 9
ENDMDL
MODEL 9
REMARK VINA RESULT:      -7.0      1.077      1.948
REMARK  Name = 
REMARK  14 active torsions:
REMARK  status: ('A' for Active; 'I' for Inactive)
REMARK    1  A    between atoms: C_1  and  C_2
REMARK    2  A    between atoms: C_2  and  C_3
REMARK    3  A    between atoms: C_3  and  C_4
REMARK    4  A    between atoms: C_3  and  C_6
REMARK    5  A    between atoms: C_4  and  C_5
REMARK    6  A    between atoms: C_6  and  C_7
REMARK    7  A    between atoms: C_6  and  C_8
REMARK    8  A    between atoms: C_8  and  C_9
REMARK    9  A    between atoms: N_11  and  C_12
REMARK   10  A    between atoms: C_17  and  S_18
REMARK   11  A    between atoms: S_18  and  C_19
REMARK   12  A    between atoms: C_19  and  C_21
REMARK   13  A    between atoms: C_21  and  C_22
REMARK   14  A    between atoms: C_21  and  C_23
REMARK                            x       y       z     vdW  Elec       q    Type
REMARK                         _______ _______ _______ _____ _____    ______ ____
ROOT
ATOM      1  C   UNL     1       2.207   6.527  20.026  0.00  0.00    +0.000 C 
ATOM      2  O   UNL     1       1.709   5.863  20.927  0.00  0.00    +0.000 OA
ATOM      3  N   UNL     1       1.994   7.890  19.849  0.00  0.00    +0.000 N 
ATOM      4  H   UNL     1       2.317   8.311  18.983  0.00  0.00    +0.000 HD
ENDROOT
BRANCH   1   5
ATOM      5  C   UNL     1       3.158   5.834  19.001  0.00  0.00    +0.000 C 
ATOM      6  C   UNL     1       4.576   5.705  19.622  0.00  0.00    +0.000 C 
ATOM      7  C   UNL     1       5.698   5.327  18.641  0.00  0.00    +0.000 C 
ATOM      8  C   UNL     1       5.789   6.229  17.421  0.00  0.00    +0.000 C 
ATOM      9  C   UNL     1       4.427   6.500  16.789  0.00  0.00    +0.000 C 
ATOM     10  C   UNL     1       3.407   6.919  17.846  0.00  0.00    +0.000 C 
BRANCH   5  11
ATOM     11  C   UNL     1       2.476   4.527  18.358  0.00  0.00    +0.000 C 
ATOM     12  C   UNL     1       1.215   4.928  17.546  0.00  0.00    +0.000 C 
BRANCH  11  13
ATOM     13  C   UNL     1       2.153   3.097  19.010  0.00  0.00    +0.000 C 
BRANCH  13  15
ATOM     14  C   UNL     1       1.308   2.629  21.370  0.00  0.00    +0.000 C 
ATOM     15  C   UNL     1       0.912   2.945  19.911  0.00  0.00    +0.000 C 
ENDBRANCH  13  15
BRANCH  13  16
ATOM     16  C   UNL     1       2.559   1.771  18.275  0.00  0.00    +0.000 C 
ATOM     17  C   UNL     1       4.028   1.469  18.013  0.00  0.00    +0.000 C 
ENDBRANCH  13  16
ENDBRANCH  11  13
ENDBRANCH   5  11
ENDBRANCH   1   5
BRANCH   3  18
ATOM     18  C   UNL     1       1.206   8.738  20.694  0.00  0.00    +0.000 A 
ATOM     19  C   UNL     1       1.152   8.549  22.082  0.00  0.00    +0.000 A 
ATOM     20  C   UNL     1       0.411   9.389  22.918  0.00  0.00    +0.000 A 
ATOM     21  C   UNL     1      -0.293  10.455  22.383  0.00  0.00    +0.000 A 
ATOM     22  C   UNL     1      -0.258  10.676  21.010  0.00  0.00    +0.000 A 
ATOM     23  C   UNL     1       0.473   9.824  20.153  0.00  0.00    +0.000 A 
BRANCH  23  24
ATOM     24  S   UNL     1       0.419  10.273  18.420  0.00  0.00    +0.000 S 
BRANCH  24  25
ATOM     25  C   UNL     1       0.781  11.986  18.515  0.00  0.00    +0.000 C 
ATOM     26  O   UNL     1       1.895  12.346  18.864  0.00  0.00    +0.000 OA
BRANCH  25  27
ATOM     27  C   UNL     1      -0.343  12.947  18.186  0.00  0.00    +0.000 C 
ATOM     28  C   UNL     1      -1.642  12.162  18.026  0.00  0.00    +0.000 C 
ATOM     29  C   UNL     1      -0.460  13.972  19.311  0.00  0.00    +0.000 C 
ENDBRANCH  25  27
ENDBRANCH  24  25
ENDBRANCH  23  24
ENDBRANCH   3  18
TORSDOF 9
ENDMDL
