MODEL 1
REMARK VINA RESULT:      -7.8      0.000      0.000
REMARK  Name = 
REMARK  7 active torsions:
REMARK  status: ('A' for Active; 'I' for Inactive)
REMARK    1  A    between atoms: C_1  and  C_2
REMARK    2  A    between atoms: C_7  and  N_8
REMARK    3  A    between atoms: N_9  and  C_10
REMARK    4  A    between atoms: C_13  and  N_14
REMARK    5  A    between atoms: C_15  and  C_17
REMARK    6  A    between atoms: N_21  and  C_22
REMARK    7  A    between atoms: C_23  and  C_24
REMARK                            x       y       z     vdW  Elec       q    Type
REMARK                         _______ _______ _______ _____ _____    ______ ____
ROOT
ATOM      1  C   UNL     1       8.038   8.327  17.933  0.00  0.00    +0.000 A 
ATOM      2  C   UNL     1       8.363   7.326  18.845  0.00  0.00    +0.000 A 
ATOM      3  C   UNL     1       7.597   6.160  18.938  0.00  0.00    +0.000 A 
ATOM      4  C   UNL     1       6.481   5.946  18.118  0.00  0.00    +0.000 A 
ATOM      5  C   UNL     1       6.120   6.953  17.201  0.00  0.00    +0.000 A 
ATOM      6  C   UNL     1       4.942   6.874  16.270  0.00  0.00    +0.000 C 
ATOM      7  C   UNL     1       6.896   8.134  17.140  0.00  0.00    +0.000 A 
ENDROOT
BRANCH   4   8
ATOM      8  N   UNL     1       5.700   4.765  18.234  0.00  0.00    +0.000 N 
ATOM      9  C   UNL     1       4.561   4.607  19.013  0.00  0.00    +0.000 C 
ATOM     10  O   UNL     1       4.172   5.434  19.831  0.00  0.00    +0.000 OA
ATOM     11  H   UNL     1       6.027   3.956  17.735  0.00  0.00    +0.000 HD
BRANCH   9  12
ATOM     12  C   UNL     1       3.844   3.359  18.814  0.00  0.00    +0.000 A 
ATOM     13  C   UNL     1       4.153   2.048  19.142  0.00  0.00    +0.000 A 
ATOM     14  C   UNL     1       3.076   1.274  18.676  0.00  0.00    +0.000 A 
ATOM     15  N   UNL     1       2.136   2.018  18.099  0.00  0.00    +0.000 NA
ATOM     16  N   UNL     1       2.613   3.274  18.190  0.00  0.00    +0.000 N 
ATOM     17  C   UNL     1       1.824   4.354  17.633  0.00  0.00    +0.000 C 
ENDBRANCH   9  12
ENDBRANCH   4   8
BRANCH   1  19
ATOM     18  N   UNL     1       9.001   9.993  19.031  0.00  0.00    +0.000 NA
ATOM     19  N   UNL     1       8.852   9.481  17.904  0.00  0.00    +0.000 NA
BRANCH  18  26
ATOM     20  C   UNL     1       9.393  11.753  21.440  0.00  0.00    +0.000 C 
ATOM     21  C   UNL     1      10.086  11.957  20.121  0.00  0.00    +0.000 A 
ATOM     22  C   UNL     1      10.916  13.083  19.964  0.00  0.00    +0.000 A 
ATOM     23  C   UNL     1      11.570  13.329  18.758  0.00  0.00    +0.000 A 
ATOM     24  C   UNL     1      11.425  12.441  17.698  0.00  0.00    +0.000 A 
ATOM     25  C   UNL     1      10.609  11.318  17.841  0.00  0.00    +0.000 A 
ATOM     26  C   UNL     1       9.924  11.061  19.040  0.00  0.00    +0.000 A 
ENDBRANCH  18  26
ENDBRANCH   1  19
TORSDOF 4
ENDMDL
MODEL 2
REMARK VINA RESULT:      -7.6      0.779      1.817
REMARK  Name = 
REMARK  7 active torsions:
REMARK  status: ('A' for Active; 'I' for Inactive)
REMARK    1  A    between atoms: C_1  and  C_2
REMARK    2  A    between atoms: C_7  and  N_8
REMARK    3  A    between atoms: N_9  and  C_10
REMARK    4  A    between atoms: C_13  and  N_14
REMARK    5  A    between atoms: C_15  and  C_17
REMARK    6  A    between atoms: N_21  and  C_22
REMARK    7  A    between atoms: C_23  and  C_24
REMARK                            x       y       z     vdW  Elec       q    Type
REMARK                         _______ _______ _______ _____ _____    ______ ____
ROOT
ATOM      1  C   UNL     1       8.142   8.590  18.044  0.00  0.00    +0.000 A 
ATOM      2  C   UNL     1       7.023   8.511  17.220  0.00  0.00    +0.000 A 
ATOM      3  C   UNL     1       6.221   7.365  17.201  0.00  0.00    +0.000 A 
ATOM      4  C   UNL     1       6.504   6.257  18.011  0.00  0.00    +0.000 A 
ATOM      5  C   UNL     1       7.643   6.305  18.839  0.00  0.00    +0.000 A 
ATOM      6  C   UNL     1       8.082   5.190  19.749  0.00  0.00    +0.000 C 
ATOM      7  C   UNL     1       8.452   7.465  18.825  0.00  0.00    +0.000 A 
ENDROOT
BRANCH   4   8
ATOM      8  N   UNL     1       5.693   5.092  17.972  0.00  0.00    +0.000 N 
ATOM      9  C   UNL     1       4.553   4.858  18.732  0.00  0.00    +0.000 C 
ATOM     10  O   UNL     1       4.190   5.576  19.657  0.00  0.00    +0.000 OA
ATOM     11  H   UNL     1       5.996   4.350  17.365  0.00  0.00    +0.000 HD
BRANCH   9  12
ATOM     12  C   UNL     1       3.803   3.668  18.371  0.00  0.00    +0.000 A 
ATOM     13  C   UNL     1       2.917   3.406  17.337  0.00  0.00    +0.000 A 
ATOM     14  C   UNL     1       2.495   2.078  17.522  0.00  0.00    +0.000 A 
ATOM     15  N   UNL     1       3.065   1.515  18.584  0.00  0.00    +0.000 NA
ATOM     16  N   UNL     1       3.852   2.485  19.086  0.00  0.00    +0.000 N 
ATOM     17  C   UNL     1       4.620   2.203  20.282  0.00  0.00    +0.000 C 
ENDBRANCH   9  12
ENDBRANCH   4   8
BRANCH   1  19
ATOM     18  N   UNL     1       9.215  10.191  19.136  0.00  0.00    +0.000 NA
ATOM     19  N   UNL     1       8.909   9.775  18.001  0.00  0.00    +0.000 NA
BRANCH  18  26
ATOM     20  C   UNL     1       9.593  12.009  21.504  0.00  0.00    +0.000 C 
ATOM     21  C   UNL     1      10.250  12.214  20.166  0.00  0.00    +0.000 A 
ATOM     22  C   UNL     1      11.034  13.366  19.972  0.00  0.00    +0.000 A 
ATOM     23  C   UNL     1      11.653  13.613  18.748  0.00  0.00    +0.000 A 
ATOM     24  C   UNL     1      11.519  12.701  17.707  0.00  0.00    +0.000 A 
ATOM     25  C   UNL     1      10.748  11.552  17.888  0.00  0.00    +0.000 A 
ATOM     26  C   UNL     1      10.098  11.292  19.106  0.00  0.00    +0.000 A 
ENDBRANCH  18  26
ENDBRANCH   1  19
TORSDOF 4
ENDMDL
MODEL 3
REMARK VINA RESULT:      -7.6      0.958      1.279
REMARK  Name = 
REMARK  7 active torsions:
REMARK  status: ('A' for Active; 'I' for Inactive)
REMARK    1  A    between atoms: C_1  and  C_2
REMARK    2  A    between atoms: C_7  and  N_8
REMARK    3  A    between atoms: N_9  and  C_10
REMARK    4  A    between atoms: C_13  and  N_14
REMARK    5  A    between atoms: C_15  and  C_17
REMARK    6  A    between atoms: N_21  and  C_22
REMARK    7  A    between atoms: C_23  and  C_24
REMARK                            x       y       z     vdW  Elec       q    Type
REMARK                         _______ _______ _______ _____ _____    ______ ____
ROOT
ATOM      1  C   UNL     1       7.985   8.080  17.917  0.00  0.00    +0.000 A 
ATOM      2  C   UNL     1       8.224   7.074  18.849  0.00  0.00    +0.000 A 
ATOM      3  C   UNL     1       7.388   5.957  18.934  0.00  0.00    +0.000 A 
ATOM      4  C   UNL     1       6.285   5.798  18.085  0.00  0.00    +0.000 A 
ATOM      5  C   UNL     1       6.010   6.813  17.146  0.00  0.00    +0.000 A 
ATOM      6  C   UNL     1       4.855   6.791  16.182  0.00  0.00    +0.000 C 
ATOM      7  C   UNL     1       6.856   7.945  17.094  0.00  0.00    +0.000 A 
ENDROOT
BRANCH   4   8
ATOM      8  N   UNL     1       5.432   4.668  18.191  0.00  0.00    +0.000 N 
ATOM      9  C   UNL     1       4.315   4.556  19.010  0.00  0.00    +0.000 C 
ATOM     10  O   UNL     1       4.013   5.376  19.869  0.00  0.00    +0.000 OA
ATOM     11  H   UNL     1       5.686   3.857  17.653  0.00  0.00    +0.000 HD
BRANCH   9  12
ATOM     12  C   UNL     1       3.509   3.365  18.797  0.00  0.00    +0.000 A 
ATOM     13  C   UNL     1       3.733   2.028  19.089  0.00  0.00    +0.000 A 
ATOM     14  C   UNL     1       2.597   1.341  18.628  0.00  0.00    +0.000 A 
ATOM     15  N   UNL     1       1.700   2.162  18.086  0.00  0.00    +0.000 NA
ATOM     16  N   UNL     1       2.264   3.380  18.196  0.00  0.00    +0.000 N 
ATOM     17  C   UNL     1       1.542   4.525  17.679  0.00  0.00    +0.000 C 
ENDBRANCH   9  12
ENDBRANCH   4   8
BRANCH   1  19
ATOM     18  N   UNL     1       8.360  10.212  18.388  0.00  0.00    +0.000 NA
ATOM     19  N   UNL     1       8.867   9.184  17.898  0.00  0.00    +0.000 NA
BRANCH  18  26
ATOM     20  C   UNL     1       7.836  12.911  17.167  0.00  0.00    +0.000 C 
ATOM     21  C   UNL     1       9.104  12.540  17.885  0.00  0.00    +0.000 A 
ATOM     22  C   UNL     1      10.151  13.479  17.932  0.00  0.00    +0.000 A 
ATOM     23  C   UNL     1      11.353  13.181  18.572  0.00  0.00    +0.000 A 
ATOM     24  C   UNL     1      11.519  11.950  19.195  0.00  0.00    +0.000 A 
ATOM     25  C   UNL     1      10.487  11.011  19.162  0.00  0.00    +0.000 A 
ATOM     26  C   UNL     1       9.275  11.282  18.505  0.00  0.00    +0.000 A 
ENDBRANCH  18  26
ENDBRANCH   1  19
TORSDOF 4
ENDMDL
MODEL 4
REMARK VINA RESULT:      -7.5      1.176      1.732
REMARK  Name = 
REMARK  7 active torsions:
REMARK  status: ('A' for Active; 'I' for Inactive)
REMARK    1  A    between atoms: C_1  and  C_2
REMARK    2  A    between atoms: C_7  and  N_8
REMARK    3  A    between atoms: N_9  and  C_10
REMARK    4  A    between atoms: C_13  and  N_14
REMARK    5  A    between atoms: C_15  and  C_17
REMARK    6  A    between atoms: N_21  and  C_22
REMARK    7  A    between atoms: C_23  and  C_24
REMARK                            x       y       z     vdW  Elec       q    Type
REMARK                         _______ _______ _______ _____ _____    ______ ____
ROOT
ATOM      1  C   UNL     1       8.091   8.085  18.056  0.00  0.00    +0.000 A 
ATOM      2  C   UNL     1       8.291   7.042  18.956  0.00  0.00    +0.000 A 
ATOM      3  C   UNL     1       7.429   5.941  18.988  0.00  0.00    +0.000 A 
ATOM      4  C   UNL     1       6.337   5.838  18.117  0.00  0.00    +0.000 A 
ATOM      5  C   UNL     1       6.100   6.891  17.211  0.00  0.00    +0.000 A 
ATOM      6  C   UNL     1       4.961   6.930  16.229  0.00  0.00    +0.000 C 
ATOM      7  C   UNL     1       6.972   8.004  17.211  0.00  0.00    +0.000 A 
ENDROOT
BRANCH   4   8
ATOM      8  N   UNL     1       5.457   4.724  18.170  0.00  0.00    +0.000 N 
ATOM      9  C   UNL     1       4.258   4.657  18.869  0.00  0.00    +0.000 C 
ATOM     10  O   UNL     1       3.882   5.511  19.665  0.00  0.00    +0.000 OA
ATOM     11  H   UNL     1       5.751   3.892  17.689  0.00  0.00    +0.000 HD
BRANCH   9  12
ATOM     12  C   UNL     1       3.458   3.472  18.613  0.00  0.00    +0.000 A 
ATOM     13  C   UNL     1       2.409   3.232  17.738  0.00  0.00    +0.000 A 
ATOM     14  C   UNL     1       2.026   1.897  17.960  0.00  0.00    +0.000 A 
ATOM     15  N   UNL     1       2.769   1.311  18.895  0.00  0.00    +0.000 NA
ATOM     16  N   UNL     1       3.629   2.273  19.280  0.00  0.00    +0.000 N 
ATOM     17  C   UNL     1       4.589   1.965  20.320  0.00  0.00    +0.000 C 
ENDBRANCH   9  12
ENDBRANCH   4   8
BRANCH   1  19
ATOM     18  N   UNL     1       8.426  10.274  18.040  0.00  0.00    +0.000 NA
ATOM     19  N   UNL     1       8.997   9.167  18.090  0.00  0.00    +0.000 NA
BRANCH  18  26
ATOM     20  C   UNL     1       7.699  13.073  17.208  0.00  0.00    +0.000 C 
ATOM     21  C   UNL     1       9.037  12.678  17.771  0.00  0.00    +0.000 A 
ATOM     22  C   UNL     1      10.048  13.654  17.849  0.00  0.00    +0.000 A 
ATOM     23  C   UNL     1      11.310  13.338  18.349  0.00  0.00    +0.000 A 
ATOM     24  C   UNL     1      11.575  12.050  18.800  0.00  0.00    +0.000 A 
ATOM     25  C   UNL     1      10.579  11.074  18.733  0.00  0.00    +0.000 A 
ATOM     26  C   UNL     1       9.306  11.364  18.215  0.00  0.00    +0.000 A 
ENDBRANCH  18  26
ENDBRANCH   1  19
TORSDOF 4
ENDMDL
MODEL 5
REMARK VINA RESULT:      -7.4      6.681      9.015
REMARK  Name = 
REMARK  7 active torsions:
REMARK  status: ('A' for Active; 'I' for Inactive)
REMARK    1  A    between atoms: C_1  and  C_2
REMARK    2  A    between atoms: C_7  and  N_8
REMARK    3  A    between atoms: N_9  and  C_10
REMARK    4  A    between atoms: C_13  and  N_14
REMARK    5  A    between atoms: C_15  and  C_17
REMARK    6  A    between atoms: N_21  and  C_22
REMARK    7  A    between atoms: C_23  and  C_24
REMARK                            x       y       z     vdW  Elec       q    Type
REMARK                         _______ _______ _______ _____ _____    ______ ____
ROOT
ATOM      1  C   UNL     1       2.430   7.713  18.611  0.00  0.00    +0.000 A 
ATOM      2  C   UNL     1       2.042   8.757  17.777  0.00  0.00    +0.000 A 
ATOM      3  C   UNL     1       1.237   9.798  18.251  0.00  0.00    +0.000 A 
ATOM      4  C   UNL     1       0.794   9.837  19.579  0.00  0.00    +0.000 A 
ATOM      5  C   UNL     1       1.157   8.781  20.438  0.00  0.00    +0.000 A 
ATOM      6  C   UNL     1       0.744   8.677  21.882  0.00  0.00    +0.000 C 
ATOM      7  C   UNL     1       1.953   7.728  19.931  0.00  0.00    +0.000 A 
ENDROOT
BRANCH   4   8
ATOM      8  N   UNL     1      -0.038  10.889  20.046  0.00  0.00    +0.000 N 
ATOM      9  C   UNL     1       0.383  12.041  20.700  0.00  0.00    +0.000 C 
ATOM     10  O   UNL     1       1.528  12.221  21.099  0.00  0.00    +0.000 OA
ATOM     11  H   UNL     1      -1.029  10.769  19.927  0.00  0.00    +0.000 HD
BRANCH   9  12
ATOM     12  C   UNL     1      -0.647  13.045  20.909  0.00  0.00    +0.000 A 
ATOM     13  C   UNL     1      -0.987  14.187  20.201  0.00  0.00    +0.000 A 
ATOM     14  C   UNL     1      -2.059  14.766  20.903  0.00  0.00    +0.000 A 
ATOM     15  N   UNL     1      -2.396  14.057  21.977  0.00  0.00    +0.000 NA
ATOM     16  N   UNL     1      -1.536  13.021  21.967  0.00  0.00    +0.000 N 
ATOM     17  C   UNL     1      -1.621  12.042  23.033  0.00  0.00    +0.000 C 
ENDBRANCH   9  12
ENDBRANCH   4   8
BRANCH   1  19
ATOM     18  N   UNL     1       4.245   7.139  17.479  0.00  0.00    +0.000 NA
ATOM     19  N   UNL     1       3.236   6.693  18.058  0.00  0.00    +0.000 NA
BRANCH  18  26
ATOM     20  C   UNL     1       7.230   7.516  17.473  0.00  0.00    +0.000 C 
ATOM     21  C   UNL     1       6.532   6.289  16.955  0.00  0.00    +0.000 A 
ATOM     22  C   UNL     1       7.305   5.277  16.357  0.00  0.00    +0.000 A 
ATOM     23  C   UNL     1       6.708   4.125  15.848  0.00  0.00    +0.000 A 
ATOM     24  C   UNL     1       5.331   3.956  15.948  0.00  0.00    +0.000 A 
ATOM     25  C   UNL     1       4.553   4.951  16.543  0.00  0.00    +0.000 A 
ATOM     26  C   UNL     1       5.131   6.128  17.046  0.00  0.00    +0.000 A 
ENDBRANCH  18  26
ENDBRANCH   1  19
TORSDOF 4
ENDMDL
MODEL 6
REMARK VINA RESULT:      -7.4      6.633      9.055
REMARK  Name = 
REMARK  7 active torsions:
REMARK  status: ('A' for Active; 'I' for Inactive)
REMARK    1  A    between atoms: C_1  and  C_2
REMARK    2  A    between atoms: C_7  and  N_8
REMARK    3  A    between atoms: N_9  and  C_10
REMARK    4  A    between atoms: C_13  and  N_14
REMARK    5  A    between atoms: C_15  and  C_17
REMARK    6  A    between atoms: N_21  and  C_22
REMARK    7  A    between atoms: C_23  and  C_24
REMARK                            x       y       z     vdW  Elec       q    Type
REMARK                         _______ _______ _______ _____ _____    ______ ____
ROOT
ATOM      1  C   UNL     1       2.396   7.781  18.557  0.00  0.00    +0.000 A 
ATOM      2  C   UNL     1       1.990   8.852  17.765  0.00  0.00    +0.000 A 
ATOM      3  C   UNL     1       1.212   9.886  18.295  0.00  0.00    +0.000 A 
ATOM      4  C   UNL     1       0.817   9.894  19.639  0.00  0.00    +0.000 A 
ATOM      5  C   UNL     1       1.198   8.811  20.456  0.00  0.00    +0.000 A 
ATOM      6  C   UNL     1       0.836   8.672  21.910  0.00  0.00    +0.000 C 
ATOM      7  C   UNL     1       1.966   7.765  19.893  0.00  0.00    +0.000 A 
ENDROOT
BRANCH   4   8
ATOM      8  N   UNL     1       0.012  10.940  20.162  0.00  0.00    +0.000 N 
ATOM      9  C   UNL     1       0.470  12.098  20.780  0.00  0.00    +0.000 C 
ATOM     10  O   UNL     1       1.640  12.289  21.093  0.00  0.00    +0.000 OA
ATOM     11  H   UNL     1      -0.984  10.811  20.117  0.00  0.00    +0.000 HD
BRANCH   9  12
ATOM     12  C   UNL     1      -0.550  13.094  21.062  0.00  0.00    +0.000 A 
ATOM     13  C   UNL     1      -1.420  13.255  22.130  0.00  0.00    +0.000 A 
ATOM     14  C   UNL     1      -2.187  14.394  21.828  0.00  0.00    +0.000 A 
ATOM     15  N   UNL     1      -1.841  14.937  20.663  0.00  0.00    +0.000 NA
ATOM     16  N   UNL     1      -0.852  14.142  20.213  0.00  0.00    +0.000 N 
ATOM     17  C   UNL     1      -0.248  14.449  18.932  0.00  0.00    +0.000 C 
ENDBRANCH   9  12
ENDBRANCH   4   8
BRANCH   1  19
ATOM     18  N   UNL     1       4.298   7.172  17.598  0.00  0.00    +0.000 NA
ATOM     19  N   UNL     1       3.172   6.769  17.949  0.00  0.00    +0.000 NA
BRANCH  18  26
ATOM     20  C   UNL     1       7.288   7.473  17.446  0.00  0.00    +0.000 C 
ATOM     21  C   UNL     1       6.533   6.266  16.960  0.00  0.00    +0.000 A 
ATOM     22  C   UNL     1       7.250   5.236  16.323  0.00  0.00    +0.000 A 
ATOM     23  C   UNL     1       6.598   4.102  15.841  0.00  0.00    +0.000 A 
ATOM     24  C   UNL     1       5.224   3.969  16.009  0.00  0.00    +0.000 A 
ATOM     25  C   UNL     1       4.502   4.981  16.644  0.00  0.00    +0.000 A 
ATOM     26  C   UNL     1       5.135   6.141  17.120  0.00  0.00    +0.000 A 
ENDBRANCH  18  26
ENDBRANCH   1  19
TORSDOF 4
ENDMDL
MODEL 7
REMARK VINA RESULT:      -7.3      5.893      8.303
REMARK  Name = 
REMARK  7 active torsions:
REMARK  status: ('A' for Active; 'I' for Inactive)
REMARK    1  A    between atoms: C_1  and  C_2
REMARK    2  A    between atoms: C_7  and  N_8
REMARK    3  A    between atoms: N_9  and  C_10
REMARK    4  A    between atoms: C_13  and  N_14
REMARK    5  A    between atoms: C_15  and  C_17
REMARK    6  A    between atoms: N_21  and  C_22
REMARK    7  A    between atoms: C_23  and  C_24
REMARK                            x       y       z     vdW  Elec       q    Type
REMARK                         _______ _______ _______ _____ _____    ______ ____
ROOT
ATOM      1  C   UNL     1       1.281   8.580  19.909  0.00  0.00    +0.000 A 
ATOM      2  C   UNL     1       1.619   9.090  18.659  0.00  0.00    +0.000 A 
ATOM      3  C   UNL     1       2.467   8.386  17.799  0.00  0.00    +0.000 A 
ATOM      4  C   UNL     1       3.005   7.141  18.152  0.00  0.00    +0.000 A 
ATOM      5  C   UNL     1       2.693   6.613  19.421  0.00  0.00    +0.000 A 
ATOM      6  C   UNL     1       3.206   5.300  19.946  0.00  0.00    +0.000 C 
ATOM      7  C   UNL     1       1.851   7.353  20.283  0.00  0.00    +0.000 A 
ENDROOT
BRANCH   4   8
ATOM      8  N   UNL     1       3.879   6.443  17.278  0.00  0.00    +0.000 N 
ATOM      9  C   UNL     1       5.227   6.715  17.075  0.00  0.00    +0.000 C 
ATOM     10  O   UNL     1       5.799   7.705  17.518  0.00  0.00    +0.000 OA
ATOM     11  H   UNL     1       3.473   5.709  16.723  0.00  0.00    +0.000 HD
BRANCH   9  12
ATOM     12  C   UNL     1       5.939   5.739  16.267  0.00  0.00    +0.000 A 
ATOM     13  C   UNL     1       5.770   5.318  14.957  0.00  0.00    +0.000 A 
ATOM     14  C   UNL     1       6.753   4.335  14.743  0.00  0.00    +0.000 A 
ATOM     15  N   UNL     1       7.507   4.137  15.821  0.00  0.00    +0.000 NA
ATOM     16  N   UNL     1       7.005   4.992  16.733  0.00  0.00    +0.000 N 
ATOM     17  C   UNL     1       7.601   5.021  18.053  0.00  0.00    +0.000 C 
ENDBRANCH   9  12
ENDBRANCH   4   8
BRANCH   1  19
ATOM     18  N   UNL     1       0.146  10.457  20.220  0.00  0.00    +0.000 NA
ATOM     19  N   UNL     1       0.427   9.353  20.727  0.00  0.00    +0.000 NA
BRANCH  18  26
ATOM     20  C   UNL     1      -2.003  12.087  18.888  0.00  0.00    +0.000 C 
ATOM     21  C   UNL     1      -1.794  12.017  20.376  0.00  0.00    +0.000 A 
ATOM     22  C   UNL     1      -2.600  12.818  21.206  0.00  0.00    +0.000 A 
ATOM     23  C   UNL     1      -2.439  12.803  22.591  0.00  0.00    +0.000 A 
ATOM     24  C   UNL     1      -1.487  11.970  23.168  0.00  0.00    +0.000 A 
ATOM     25  C   UNL     1      -0.686  11.166  22.356  0.00  0.00    +0.000 A 
ATOM     26  C   UNL     1      -0.816  11.180  20.958  0.00  0.00    +0.000 A 
ENDBRANCH  18  26
ENDBRANCH   1  19
TORSDOF 4
ENDMDL
MODEL 8
REMARK VINA RESULT:      -7.3      7.351      9.959
REMARK  Name = 
REMARK  7 active torsions:
REMARK  status: ('A' for Active; 'I' for Inactive)
REMARK    1  A    between atoms: C_1  and  C_2
REMARK    2  A    between atoms: C_7  and  N_8
REMARK    3  A    between atoms: N_9  and  C_10
REMARK    4  A    between atoms: C_13  and  N_14
REMARK    5  A    between atoms: C_15  and  C_17
REMARK    6  A    between atoms: N_21  and  C_22
REMARK    7  A    between atoms: C_23  and  C_24
REMARK                            x       y       z     vdW  Elec       q    Type
REMARK                         _______ _______ _______ _____ _____    ______ ____
ROOT
ATOM      1  C   UNL     1       1.731   8.715  19.082  0.00  0.00    +0.000 A 
ATOM      2  C   UNL     1       1.322   8.347  20.360  0.00  0.00    +0.000 A 
ATOM      3  C   UNL     1       0.410   9.126  21.078  0.00  0.00    +0.000 A 
ATOM      4  C   UNL     1      -0.135  10.301  20.542  0.00  0.00    +0.000 A 
ATOM      5  C   UNL     1       0.278  10.705  19.257  0.00  0.00    +0.000 A 
ATOM      6  C   UNL     1      -0.204  11.947  18.559  0.00  0.00    +0.000 C 
ATOM      7  C   UNL     1       1.219   9.913  18.559  0.00  0.00    +0.000 A 
ENDROOT
BRANCH   4   8
ATOM      8  N   UNL     1      -1.047  11.094  21.287  0.00  0.00    +0.000 N 
ATOM      9  C   UNL     1      -1.029  11.295  22.662  0.00  0.00    +0.000 C 
ATOM     10  O   UNL     1      -0.303  10.677  23.433  0.00  0.00    +0.000 OA
ATOM     11  H   UNL     1      -1.802  11.517  20.774  0.00  0.00    +0.000 HD
BRANCH   9  12
ATOM     12  C   UNL     1      -1.961  12.296  23.153  0.00  0.00    +0.000 A 
ATOM     13  C   UNL     1      -3.238  12.194  23.682  0.00  0.00    +0.000 A 
ATOM     14  C   UNL     1      -3.642  13.512  23.959  0.00  0.00    +0.000 A 
ATOM     15  N   UNL     1      -2.704  14.401  23.645  0.00  0.00    +0.000 NA
ATOM     16  N   UNL     1      -1.695  13.652  23.160  0.00  0.00    +0.000 N 
ATOM     17  C   UNL     1      -0.495  14.324  22.701  0.00  0.00    +0.000 C 
ENDBRANCH   9  12
ENDBRANCH   4   8
BRANCH   1  19
ATOM     18  N   UNL     1       2.377   6.672  18.518  0.00  0.00    +0.000 NA
ATOM     19  N   UNL     1       2.662   7.882  18.423  0.00  0.00    +0.000 NA
BRANCH  18  26
ATOM     20  C   UNL     1       1.768   3.762  18.059  0.00  0.00    +0.000 C 
ATOM     21  C   UNL     1       3.010   4.453  17.569  0.00  0.00    +0.000 A 
ATOM     22  C   UNL     1       3.995   3.687  16.919  0.00  0.00    +0.000 A 
ATOM     23  C   UNL     1       5.172   4.274  16.458  0.00  0.00    +0.000 A 
ATOM     24  C   UNL     1       5.373   5.640  16.618  0.00  0.00    +0.000 A 
ATOM     25  C   UNL     1       4.402   6.414  17.257  0.00  0.00    +0.000 A 
ATOM     26  C   UNL     1       3.217   5.840  17.747  0.00  0.00    +0.000 A 
ENDBRANCH  18  26
ENDBRANCH   1  19
TORSDOF 4
ENDMDL
MODEL 9
REMARK VINA RESULT:      -7.3      6.393      8.629
REMARK  Name = 
REMARK  7 active torsions:
REMARK  status: ('A' for Active; 'I' for Inactive)
REMARK    1  A    between atoms: C_1  and  C_2
REMARK    2  A    between atoms: C_7  and  N_8
REMARK    3  A    between atoms: N_9  and  C_10
REMARK    4  A    between atoms: C_13  and  N_14
REMARK    5  A    between atoms: C_15  and  C_17
REMARK    6  A    between atoms: N_21  and  C_22
REMARK    7  A    between atoms: C_23  and  C_24
REMARK                            x       y       z     vdW  Elec       q    Type
REMARK                         _______ _______ _______ _____ _____    ______ ____
ROOT
ATOM      1  C   UNL     1       2.595   7.852  18.196  0.00  0.00    +0.000 A 
ATOM      2  C   UNL     1       2.438   7.456  19.521  0.00  0.00    +0.000 A 
ATOM      3  C   UNL     1       1.516   8.089  20.360  0.00  0.00    +0.000 A 
ATOM      4  C   UNL     1       0.708   9.139  19.903  0.00  0.00    +0.000 A 
ATOM      5  C   UNL     1       0.861   9.572  18.571  0.00  0.00    +0.000 A 
ATOM      6  C   UNL     1       0.080  10.695  17.946  0.00  0.00    +0.000 C 
ATOM      7  C   UNL     1       1.817   8.932  17.748  0.00  0.00    +0.000 A 
ENDROOT
BRANCH   4   8
ATOM      8  N   UNL     1      -0.214   9.787  20.768  0.00  0.00    +0.000 N 
ATOM      9  C   UNL     1      -0.033  11.018  21.387  0.00  0.00    +0.000 C 
ATOM     10  O   UNL     1       1.026  11.635  21.385  0.00  0.00    +0.000 OA
ATOM     11  H   UNL     1      -1.059   9.287  20.985  0.00  0.00    +0.000 HD
BRANCH   9  12
ATOM     12  C   UNL     1      -1.201  11.541  22.075  0.00  0.00    +0.000 A 
ATOM     13  C   UNL     1      -1.674  11.366  23.366  0.00  0.00    +0.000 A 
ATOM     14  C   UNL     1      -2.863  12.112  23.442  0.00  0.00    +0.000 A 
ATOM     15  N   UNL     1      -3.140  12.731  22.297  0.00  0.00    +0.000 NA
ATOM     16  N   UNL     1      -2.129  12.378  21.482  0.00  0.00    +0.000 N 
ATOM     17  C   UNL     1      -2.130  12.879  20.122  0.00  0.00    +0.000 C 
ENDBRANCH   9  12
ENDBRANCH   4   8
BRANCH   1  19
ATOM     18  N   UNL     1       4.321   6.468  18.099  0.00  0.00    +0.000 NA
ATOM     19  N   UNL     1       3.554   7.172  17.414  0.00  0.00    +0.000 NA
BRANCH  18  26
ATOM     20  C   UNL     1       7.167   7.274  17.550  0.00  0.00    +0.000 C 
ATOM     21  C   UNL     1       6.509   6.050  16.976  0.00  0.00    +0.000 A 
ATOM     22  C   UNL     1       7.234   5.262  16.063  0.00  0.00    +0.000 A 
ATOM     23  C   UNL     1       6.668   4.125  15.490  0.00  0.00    +0.000 A 
ATOM     24  C   UNL     1       5.377   3.744  15.838  0.00  0.00    +0.000 A 
ATOM     25  C   UNL     1       4.648   4.513  16.747  0.00  0.00    +0.000 A 
ATOM     26  C   UNL     1       5.192   5.674  17.321  0.00  0.00    +0.000 A 
ENDBRANCH  18  26
ENDBRANCH   1  19
TORSDOF 4
ENDMDL
