MODEL 1
REMARK VINA RESULT:      -9.2      0.000      0.000
REMARK  Name = 
REMARK  5 active torsions:
REMARK  status: ('A' for Active; 'I' for Inactive)
REMARK    1  A    between atoms: C_2  and  C_4
REMARK    2  A    between atoms: C_6  and  C_7
REMARK    3  A    between atoms: C_12  and  O_13
REMARK    4  A    between atoms: N_19  and  C_20
REMARK    5  A    between atoms: C_20  and  C_21
REMARK                            x       y       z     vdW  Elec       q    Type
REMARK                         _______ _______ _______ _____ _____    ______ ____
ROOT
ATOM      1  C   UNL     1       7.070   6.393  17.308  0.00  0.00    +0.000 A 
ATOM      2  N   UNL     1       7.123   6.096  15.968  0.00  0.00    +0.000 NA
ATOM      3  C   UNL     1       6.472   4.997  15.527  0.00  0.00    +0.000 A 
ATOM      4  N   UNL     1       5.718   4.165  16.282  0.00  0.00    +0.000 NA
ATOM      5  C   UNL     1       5.694   4.507  17.576  0.00  0.00    +0.000 A 
ATOM      6  C   UNL     1       6.338   5.579  18.173  0.00  0.00    +0.000 A 
ATOM      7  N   UNL     1       6.095   5.568  19.532  0.00  0.00    +0.000 NA
ATOM      8  C   UNL     1       5.328   4.521  19.747  0.00  0.00    +0.000 A 
ATOM      9  N   UNL     1       5.042   3.854  18.588  0.00  0.00    +0.000 N 
ENDROOT
BRANCH   3  10
ATOM     10  C   UNL     1       6.552   4.614  14.100  0.00  0.00    +0.000 A 
ATOM     11  C   UNL     1       5.592   3.711  13.581  0.00  0.00    +0.000 A 
ATOM     12  C   UNL     1       5.663   3.213  12.280  0.00  0.00    +0.000 A 
ATOM     13  C   UNL     1       6.698   3.614  11.447  0.00  0.00    +0.000 A 
ATOM     14  C   UNL     1       7.651   4.518  11.914  0.00  0.00    +0.000 A 
ATOM     15  C   UNL     1       7.578   5.012  13.225  0.00  0.00    +0.000 A 
BRANCH  15  16
ATOM     16  O   UNL     1       8.564   5.861  13.655  0.00  0.00    +0.000 OA
ATOM     17  H   UNL     1       8.436   6.055  14.597  0.00  0.00    +0.000 HD
ENDBRANCH  15  16
ENDBRANCH   3  10
BRANCH   1  19
ATOM     18  N   UNL     1       8.523   7.412  18.960  0.00  0.00    +0.000 N 
ATOM     19  C   UNL     1       7.826   7.584  17.790  0.00  0.00    +0.000 C 
ATOM     20  O   UNL     1       7.848   8.662  17.215  0.00  0.00    +0.000 OA
ATOM     21  H   UNL     1       9.028   8.195  19.341  0.00  0.00    +0.000 HD
ATOM     22  H   UNL     1       8.476   6.531  19.458  0.00  0.00    +0.000 HD
ENDBRANCH   1  19
BRANCH   9  23
ATOM     23  C   UNL     1       4.337   2.589  18.491  0.00  0.00    +0.000 C 
BRANCH  23  24
ATOM     24  C   UNL     1       2.950   2.619  19.091  0.00  0.00    +0.000 A 
ATOM     25  C   UNL     1       2.762   2.714  20.478  0.00  0.00    +0.000 A 
ATOM     26  C   UNL     1       1.480   2.833  21.020  0.00  0.00    +0.000 A 
ATOM     27  C   UNL     1       0.367   2.870  20.183  0.00  0.00    +0.000 A 
ATOM     28  C   UNL     1       0.535   2.774  18.804  0.00  0.00    +0.000 A 
ATOM     29  C   UNL     1       1.817   2.646  18.260  0.00  0.00    +0.000 A 
ENDBRANCH  23  24
ENDBRANCH   9  23
TORSDOF 5
ENDMDL
MODEL 2
REMARK VINA RESULT:      -8.6      2.168      6.725
REMARK  Name = 
REMARK  5 active torsions:
REMARK  status: ('A' for Active; 'I' for Inactive)
REMARK    1  A    between atoms: C_2  and  C_4
REMARK    2  A    between atoms: C_6  and  C_7
REMARK    3  A    between atoms: C_12  and  O_13
REMARK    4  A    between atoms: N_19  and  C_20
REMARK    5  A    between atoms: C_20  and  C_21
REMARK                            x       y       z     vdW  Elec       q    Type
REMARK                         _______ _______ _______ _____ _____    ______ ____
ROOT
ATOM      1  C   UNL     1       6.443   5.199  18.132  0.00  0.00    +0.000 A 
ATOM      2  N   UNL     1       5.294   4.723  18.714  0.00  0.00    +0.000 NA
ATOM      3  C   UNL     1       4.327   4.222  17.913  0.00  0.00    +0.000 A 
ATOM      4  N   UNL     1       4.398   4.096  16.567  0.00  0.00    +0.000 NA
ATOM      5  C   UNL     1       5.542   4.566  16.056  0.00  0.00    +0.000 A 
ATOM      6  C   UNL     1       6.599   5.136  16.747  0.00  0.00    +0.000 A 
ATOM      7  N   UNL     1       7.578   5.527  15.856  0.00  0.00    +0.000 NA
ATOM      8  C   UNL     1       7.125   5.202  14.664  0.00  0.00    +0.000 A 
ATOM      9  N   UNL     1       5.899   4.600  14.735  0.00  0.00    +0.000 N 
ENDROOT
BRANCH   3  10
ATOM     10  C   UNL     1       3.052   3.752  18.499  0.00  0.00    +0.000 A 
ATOM     11  C   UNL     1       2.272   4.661  19.255  0.00  0.00    +0.000 A 
ATOM     12  C   UNL     1       1.117   4.268  19.933  0.00  0.00    +0.000 A 
ATOM     13  C   UNL     1       0.697   2.947  19.865  0.00  0.00    +0.000 A 
ATOM     14  C   UNL     1       1.426   2.027  19.112  0.00  0.00    +0.000 A 
ATOM     15  C   UNL     1       2.589   2.426  18.436  0.00  0.00    +0.000 A 
BRANCH  15  16
ATOM     16  O   UNL     1       3.298   1.476  17.749  0.00  0.00    +0.000 OA
ATOM     17  H   UNL     1       4.202   1.796  17.596  0.00  0.00    +0.000 HD
ENDBRANCH  15  16
ENDBRANCH   3  10
BRANCH   1  19
ATOM     18  N   UNL     1       8.097   6.921  18.548  0.00  0.00    +0.000 N 
ATOM     19  C   UNL     1       7.484   5.788  19.021  0.00  0.00    +0.000 C 
ATOM     20  O   UNL     1       7.804   5.324  20.106  0.00  0.00    +0.000 OA
ATOM     21  H   UNL     1       8.827   7.342  19.100  0.00  0.00    +0.000 HD
ATOM     22  H   UNL     1       7.861   7.287  17.633  0.00  0.00    +0.000 HD
ENDBRANCH   1  19
BRANCH   9  23
ATOM     23  C   UNL     1       5.066   4.242  13.600  0.00  0.00    +0.000 C 
BRANCH  23  24
ATOM     24  C   UNL     1       5.774   3.392  12.570  0.00  0.00    +0.000 A 
ATOM     25  C   UNL     1       7.115   3.631  12.232  0.00  0.00    +0.000 A 
ATOM     26  C   UNL     1       7.790   2.786  11.347  0.00  0.00    +0.000 A 
ATOM     27  C   UNL     1       7.139   1.684  10.796  0.00  0.00    +0.000 A 
ATOM     28  C   UNL     1       5.808   1.434  11.121  0.00  0.00    +0.000 A 
ATOM     29  C   UNL     1       5.128   2.283  11.999  0.00  0.00    +0.000 A 
ENDBRANCH  23  24
ENDBRANCH   9  23
TORSDOF 5
ENDMDL
MODEL 3
REMARK VINA RESULT:      -8.6      1.967      6.685
REMARK  Name = 
REMARK  5 active torsions:
REMARK  status: ('A' for Active; 'I' for Inactive)
REMARK    1  A    between atoms: C_2  and  C_4
REMARK    2  A    between atoms: C_6  and  C_7
REMARK    3  A    between atoms: C_12  and  O_13
REMARK    4  A    between atoms: N_19  and  C_20
REMARK    5  A    between atoms: C_20  and  C_21
REMARK                            x       y       z     vdW  Elec       q    Type
REMARK                         _______ _______ _______ _____ _____    ______ ____
ROOT
ATOM      1  C   UNL     1       6.487   5.240  18.249  0.00  0.00    +0.000 A 
ATOM      2  N   UNL     1       5.350   4.758  18.850  0.00  0.00    +0.000 NA
ATOM      3  C   UNL     1       4.369   4.263  18.065  0.00  0.00    +0.000 A 
ATOM      4  N   UNL     1       4.412   4.148  16.717  0.00  0.00    +0.000 NA
ATOM      5  C   UNL     1       5.545   4.623  16.187  0.00  0.00    +0.000 A 
ATOM      6  C   UNL     1       6.615   5.189  16.861  0.00  0.00    +0.000 A 
ATOM      7  N   UNL     1       7.577   5.589  15.954  0.00  0.00    +0.000 NA
ATOM      8  C   UNL     1       7.099   5.273  14.769  0.00  0.00    +0.000 A 
ATOM      9  N   UNL     1       5.876   4.669  14.859  0.00  0.00    +0.000 N 
ENDROOT
BRANCH   3  10
ATOM     10  C   UNL     1       3.105   3.787  18.671  0.00  0.00    +0.000 A 
ATOM     11  C   UNL     1       2.418   2.710  18.060  0.00  0.00    +0.000 A 
ATOM     12  C   UNL     1       1.168   2.276  18.502  0.00  0.00    +0.000 A 
ATOM     13  C   UNL     1       0.567   2.902  19.585  0.00  0.00    +0.000 A 
ATOM     14  C   UNL     1       1.222   3.952  20.227  0.00  0.00    +0.000 A 
ATOM     15  C   UNL     1       2.477   4.388  19.776  0.00  0.00    +0.000 A 
BRANCH  15  16
ATOM     16  O   UNL     1       3.060   5.454  20.409  0.00  0.00    +0.000 OA
ATOM     17  H   UNL     1       2.880   5.402  21.362  0.00  0.00    +0.000 HD
ENDBRANCH  15  16
ENDBRANCH   3  10
BRANCH   1  19
ATOM     18  N   UNL     1       8.196   6.920  18.616  0.00  0.00    +0.000 N 
ATOM     19  C   UNL     1       7.545   5.823  19.122  0.00  0.00    +0.000 C 
ATOM     20  O   UNL     1       7.849   5.382  20.222  0.00  0.00    +0.000 OA
ATOM     21  H   UNL     1       8.938   7.334  19.157  0.00  0.00    +0.000 HD
ATOM     22  H   UNL     1       7.973   7.265  17.690  0.00  0.00    +0.000 HD
ENDBRANCH   1  19
BRANCH   9  23
ATOM     23  C   UNL     1       5.021   4.320  13.738  0.00  0.00    +0.000 C 
BRANCH  23  24
ATOM     24  C   UNL     1       5.713   3.493  12.680  0.00  0.00    +0.000 A 
ATOM     25  C   UNL     1       7.056   3.723  12.343  0.00  0.00    +0.000 A 
ATOM     26  C   UNL     1       7.715   2.896  11.430  0.00  0.00    +0.000 A 
ATOM     27  C   UNL     1       7.047   1.821  10.849  0.00  0.00    +0.000 A 
ATOM     28  C   UNL     1       5.714   1.579  11.171  0.00  0.00    +0.000 A 
ATOM     29  C   UNL     1       5.049   2.411  12.077  0.00  0.00    +0.000 A 
ENDBRANCH  23  24
ENDBRANCH   9  23
TORSDOF 5
ENDMDL
MODEL 4
REMARK VINA RESULT:      -8.6      4.216      7.687
REMARK  Name = 
REMARK  5 active torsions:
REMARK  status: ('A' for Active; 'I' for Inactive)
REMARK    1  A    between atoms: C_2  and  C_4
REMARK    2  A    between atoms: C_6  and  C_7
REMARK    3  A    between atoms: C_12  and  O_13
REMARK    4  A    between atoms: N_19  and  C_20
REMARK    5  A    between atoms: C_20  and  C_21
REMARK                            x       y       z     vdW  Elec       q    Type
REMARK                         _______ _______ _______ _____ _____    ______ ____
ROOT
ATOM      1  C   UNL     1       2.270   4.428  20.321  0.00  0.00    +0.000 A 
ATOM      2  N   UNL     1       1.793   5.707  20.468  0.00  0.00    +0.000 NA
ATOM      3  C   UNL     1       2.265   6.668  19.643  0.00  0.00    +0.000 A 
ATOM      4  N   UNL     1       3.146   6.484  18.632  0.00  0.00    +0.000 NA
ATOM      5  C   UNL     1       3.569   5.218  18.530  0.00  0.00    +0.000 A 
ATOM      6  C   UNL     1       3.202   4.143  19.323  0.00  0.00    +0.000 A 
ATOM      7  N   UNL     1       3.887   3.014  18.920  0.00  0.00    +0.000 NA
ATOM      8  C   UNL     1       4.643   3.398  17.914  0.00  0.00    +0.000 A 
ATOM      9  N   UNL     1       4.473   4.724  17.628  0.00  0.00    +0.000 N 
ENDROOT
BRANCH   3  10
ATOM     10  C   UNL     1       1.817   8.069  19.807  0.00  0.00    +0.000 A 
ATOM     11  C   UNL     1       1.374   8.499  21.082  0.00  0.00    +0.000 A 
ATOM     12  C   UNL     1       0.832   9.767  21.295  0.00  0.00    +0.000 A 
ATOM     13  C   UNL     1       0.725  10.655  20.233  0.00  0.00    +0.000 A 
ATOM     14  C   UNL     1       1.169  10.276  18.967  0.00  0.00    +0.000 A 
ATOM     15  C   UNL     1       1.710   8.998  18.758  0.00  0.00    +0.000 A 
BRANCH  15  16
ATOM     16  O   UNL     1       2.089   8.654  17.486  0.00  0.00    +0.000 OA
ATOM     17  H   UNL     1       1.947   7.703  17.353  0.00  0.00    +0.000 HD
ENDBRANCH  15  16
ENDBRANCH   3  10
BRANCH   1  19
ATOM     18  N   UNL     1       0.588   2.788  20.921  0.00  0.00    +0.000 N 
ATOM     19  C   UNL     1       1.775   3.385  21.264  0.00  0.00    +0.000 C 
ATOM     20  O   UNL     1       2.354   3.055  22.289  0.00  0.00    +0.000 OA
ATOM     21  H   UNL     1       0.198   2.096  21.540  0.00  0.00    +0.000 HD
ATOM     22  H   UNL     1       0.087   3.086  20.092  0.00  0.00    +0.000 HD
ENDBRANCH   1  19
BRANCH   9  23
ATOM     23  C   UNL     1       5.251   5.489  16.670  0.00  0.00    +0.000 C 
BRANCH  23  24
ATOM     24  C   UNL     1       6.394   6.258  17.291  0.00  0.00    +0.000 A 
ATOM     25  C   UNL     1       6.641   7.595  16.944  0.00  0.00    +0.000 A 
ATOM     26  C   UNL     1       7.642   8.327  17.588  0.00  0.00    +0.000 A 
ATOM     27  C   UNL     1       8.402   7.739  18.596  0.00  0.00    +0.000 A 
ATOM     28  C   UNL     1       8.171   6.412  18.951  0.00  0.00    +0.000 A 
ATOM     29  C   UNL     1       7.176   5.674  18.302  0.00  0.00    +0.000 A 
ENDBRANCH  23  24
ENDBRANCH   9  23
TORSDOF 5
ENDMDL
MODEL 5
REMARK VINA RESULT:      -8.5      1.975      6.650
REMARK  Name = 
REMARK  5 active torsions:
REMARK  status: ('A' for Active; 'I' for Inactive)
REMARK    1  A    between atoms: C_2  and  C_4
REMARK    2  A    between atoms: C_6  and  C_7
REMARK    3  A    between atoms: C_12  and  O_13
REMARK    4  A    between atoms: N_19  and  C_20
REMARK    5  A    between atoms: C_20  and  C_21
REMARK                            x       y       z     vdW  Elec       q    Type
REMARK                         _______ _______ _______ _____ _____    ______ ____
ROOT
ATOM      1  C   UNL     1       6.681   5.358  17.824  0.00  0.00    +0.000 A 
ATOM      2  N   UNL     1       5.629   4.760  18.474  0.00  0.00    +0.000 NA
ATOM      3  C   UNL     1       4.676   4.154  17.733  0.00  0.00    +0.000 A 
ATOM      4  N   UNL     1       4.676   4.032  16.385  0.00  0.00    +0.000 NA
ATOM      5  C   UNL     1       5.728   4.623  15.805  0.00  0.00    +0.000 A 
ATOM      6  C   UNL     1       6.757   5.308  16.432  0.00  0.00    +0.000 A 
ATOM      7  N   UNL     1       7.631   5.802  15.483  0.00  0.00    +0.000 NA
ATOM      8  C   UNL     1       7.142   5.426  14.321  0.00  0.00    +0.000 A 
ATOM      9  N   UNL     1       5.997   4.693  14.465  0.00  0.00    +0.000 N 
ENDROOT
BRANCH   3  10
ATOM     10  C   UNL     1       3.499   3.548  18.394  0.00  0.00    +0.000 A 
ATOM     11  C   UNL     1       2.204   3.953  17.987  0.00  0.00    +0.000 A 
ATOM     12  C   UNL     1       1.048   3.516  18.634  0.00  0.00    +0.000 A 
ATOM     13  C   UNL     1       1.151   2.644  19.710  0.00  0.00    +0.000 A 
ATOM     14  C   UNL     1       2.407   2.206  20.126  0.00  0.00    +0.000 A 
ATOM     15  C   UNL     1       3.567   2.652  19.474  0.00  0.00    +0.000 A 
BRANCH  15  16
ATOM     16  O   UNL     1       4.781   2.231  19.951  0.00  0.00    +0.000 OA
ATOM     17  H   UNL     1       4.805   1.261  19.961  0.00  0.00    +0.000 HD
ENDBRANCH  15  16
ENDBRANCH   3  10
BRANCH   1  19
ATOM     18  N   UNL     1       8.172   5.364  19.735  0.00  0.00    +0.000 N 
ATOM     19  C   UNL     1       7.704   6.060  18.649  0.00  0.00    +0.000 C 
ATOM     20  O   UNL     1       8.124   7.184  18.413  0.00  0.00    +0.000 OA
ATOM     21  H   UNL     1       8.845   5.807  20.340  0.00  0.00    +0.000 HD
ATOM     22  H   UNL     1       7.799   4.448  19.955  0.00  0.00    +0.000 HD
ENDBRANCH   1  19
BRANCH   9  23
ATOM     23  C   UNL     1       5.140   4.243  13.383  0.00  0.00    +0.000 C 
BRANCH  23  24
ATOM     24  C   UNL     1       5.830   3.320  12.404  0.00  0.00    +0.000 A 
ATOM     25  C   UNL     1       7.183   3.492  12.077  0.00  0.00    +0.000 A 
ATOM     26  C   UNL     1       7.838   2.582  11.243  0.00  0.00    +0.000 A 
ATOM     27  C   UNL     1       7.154   1.482  10.732  0.00  0.00    +0.000 A 
ATOM     28  C   UNL     1       5.809   1.298  11.045  0.00  0.00    +0.000 A 
ATOM     29  C   UNL     1       5.149   2.212  11.872  0.00  0.00    +0.000 A 
ENDBRANCH  23  24
ENDBRANCH   9  23
TORSDOF 5
ENDMDL
MODEL 6
REMARK VINA RESULT:      -8.5      4.213      7.557
REMARK  Name = 
REMARK  5 active torsions:
REMARK  status: ('A' for Active; 'I' for Inactive)
REMARK    1  A    between atoms: C_2  and  C_4
REMARK    2  A    between atoms: C_6  and  C_7
REMARK    3  A    between atoms: C_12  and  O_13
REMARK    4  A    between atoms: N_19  and  C_20
REMARK    5  A    between atoms: C_20  and  C_21
REMARK                            x       y       z     vdW  Elec       q    Type
REMARK                         _______ _______ _______ _____ _____    ______ ____
ROOT
ATOM      1  C   UNL     1       2.293   4.353  20.213  0.00  0.00    +0.000 A 
ATOM      2  N   UNL     1       1.807   5.637  20.172  0.00  0.00    +0.000 NA
ATOM      3  C   UNL     1       2.341   6.499  19.280  0.00  0.00    +0.000 A 
ATOM      4  N   UNL     1       3.297   6.207  18.368  0.00  0.00    +0.000 NA
ATOM      5  C   UNL     1       3.726   4.941  18.446  0.00  0.00    +0.000 A 
ATOM      6  C   UNL     1       3.299   3.963  19.329  0.00  0.00    +0.000 A 
ATOM      7  N   UNL     1       4.012   2.800  19.114  0.00  0.00    +0.000 NA
ATOM      8  C   UNL     1       4.844   3.071  18.131  0.00  0.00    +0.000 A 
ATOM      9  N   UNL     1       4.697   4.353  17.680  0.00  0.00    +0.000 N 
ENDROOT
BRANCH   3  10
ATOM     10  C   UNL     1       1.882   7.906  19.244  0.00  0.00    +0.000 A 
ATOM     11  C   UNL     1       1.963   8.620  18.023  0.00  0.00    +0.000 A 
ATOM     12  C   UNL     1       1.657   9.978  17.931  0.00  0.00    +0.000 A 
ATOM     13  C   UNL     1       1.248  10.668  19.064  0.00  0.00    +0.000 A 
ATOM     14  C   UNL     1       1.136   9.995  20.280  0.00  0.00    +0.000 A 
ATOM     15  C   UNL     1       1.448   8.630  20.368  0.00  0.00    +0.000 A 
BRANCH  15  16
ATOM     16  O   UNL     1       1.369   8.024  21.595  0.00  0.00    +0.000 OA
ATOM     17  H   UNL     1       2.072   8.365  22.170  0.00  0.00    +0.000 HD
ENDBRANCH  15  16
ENDBRANCH   3  10
BRANCH   1  19
ATOM     18  N   UNL     1       0.572   2.775  20.866  0.00  0.00    +0.000 N 
ATOM     19  C   UNL     1       1.726   3.424  21.230  0.00  0.00    +0.000 C 
ATOM     20  O   UNL     1       2.221   3.224  22.330  0.00  0.00    +0.000 OA
ATOM     21  H   UNL     1       0.135   2.156  21.530  0.00  0.00    +0.000 HD
ATOM     22  H   UNL     1       0.139   2.967  19.970  0.00  0.00    +0.000 HD
ENDBRANCH   1  19
BRANCH   9  23
ATOM     23  C   UNL     1       5.546   5.008  16.701  0.00  0.00    +0.000 C 
BRANCH  23  24
ATOM     24  C   UNL     1       6.573   5.934  17.311  0.00  0.00    +0.000 A 
ATOM     25  C   UNL     1       6.705   7.260  16.872  0.00  0.00    +0.000 A 
ATOM     26  C   UNL     1       7.593   8.136  17.501  0.00  0.00    +0.000 A 
ATOM     27  C   UNL     1       8.353   7.705  18.585  0.00  0.00    +0.000 A 
ATOM     28  C   UNL     1       8.236   6.392  19.033  0.00  0.00    +0.000 A 
ATOM     29  C   UNL     1       7.355   5.510  18.399  0.00  0.00    +0.000 A 
ENDBRANCH  23  24
ENDBRANCH   9  23
TORSDOF 5
ENDMDL
MODEL 7
REMARK VINA RESULT:      -8.5      3.344      5.379
REMARK  Name = 
REMARK  5 active torsions:
REMARK  status: ('A' for Active; 'I' for Inactive)
REMARK    1  A    between atoms: C_2  and  C_4
REMARK    2  A    between atoms: C_6  and  C_7
REMARK    3  A    between atoms: C_12  and  O_13
REMARK    4  A    between atoms: N_19  and  C_20
REMARK    5  A    between atoms: C_20  and  C_21
REMARK                            x       y       z     vdW  Elec       q    Type
REMARK                         _______ _______ _______ _____ _____    ______ ____
ROOT
ATOM      1  C   UNL     1       5.644   6.493  17.174  0.00  0.00    +0.000 A 
ATOM      2  N   UNL     1       4.731   7.378  17.694  0.00  0.00    +0.000 NA
ATOM      3  C   UNL     1       3.521   6.907  18.069  0.00  0.00    +0.000 A 
ATOM      4  N   UNL     1       3.124   5.613  18.026  0.00  0.00    +0.000 NA
ATOM      5  C   UNL     1       4.056   4.796  17.520  0.00  0.00    +0.000 A 
ATOM      6  C   UNL     1       5.318   5.141  17.064  0.00  0.00    +0.000 A 
ATOM      7  N   UNL     1       5.961   4.018  16.585  0.00  0.00    +0.000 NA
ATOM      8  C   UNL     1       5.112   3.026  16.747  0.00  0.00    +0.000 A 
ATOM      9  N   UNL     1       3.947   3.445  17.327  0.00  0.00    +0.000 N 
ENDROOT
BRANCH   3  10
ATOM     10  C   UNL     1       2.491   7.838  18.582  0.00  0.00    +0.000 A 
ATOM     11  C   UNL     1       2.097   8.933  17.773  0.00  0.00    +0.000 A 
ATOM     12  C   UNL     1       1.219   9.917  18.227  0.00  0.00    +0.000 A 
ATOM     13  C   UNL     1       0.693   9.830  19.508  0.00  0.00    +0.000 A 
ATOM     14  C   UNL     1       1.040   8.756  20.327  0.00  0.00    +0.000 A 
ATOM     15  C   UNL     1       1.928   7.771  19.868  0.00  0.00    +0.000 A 
BRANCH  15  16
ATOM     16  O   UNL     1       2.276   6.761  20.725  0.00  0.00    +0.000 OA
ATOM     17  H   UNL     1       2.263   7.092  21.638  0.00  0.00    +0.000 HD
ENDBRANCH  15  16
ENDBRANCH   3  10
BRANCH   1  19
ATOM     18  N   UNL     1       7.661   6.234  15.855  0.00  0.00    +0.000 N 
ATOM     19  C   UNL     1       6.959   7.031  16.724  0.00  0.00    +0.000 C 
ATOM     20  O   UNL     1       7.421   8.104  17.082  0.00  0.00    +0.000 OA
ATOM     21  H   UNL     1       8.568   6.541  15.543  0.00  0.00    +0.000 HD
ATOM     22  H   UNL     1       7.298   5.327  15.586  0.00  0.00    +0.000 HD
ENDBRANCH   1  19
BRANCH   9  23
ATOM     23  C   UNL     1       2.759   2.633  17.521  0.00  0.00    +0.000 C 
BRANCH  23  24
ATOM     24  C   UNL     1       2.254   2.624  18.946  0.00  0.00    +0.000 A 
ATOM     25  C   UNL     1       3.118   2.359  20.019  0.00  0.00    +0.000 A 
ATOM     26  C   UNL     1       2.666   2.442  21.338  0.00  0.00    +0.000 A 
ATOM     27  C   UNL     1       1.347   2.802  21.605  0.00  0.00    +0.000 A 
ATOM     28  C   UNL     1       0.475   3.066  20.552  0.00  0.00    +0.000 A 
ATOM     29  C   UNL     1       0.923   2.975  19.230  0.00  0.00    +0.000 A 
ENDBRANCH  23  24
ENDBRANCH   9  23
TORSDOF 5
ENDMDL
MODEL 8
REMARK VINA RESULT:      -8.4      4.061      7.611
REMARK  Name = 
REMARK  5 active torsions:
REMARK  status: ('A' for Active; 'I' for Inactive)
REMARK    1  A    between atoms: C_2  and  C_4
REMARK    2  A    between atoms: C_6  and  C_7
REMARK    3  A    between atoms: C_12  and  O_13
REMARK    4  A    between atoms: N_19  and  C_20
REMARK    5  A    between atoms: C_20  and  C_21
REMARK                            x       y       z     vdW  Elec       q    Type
REMARK                         _______ _______ _______ _____ _____    ______ ____
ROOT
ATOM      1  C   UNL     1       2.162   4.015  19.126  0.00  0.00    +0.000 A 
ATOM      2  N   UNL     1       1.711   5.237  19.563  0.00  0.00    +0.000 NA
ATOM      3  C   UNL     1       2.299   6.351  19.075  0.00  0.00    +0.000 A 
ATOM      4  N   UNL     1       3.278   6.389  18.142  0.00  0.00    +0.000 NA
ATOM      5  C   UNL     1       3.671   5.172  17.746  0.00  0.00    +0.000 A 
ATOM      6  C   UNL     1       3.188   3.950  18.183  0.00  0.00    +0.000 A 
ATOM      7  N   UNL     1       3.878   2.928  17.561  0.00  0.00    +0.000 NA
ATOM      8  C   UNL     1       4.750   3.518  16.772  0.00  0.00    +0.000 A 
ATOM      9  N   UNL     1       4.652   4.881  16.836  0.00  0.00    +0.000 N 
ENDROOT
BRANCH   3  10
ATOM     10  C   UNL     1       1.878   7.684  19.564  0.00  0.00    +0.000 A 
ATOM     11  C   UNL     1       1.533   7.832  20.929  0.00  0.00    +0.000 A 
ATOM     12  C   UNL     1       1.021   9.023  21.444  0.00  0.00    +0.000 A 
ATOM     13  C   UNL     1       0.847  10.115  20.605  0.00  0.00    +0.000 A 
ATOM     14  C   UNL     1       1.195  10.015  19.258  0.00  0.00    +0.000 A 
ATOM     15  C   UNL     1       1.706   8.813  18.745  0.00  0.00    +0.000 A 
BRANCH  15  16
ATOM     16  O   UNL     1       1.989   8.748  17.405  0.00  0.00    +0.000 OA
ATOM     17  H   UNL     1       2.951   8.746  17.278  0.00  0.00    +0.000 HD
ENDBRANCH  15  16
ENDBRANCH   3  10
BRANCH   1  19
ATOM     18  N   UNL     1       1.335   1.757  18.827  0.00  0.00    +0.000 N 
ATOM     19  C   UNL     1       1.536   2.793  19.704  0.00  0.00    +0.000 C 
ATOM     20  O   UNL     1       1.205   2.678  20.875  0.00  0.00    +0.000 OA
ATOM     21  H   UNL     1       0.891   0.917  19.162  0.00  0.00    +0.000 HD
ATOM     22  H   UNL     1       1.574   1.862  17.847  0.00  0.00    +0.000 HD
ENDBRANCH   1  19
BRANCH   9  23
ATOM     23  C   UNL     1       5.552   5.824  16.197  0.00  0.00    +0.000 C 
BRANCH  23  24
ATOM     24  C   UNL     1       6.527   6.475  17.151  0.00  0.00    +0.000 A 
ATOM     25  C   UNL     1       7.158   5.733  18.161  0.00  0.00    +0.000 A 
ATOM     26  C   UNL     1       8.126   6.320  18.980  0.00  0.00    +0.000 A 
ATOM     27  C   UNL     1       8.486   7.653  18.795  0.00  0.00    +0.000 A 
ATOM     28  C   UNL     1       7.868   8.404  17.799  0.00  0.00    +0.000 A 
ATOM     29  C   UNL     1       6.893   7.822  16.983  0.00  0.00    +0.000 A 
ENDBRANCH  23  24
ENDBRANCH   9  23
TORSDOF 5
ENDMDL
MODEL 9
REMARK VINA RESULT:      -8.3      4.215      7.493
REMARK  Name = 
REMARK  5 active torsions:
REMARK  status: ('A' for Active; 'I' for Inactive)
REMARK    1  A    between atoms: C_2  and  C_4
REMARK    2  A    between atoms: C_6  and  C_7
REMARK    3  A    between atoms: C_12  and  O_13
REMARK    4  A    between atoms: N_19  and  C_20
REMARK    5  A    between atoms: C_20  and  C_21
REMARK                            x       y       z     vdW  Elec       q    Type
REMARK                         _______ _______ _______ _____ _____    ______ ____
ROOT
ATOM      1  C   UNL     1       2.538   4.435  20.387  0.00  0.00    +0.000 A 
ATOM      2  N   UNL     1       1.924   5.657  20.265  0.00  0.00    +0.000 NA
ATOM      3  C   UNL     1       2.488   6.582  19.458  0.00  0.00    +0.000 A 
ATOM      4  N   UNL     1       3.597   6.407  18.703  0.00  0.00    +0.000 NA
ATOM      5  C   UNL     1       4.147   5.197  18.854  0.00  0.00    +0.000 A 
ATOM      6  C   UNL     1       3.703   4.167  19.668  0.00  0.00    +0.000 A 
ATOM      7  N   UNL     1       4.565   3.093  19.571  0.00  0.00    +0.000 NA
ATOM      8  C   UNL     1       5.501   3.465  18.724  0.00  0.00    +0.000 A 
ATOM      9  N   UNL     1       5.282   4.728  18.247  0.00  0.00    +0.000 N 
ENDROOT
BRANCH   3  10
ATOM     10  C   UNL     1       1.886   7.930  19.345  0.00  0.00    +0.000 A 
ATOM     11  C   UNL     1       1.872   8.567  18.080  0.00  0.00    +0.000 A 
ATOM     12  C   UNL     1       1.427   9.878  17.910  0.00  0.00    +0.000 A 
ATOM     13  C   UNL     1       0.968  10.595  19.006  0.00  0.00    +0.000 A 
ATOM     14  C   UNL     1       0.945   9.995  20.264  0.00  0.00    +0.000 A 
ATOM     15  C   UNL     1       1.398   8.678  20.431  0.00  0.00    +0.000 A 
BRANCH  15  16
ATOM     16  O   UNL     1       1.402   8.148  21.695  0.00  0.00    +0.000 OA
ATOM     17  H   UNL     1       1.725   8.813  22.323  0.00  0.00    +0.000 HD
ENDBRANCH  15  16
ENDBRANCH   3  10
BRANCH   1  19
ATOM     18  N   UNL     1       0.730   2.907  20.912  0.00  0.00    +0.000 N 
ATOM     19  C   UNL     1       1.931   3.437  21.313  0.00  0.00    +0.000 C 
ATOM     20  O   UNL     1       2.433   3.088  22.372  0.00  0.00    +0.000 OA
ATOM     21  H   UNL     1       0.266   2.248  21.516  0.00  0.00    +0.000 HD
ATOM     22  H   UNL     1       0.293   3.222  20.053  0.00  0.00    +0.000 HD
ENDBRANCH   1  19
BRANCH   9  23
ATOM     23  C   UNL     1       6.191   5.483  17.404  0.00  0.00    +0.000 C 
BRANCH  23  24
ATOM     24  C   UNL     1       6.280   4.964  15.988  0.00  0.00    +0.000 A 
ATOM     25  C   UNL     1       5.191   4.320  15.382  0.00  0.00    +0.000 A 
ATOM     26  C   UNL     1       5.249   3.924  14.043  0.00  0.00    +0.000 A 
ATOM     27  C   UNL     1       6.391   4.176  13.287  0.00  0.00    +0.000 A 
ATOM     28  C   UNL     1       7.482   4.813  13.873  0.00  0.00    +0.000 A 
ATOM     29  C   UNL     1       7.430   5.202  15.215  0.00  0.00    +0.000 A 
ENDBRANCH  23  24
ENDBRANCH   9  23
TORSDOF 5
ENDMDL
