MODEL 1
REMARK VINA RESULT:      -7.2      0.000      0.000
REMARK  Name = 
REMARK  7 active torsions:
REMARK  status: ('A' for Active; 'I' for Inactive)
REMARK    1  A    between atoms: C_1  and  C_2
REMARK    2  A    between atoms: C_5  and  C_6
REMARK    3  A    between atoms: C_7  and  N_8
REMARK    4  A    between atoms: C_9  and  C_11
REMARK    5  A    between atoms: C_11  and  C_12
REMARK    6  A    between atoms: C_12  and  N_13
REMARK    7  A    between atoms: C_17  and  C_18
REMARK                            x       y       z     vdW  Elec       q    Type
REMARK                         _______ _______ _______ _____ _____    ______ ____
ROOT
ATOM      1  N   UNL     1       2.798   6.399  20.000  0.00  0.00    +0.000 N 
ATOM      2  C   UNL     1       2.278   5.137  20.174  0.00  0.00    +0.000 C 
ATOM      3  O   UNL     1       1.100   4.868  20.403  0.00  0.00    +0.000 OA
ATOM      4  H   UNL     1       3.783   6.513  20.199  0.00  0.00    +0.000 HD
ENDROOT
BRANCH   1  11
ATOM      5  C   UNL     1      -0.358   9.304  22.462  0.00  0.00    +0.000 C 
ATOM      6  C   UNL     1       0.451   9.009  21.235  0.00  0.00    +0.000 A 
ATOM      7  C   UNL     1       0.387   9.834  20.111  0.00  0.00    +0.000 A 
ATOM      8  C   UNL     1       1.115   9.528  18.960  0.00  0.00    +0.000 A 
ATOM      9  C   UNL     1       1.919   8.379  18.904  0.00  0.00    +0.000 A 
ATOM     10  C   UNL     1       2.734   8.109  17.669  0.00  0.00    +0.000 C 
ATOM     11  C   UNL     1       2.002   7.561  20.040  0.00  0.00    +0.000 A 
ATOM     12  C   UNL     1       1.276   7.880  21.196  0.00  0.00    +0.000 A 
ENDBRANCH   1  11
BRANCH   2  13
ATOM     13  C   UNL     1       3.312   4.049  20.050  0.00  0.00    +0.000 C 
BRANCH  13  14
ATOM     14  C   UNL     1       3.483   3.719  18.569  0.00  0.00    +0.000 C 
BRANCH  14  15
ATOM     15  N   UNL     1       4.463   4.637  18.000  0.00  0.00    +0.000 NA
ATOM     16  C   UNL     1       4.615   4.548  16.547  0.00  0.00    +0.000 C 
ATOM     17  C   UNL     1       5.330   5.810  16.065  0.00  0.00    +0.000 C 
ATOM     18  C   UNL     1       6.663   6.024  16.788  0.00  0.00    +0.000 C 
ATOM     19  C   UNL     1       6.504   5.887  18.309  0.00  0.00    +0.000 C 
ATOM     20  C   UNL     1       7.848   5.976  19.022  0.00  0.00    +0.000 C 
ATOM     21  C   UNL     1       5.769   4.586  18.661  0.00  0.00    +0.000 C 
ENDBRANCH  14  15
ENDBRANCH  13  14
ENDBRANCH   2  13
TORSDOF 4
ENDMDL
MODEL 2
REMARK VINA RESULT:      -7.1      0.966      1.805
REMARK  Name = 
REMARK  7 active torsions:
REMARK  status: ('A' for Active; 'I' for Inactive)
REMARK    1  A    between atoms: C_1  and  C_2
REMARK    2  A    between atoms: C_5  and  C_6
REMARK    3  A    between atoms: C_7  and  N_8
REMARK    4  A    between atoms: C_9  and  C_11
REMARK    5  A    between atoms: C_11  and  C_12
REMARK    6  A    between atoms: C_12  and  N_13
REMARK    7  A    between atoms: C_17  and  C_18
REMARK                            x       y       z     vdW  Elec       q    Type
REMARK                         _______ _______ _______ _____ _____    ______ ____
ROOT
ATOM      1  N   UNL     1       2.723   6.844  19.917  0.00  0.00    +0.000 N 
ATOM      2  C   UNL     1       2.338   5.531  20.067  0.00  0.00    +0.000 C 
ATOM      3  O   UNL     1       1.219   5.142  20.400  0.00  0.00    +0.000 OA
ATOM      4  H   UNL     1       3.710   7.039  20.021  0.00  0.00    +0.000 HD
ENDROOT
BRANCH   1  11
ATOM      5  C   UNL     1      -0.286   9.390  22.904  0.00  0.00    +0.000 C 
ATOM      6  C   UNL     1       0.354   9.195  21.562  0.00  0.00    +0.000 A 
ATOM      7  C   UNL     1       0.046  10.027  20.485  0.00  0.00    +0.000 A 
ATOM      8  C   UNL     1       0.619   9.811  19.231  0.00  0.00    +0.000 A 
ATOM      9  C   UNL     1       1.509   8.746  19.023  0.00  0.00    +0.000 A 
ATOM     10  C   UNL     1       2.153   8.576  17.673  0.00  0.00    +0.000 C 
ATOM     11  C   UNL     1       1.838   7.922  20.109  0.00  0.00    +0.000 A 
ATOM     12  C   UNL     1       1.266   8.152  21.368  0.00  0.00    +0.000 A 
ENDBRANCH   1  11
BRANCH   2  13
ATOM     13  C   UNL     1       3.444   4.552  19.773  0.00  0.00    +0.000 C 
BRANCH  13  14
ATOM     14  C   UNL     1       3.355   4.162  18.299  0.00  0.00    +0.000 C 
BRANCH  14  15
ATOM     15  N   UNL     1       4.698   4.181  17.732  0.00  0.00    +0.000 NA
ATOM     16  C   UNL     1       5.629   5.099  18.390  0.00  0.00    +0.000 C 
ATOM     17  C   UNL     1       7.050   4.712  17.981  0.00  0.00    +0.000 C 
ATOM     18  C   UNL     1       7.220   4.685  16.459  0.00  0.00    +0.000 C 
ATOM     19  C   UNL     1       6.091   3.893  15.782  0.00  0.00    +0.000 C 
ATOM     20  C   UNL     1       6.189   3.969  14.264  0.00  0.00    +0.000 C 
ATOM     21  C   UNL     1       4.720   4.373  16.280  0.00  0.00    +0.000 C 
ENDBRANCH  14  15
ENDBRANCH  13  14
ENDBRANCH   2  13
TORSDOF 4
ENDMDL
MODEL 3
REMARK VINA RESULT:      -6.9      1.638      2.646
REMARK  Name = 
REMARK  7 active torsions:
REMARK  status: ('A' for Active; 'I' for Inactive)
REMARK    1  A    between atoms: C_1  and  C_2
REMARK    2  A    between atoms: C_5  and  C_6
REMARK    3  A    between atoms: C_7  and  N_8
REMARK    4  A    between atoms: C_9  and  C_11
REMARK    5  A    between atoms: C_11  and  C_12
REMARK    6  A    between atoms: C_12  and  N_13
REMARK    7  A    between atoms: C_17  and  C_18
REMARK                            x       y       z     vdW  Elec       q    Type
REMARK                         _______ _______ _______ _____ _____    ______ ____
ROOT
ATOM      1  N   UNL     1       2.928   5.034  18.420  0.00  0.00    +0.000 N 
ATOM      2  C   UNL     1       2.186   4.197  17.619  0.00  0.00    +0.000 C 
ATOM      3  O   UNL     1       1.007   4.357  17.306  0.00  0.00    +0.000 OA
ATOM      4  H   UNL     1       3.717   4.619  18.899  0.00  0.00    +0.000 HD
ENDROOT
BRANCH   1  11
ATOM      5  C   UNL     1       1.905   9.848  17.929  0.00  0.00    +0.000 C 
ATOM      6  C   UNL     1       1.889   8.591  18.747  0.00  0.00    +0.000 A 
ATOM      7  C   UNL     1       1.419   8.591  20.061  0.00  0.00    +0.000 A 
ATOM      8  C   UNL     1       1.445   7.424  20.827  0.00  0.00    +0.000 A 
ATOM      9  C   UNL     1       1.955   6.229  20.295  0.00  0.00    +0.000 A 
ATOM     10  C   UNL     1       1.916   4.976  21.128  0.00  0.00    +0.000 C 
ATOM     11  C   UNL     1       2.406   6.222  18.968  0.00  0.00    +0.000 A 
ATOM     12  C   UNL     1       2.368   7.396  18.202  0.00  0.00    +0.000 A 
ENDBRANCH   1  11
BRANCH   2  13
ATOM     13  C   UNL     1       2.966   3.010  17.120  0.00  0.00    +0.000 C 
BRANCH  13  14
ATOM     14  C   UNL     1       4.388   3.107  17.671  0.00  0.00    +0.000 C 
BRANCH  14  15
ATOM     15  N   UNL     1       5.143   4.039  16.843  0.00  0.00    +0.000 NA
ATOM     16  C   UNL     1       5.717   3.456  15.630  0.00  0.00    +0.000 C 
ATOM     17  C   UNL     1       6.099   4.598  14.687  0.00  0.00    +0.000 C 
ATOM     18  C   UNL     1       7.034   5.607  15.360  0.00  0.00    +0.000 C 
ATOM     19  C   UNL     1       6.506   6.028  16.740  0.00  0.00    +0.000 C 
ATOM     20  C   UNL     1       7.495   6.934  17.463  0.00  0.00    +0.000 C 
ATOM     21  C   UNL     1       6.156   4.794  17.584  0.00  0.00    +0.000 C 
ENDBRANCH  14  15
ENDBRANCH  13  14
ENDBRANCH   2  13
TORSDOF 4
ENDMDL
MODEL 4
REMARK VINA RESULT:      -6.9      0.955      1.054
REMARK  Name = 
REMARK  7 active torsions:
REMARK  status: ('A' for Active; 'I' for Inactive)
REMARK    1  A    between atoms: C_1  and  C_2
REMARK    2  A    between atoms: C_5  and  C_6
REMARK    3  A    between atoms: C_7  and  N_8
REMARK    4  A    between atoms: C_9  and  C_11
REMARK    5  A    between atoms: C_11  and  C_12
REMARK    6  A    between atoms: C_12  and  N_13
REMARK    7  A    between atoms: C_17  and  C_18
REMARK                            x       y       z     vdW  Elec       q    Type
REMARK                         _______ _______ _______ _____ _____    ______ ____
ROOT
ATOM      1  N   UNL     1       2.902   5.972  19.840  0.00  0.00    +0.000 N 
ATOM      2  C   UNL     1       2.449   4.847  19.190  0.00  0.00    +0.000 C 
ATOM      3  O   UNL     1       1.393   4.751  18.565  0.00  0.00    +0.000 OA
ATOM      4  H   UNL     1       3.551   5.822  20.602  0.00  0.00    +0.000 HD
ENDROOT
BRANCH   1  11
ATOM      5  C   UNL     1      -0.213   9.073  22.108  0.00  0.00    +0.000 C 
ATOM      6  C   UNL     1       0.664   8.733  20.940  0.00  0.00    +0.000 A 
ATOM      7  C   UNL     1       0.743   9.572  19.827  0.00  0.00    +0.000 A 
ATOM      8  C   UNL     1       1.532   9.226  18.728  0.00  0.00    +0.000 A 
ATOM      9  C   UNL     1       2.252   8.022  18.714  0.00  0.00    +0.000 A 
ATOM     10  C   UNL     1       3.137   7.706  17.539  0.00  0.00    +0.000 C 
ATOM     11  C   UNL     1       2.191   7.188  19.840  0.00  0.00    +0.000 A 
ATOM     12  C   UNL     1       1.405   7.547  20.944  0.00  0.00    +0.000 A 
ENDBRANCH   1  11
BRANCH   2  13
ATOM     13  C   UNL     1       3.394   3.680  19.296  0.00  0.00    +0.000 C 
BRANCH  13  14
ATOM     14  C   UNL     1       4.796   4.224  19.566  0.00  0.00    +0.000 C 
BRANCH  14  15
ATOM     15  N   UNL     1       5.272   4.896  18.363  0.00  0.00    +0.000 NA
ATOM     16  C   UNL     1       5.437   4.025  17.198  0.00  0.00    +0.000 C 
ATOM     17  C   UNL     1       5.525   4.907  15.953  0.00  0.00    +0.000 C 
ATOM     18  C   UNL     1       6.635   5.955  16.071  0.00  0.00    +0.000 C 
ATOM     19  C   UNL     1       6.564   6.699  17.413  0.00  0.00    +0.000 C 
ATOM     20  C   UNL     1       7.739   7.653  17.585  0.00  0.00    +0.000 C 
ATOM     21  C   UNL     1       6.474   5.704  18.578  0.00  0.00    +0.000 C 
ENDBRANCH  14  15
ENDBRANCH  13  14
ENDBRANCH   2  13
TORSDOF 4
ENDMDL
MODEL 5
REMARK VINA RESULT:      -6.8      4.870      7.974
REMARK  Name = 
REMARK  7 active torsions:
REMARK  status: ('A' for Active; 'I' for Inactive)
REMARK    1  A    between atoms: C_1  and  C_2
REMARK    2  A    between atoms: C_5  and  C_6
REMARK    3  A    between atoms: C_7  and  N_8
REMARK    4  A    between atoms: C_9  and  C_11
REMARK    5  A    between atoms: C_11  and  C_12
REMARK    6  A    between atoms: C_12  and  N_13
REMARK    7  A    between atoms: C_17  and  C_18
REMARK                            x       y       z     vdW  Elec       q    Type
REMARK                         _______ _______ _______ _____ _____    ______ ____
ROOT
ATOM      1  N   UNL     1       7.767   6.353  17.698  0.00  0.00    +0.000 N 
ATOM      2  C   UNL     1       7.578   7.715  17.649  0.00  0.00    +0.000 C 
ATOM      3  O   UNL     1       6.661   8.295  17.070  0.00  0.00    +0.000 OA
ATOM      4  H   UNL     1       8.714   6.034  17.857  0.00  0.00    +0.000 HD
ENDROOT
BRANCH   1  11
ATOM      5  C   UNL     1       6.293   3.919  13.652  0.00  0.00    +0.000 C 
ATOM      6  C   UNL     1       6.142   4.228  15.112  0.00  0.00    +0.000 A 
ATOM      7  C   UNL     1       5.106   3.673  15.865  0.00  0.00    +0.000 A 
ATOM      8  C   UNL     1       4.952   3.998  17.213  0.00  0.00    +0.000 A 
ATOM      9  C   UNL     1       5.828   4.899  17.838  0.00  0.00    +0.000 A 
ATOM     10  C   UNL     1       5.668   5.185  19.307  0.00  0.00    +0.000 C 
ATOM     11  C   UNL     1       6.883   5.441  17.089  0.00  0.00    +0.000 A 
ATOM     12  C   UNL     1       7.037   5.101  15.738  0.00  0.00    +0.000 A 
ENDBRANCH   1  11
BRANCH   2  13
ATOM     13  C   UNL     1       8.630   8.486  18.403  0.00  0.00    +0.000 C 
BRANCH  13  14
ATOM     14  C   UNL     1       8.433   9.972  18.109  0.00  0.00    +0.000 C 
BRANCH  14  15
ATOM     15  N   UNL     1       9.562  10.708  18.665  0.00  0.00    +0.000 NA
ATOM     16  C   UNL     1       9.337  11.259  20.002  0.00  0.00    +0.000 C 
ATOM     17  C   UNL     1      10.695  11.619  20.604  0.00  0.00    +0.000 C 
ATOM     18  C   UNL     1      11.490  12.564  19.700  0.00  0.00    +0.000 C 
ATOM     19  C   UNL     1      11.515  12.063  18.248  0.00  0.00    +0.000 C 
ATOM     20  C   UNL     1      12.198  13.063  17.324  0.00  0.00    +0.000 C 
ATOM     21  C   UNL     1      10.095  11.733  17.766  0.00  0.00    +0.000 C 
ENDBRANCH  14  15
ENDBRANCH  13  14
ENDBRANCH   2  13
TORSDOF 4
ENDMDL
MODEL 6
REMARK VINA RESULT:      -6.8      1.118      1.248
REMARK  Name = 
REMARK  7 active torsions:
REMARK  status: ('A' for Active; 'I' for Inactive)
REMARK    1  A    between atoms: C_1  and  C_2
REMARK    2  A    between atoms: C_5  and  C_6
REMARK    3  A    between atoms: C_7  and  N_8
REMARK    4  A    between atoms: C_9  and  C_11
REMARK    5  A    between atoms: C_11  and  C_12
REMARK    6  A    between atoms: C_12  and  N_13
REMARK    7  A    between atoms: C_17  and  C_18
REMARK                            x       y       z     vdW  Elec       q    Type
REMARK                         _______ _______ _______ _____ _____    ______ ____
ROOT
ATOM      1  N   UNL     1       2.493   7.341  19.746  0.00  0.00    +0.000 N 
ATOM      2  C   UNL     1       2.269   6.011  20.015  0.00  0.00    +0.000 C 
ATOM      3  O   UNL     1       1.326   5.554  20.660  0.00  0.00    +0.000 OA
ATOM      4  H   UNL     1       3.450   7.609  19.558  0.00  0.00    +0.000 HD
ENDROOT
BRANCH   1  11
ATOM      5  C   UNL     1      -0.071   9.486  23.391  0.00  0.00    +0.000 C 
ATOM      6  C   UNL     1       0.353   9.436  21.954  0.00  0.00    +0.000 A 
ATOM      7  C   UNL     1      -0.146  10.347  21.021  0.00  0.00    +0.000 A 
ATOM      8  C   UNL     1       0.226  10.267  19.678  0.00  0.00    +0.000 A 
ATOM      9  C   UNL     1       1.101   9.263  19.235  0.00  0.00    +0.000 A 
ATOM     10  C   UNL     1       1.526   9.239  17.792  0.00  0.00    +0.000 C 
ATOM     11  C   UNL     1       1.620   8.361  20.175  0.00  0.00    +0.000 A 
ATOM     12  C   UNL     1       1.250   8.454  21.523  0.00  0.00    +0.000 A 
ENDBRANCH   1  11
BRANCH   2  13
ATOM     13  C   UNL     1       3.315   5.103  19.424  0.00  0.00    +0.000 C 
BRANCH  13  14
ATOM     14  C   UNL     1       3.048   4.979  17.925  0.00  0.00    +0.000 C 
BRANCH  14  15
ATOM     15  N   UNL     1       4.319   5.076  17.218  0.00  0.00    +0.000 NA
ATOM     16  C   UNL     1       4.868   3.798  16.763  0.00  0.00    +0.000 C 
ATOM     17  C   UNL     1       5.937   4.086  15.710  0.00  0.00    +0.000 C 
ATOM     18  C   UNL     1       7.014   5.040  16.233  0.00  0.00    +0.000 C 
ATOM     19  C   UNL     1       6.392   6.272  16.908  0.00  0.00    +0.000 C 
ATOM     20  C   UNL     1       7.457   7.161  17.538  0.00  0.00    +0.000 C 
ATOM     21  C   UNL     1       5.334   5.849  17.937  0.00  0.00    +0.000 C 
ENDBRANCH  14  15
ENDBRANCH  13  14
ENDBRANCH   2  13
TORSDOF 4
ENDMDL
MODEL 7
REMARK VINA RESULT:      -6.8      1.662      3.097
REMARK  Name = 
REMARK  7 active torsions:
REMARK  status: ('A' for Active; 'I' for Inactive)
REMARK    1  A    between atoms: C_1  and  C_2
REMARK    2  A    between atoms: C_5  and  C_6
REMARK    3  A    between atoms: C_7  and  N_8
REMARK    4  A    between atoms: C_9  and  C_11
REMARK    5  A    between atoms: C_11  and  C_12
REMARK    6  A    between atoms: C_12  and  N_13
REMARK    7  A    between atoms: C_17  and  C_18
REMARK                            x       y       z     vdW  Elec       q    Type
REMARK                         _______ _______ _______ _____ _____    ______ ____
ROOT
ATOM      1  N   UNL     1       2.886   5.226  18.384  0.00  0.00    +0.000 N 
ATOM      2  C   UNL     1       2.131   4.354  17.633  0.00  0.00    +0.000 C 
ATOM      3  O   UNL     1       0.933   4.474  17.378  0.00  0.00    +0.000 OA
ATOM      4  H   UNL     1       3.710   4.842  18.828  0.00  0.00    +0.000 HD
ENDROOT
BRANCH   1  11
ATOM      5  C   UNL     1       1.848  10.041  17.937  0.00  0.00    +0.000 C 
ATOM      6  C   UNL     1       1.831   8.775  18.742  0.00  0.00    +0.000 A 
ATOM      7  C   UNL     1       1.352   8.759  20.053  0.00  0.00    +0.000 A 
ATOM      8  C   UNL     1       1.377   7.584  20.806  0.00  0.00    +0.000 A 
ATOM      9  C   UNL     1       1.895   6.397  20.265  0.00  0.00    +0.000 A 
ATOM     10  C   UNL     1       1.855   5.134  21.083  0.00  0.00    +0.000 C 
ATOM     11  C   UNL     1       2.356   6.406  18.941  0.00  0.00    +0.000 A 
ATOM     12  C   UNL     1       2.318   7.588  18.188  0.00  0.00    +0.000 A 
ENDBRANCH   1  11
BRANCH   2  13
ATOM     13  C   UNL     1       2.921   3.183  17.112  0.00  0.00    +0.000 C 
BRANCH  13  14
ATOM     14  C   UNL     1       4.174   3.032  17.973  0.00  0.00    +0.000 C 
BRANCH  14  15
ATOM     15  N   UNL     1       5.322   3.503  17.208  0.00  0.00    +0.000 NA
ATOM     16  C   UNL     1       6.077   4.586  17.840  0.00  0.00    +0.000 C 
ATOM     17  C   UNL     1       7.441   4.678  17.156  0.00  0.00    +0.000 C 
ATOM     18  C   UNL     1       7.310   4.852  15.640  0.00  0.00    +0.000 C 
ATOM     19  C   UNL     1       6.330   3.832  15.041  0.00  0.00    +0.000 C 
ATOM     20  C   UNL     1       6.104   4.082  13.555  0.00  0.00    +0.000 C 
ATOM     21  C   UNL     1       5.006   3.834  15.817  0.00  0.00    +0.000 C 
ENDBRANCH  14  15
ENDBRANCH  13  14
ENDBRANCH   2  13
TORSDOF 4
ENDMDL
MODEL 8
REMARK VINA RESULT:      -6.7      2.903      4.668
REMARK  Name = 
REMARK  7 active torsions:
REMARK  status: ('A' for Active; 'I' for Inactive)
REMARK    1  A    between atoms: C_1  and  C_2
REMARK    2  A    between atoms: C_5  and  C_6
REMARK    3  A    between atoms: C_7  and  N_8
REMARK    4  A    between atoms: C_9  and  C_11
REMARK    5  A    between atoms: C_11  and  C_12
REMARK    6  A    between atoms: C_12  and  N_13
REMARK    7  A    between atoms: C_17  and  C_18
REMARK                            x       y       z     vdW  Elec       q    Type
REMARK                         _______ _______ _______ _____ _____    ______ ____
ROOT
ATOM      1  N   UNL     1       4.520   5.225  17.823  0.00  0.00    +0.000 N 
ATOM      2  C   UNL     1       5.871   5.364  18.042  0.00  0.00    +0.000 C 
ATOM      3  O   UNL     1       6.403   5.649  19.114  0.00  0.00    +0.000 OA
ATOM      4  H   UNL     1       4.198   5.371  16.876  0.00  0.00    +0.000 HD
ENDROOT
BRANCH   1  11
ATOM      5  C   UNL     1       2.091   3.297  21.677  0.00  0.00    +0.000 C 
ATOM      6  C   UNL     1       2.360   4.446  20.751  0.00  0.00    +0.000 A 
ATOM      7  C   UNL     1       1.641   5.638  20.851  0.00  0.00    +0.000 A 
ATOM      8  C   UNL     1       1.873   6.687  19.959  0.00  0.00    +0.000 A 
ATOM      9  C   UNL     1       2.826   6.561  18.937  0.00  0.00    +0.000 A 
ATOM     10  C   UNL     1       3.091   7.730  18.028  0.00  0.00    +0.000 C 
ATOM     11  C   UNL     1       3.565   5.372  18.849  0.00  0.00    +0.000 A 
ATOM     12  C   UNL     1       3.333   4.327  19.754  0.00  0.00    +0.000 A 
ENDBRANCH   1  11
BRANCH   2  13
ATOM     13  C   UNL     1       6.699   5.125  16.807  0.00  0.00    +0.000 C 
BRANCH  13  14
ATOM     14  C   UNL     1       6.138   3.899  16.088  0.00  0.00    +0.000 C 
BRANCH  14  15
ATOM     15  N   UNL     1       6.512   3.975  14.681  0.00  0.00    +0.000 NA
ATOM     16  C   UNL     1       7.231   5.192  14.302  0.00  0.00    +0.000 C 
ATOM     17  C   UNL     1       7.905   4.946  12.952  0.00  0.00    +0.000 C 
ATOM     18  C   UNL     1       6.903   4.493  11.886  0.00  0.00    +0.000 C 
ATOM     19  C   UNL     1       6.009   3.356  12.403  0.00  0.00    +0.000 C 
ATOM     20  C   UNL     1       4.932   2.988  11.391  0.00  0.00    +0.000 C 
ATOM     21  C   UNL     1       5.399   3.724  13.763  0.00  0.00    +0.000 C 
ENDBRANCH  14  15
ENDBRANCH  13  14
ENDBRANCH   2  13
TORSDOF 4
ENDMDL
MODEL 9
REMARK VINA RESULT:      -6.7      1.216      1.926
REMARK  Name = 
REMARK  7 active torsions:
REMARK  status: ('A' for Active; 'I' for Inactive)
REMARK    1  A    between atoms: C_1  and  C_2
REMARK    2  A    between atoms: C_5  and  C_6
REMARK    3  A    between atoms: C_7  and  N_8
REMARK    4  A    between atoms: C_9  and  C_11
REMARK    5  A    between atoms: C_11  and  C_12
REMARK    6  A    between atoms: C_12  and  N_13
REMARK    7  A    between atoms: C_17  and  C_18
REMARK                            x       y       z     vdW  Elec       q    Type
REMARK                         _______ _______ _______ _____ _____    ______ ____
ROOT
ATOM      1  N   UNL     1       2.974   5.611  19.539  0.00  0.00    +0.000 N 
ATOM      2  C   UNL     1       2.478   4.568  18.792  0.00  0.00    +0.000 C 
ATOM      3  O   UNL     1       1.435   4.581  18.138  0.00  0.00    +0.000 OA
ATOM      4  H   UNL     1       3.592   5.367  20.302  0.00  0.00    +0.000 HD
ENDROOT
BRANCH   1  11
ATOM      5  C   UNL     1      -0.051   8.692  21.952  0.00  0.00    +0.000 C 
ATOM      6  C   UNL     1       0.850   8.399  20.790  0.00  0.00    +0.000 A 
ATOM      7  C   UNL     1       1.020   9.321  19.756  0.00  0.00    +0.000 A 
ATOM      8  C   UNL     1       1.830   9.021  18.659  0.00  0.00    +0.000 A 
ATOM      9  C   UNL     1       2.483   7.782  18.569  0.00  0.00    +0.000 A 
ATOM     10  C   UNL     1       3.395   7.512  17.402  0.00  0.00    +0.000 C 
ATOM     11  C   UNL     1       2.332   6.863  19.617  0.00  0.00    +0.000 A 
ATOM     12  C   UNL     1       1.524   7.176  20.720  0.00  0.00    +0.000 A 
ENDBRANCH   1  11
BRANCH   2  13
ATOM     13  C   UNL     1       3.353   3.344  18.830  0.00  0.00    +0.000 C 
BRANCH  13  14
ATOM     14  C   UNL     1       4.640   3.700  19.571  0.00  0.00    +0.000 C 
BRANCH  14  15
ATOM     15  N   UNL     1       5.626   4.154  18.598  0.00  0.00    +0.000 NA
ATOM     16  C   UNL     1       6.262   5.432  18.920  0.00  0.00    +0.000 C 
ATOM     17  C   UNL     1       7.525   5.564  18.070  0.00  0.00    +0.000 C 
ATOM     18  C   UNL     1       7.228   5.409  16.576  0.00  0.00    +0.000 C 
ATOM     19  C   UNL     1       6.363   4.170  16.301  0.00  0.00    +0.000 C 
ATOM     20  C   UNL     1       5.963   4.083  14.833  0.00  0.00    +0.000 C 
ATOM     21  C   UNL     1       5.133   4.154  17.219  0.00  0.00    +0.000 C 
ENDBRANCH  14  15
ENDBRANCH  13  14
ENDBRANCH   2  13
TORSDOF 4
ENDMDL
