MODEL 1
REMARK VINA RESULT:      -8.5      0.000      0.000
REMARK  Name = 
REMARK  5 active torsions:
REMARK  status: ('A' for Active; 'I' for Inactive)
REMARK    1  A    between atoms: C_1  and  O_2
REMARK    2  A    between atoms: O_2  and  C_3
REMARK    3  A    between atoms: C_10  and  C_11
REMARK    4  A    between atoms: C_11  and  O_12
REMARK    5  A    between atoms: N_21  and  C_22
REMARK                            x       y       z     vdW  Elec       q    Type
REMARK                         _______ _______ _______ _____ _____    ______ ____
ROOT
ATOM      1  C   UNL     1       4.430   6.295  17.605  0.00  0.00    +0.000 C 
ATOM      2  C   UNL     1       5.819   6.848  17.835  0.00  0.00    +0.000 A 
ATOM      3  C   UNL     1       6.445   7.978  17.325  0.00  0.00    +0.000 A 
ATOM      4  C   UNL     1       7.774   8.228  17.694  0.00  0.00    +0.000 A 
ATOM      5  C   UNL     1       8.463   7.359  18.558  0.00  0.00    +0.000 A 
ATOM      6  C   UNL     1       7.836   6.223  19.060  0.00  0.00    +0.000 A 
ATOM      7  C   UNL     1       6.526   5.999  18.674  0.00  0.00    +0.000 A 
ATOM      8  C   UNL     1       5.667   4.882  19.040  0.00  0.00    +0.000 C 
ATOM      9  O   UNL     1       6.075   3.987  19.760  0.00  0.00    +0.000 OA
ATOM     10  N   UNL     1       4.427   5.071  18.423  0.00  0.00    +0.000 N 
ENDROOT
BRANCH   1  18
ATOM     11  C   UNL     1      -0.136  10.010  22.987  0.00  0.00    +0.000 C 
ATOM     12  O   UNL     1       0.664   9.280  23.559  0.00  0.00    +0.000 OA
ATOM     13  N   UNL     1      -0.297  10.207  21.640  0.00  0.00    +0.000 N 
ATOM     14  C   UNL     1       0.476   9.564  20.714  0.00  0.00    +0.000 A 
ATOM     15  N   UNL     1       1.425   8.677  20.918  0.00  0.00    +0.000 NA
ATOM     16  C   UNL     1       1.929   8.359  19.688  0.00  0.00    +0.000 A 
ATOM     17  C   UNL     1       2.957   7.463  19.342  0.00  0.00    +0.000 A 
ATOM     18  C   UNL     1       3.329   7.303  17.987  0.00  0.00    +0.000 A 
ATOM     19  C   UNL     1       2.638   8.064  17.018  0.00  0.00    +0.000 A 
ATOM     20  C   UNL     1       1.596   8.950  17.342  0.00  0.00    +0.000 A 
ATOM     21  C   UNL     1       1.274   9.065  18.691  0.00  0.00    +0.000 A 
ATOM     22  N   UNL     1       0.329   9.800  19.367  0.00  0.00    +0.000 N 
ATOM     23  H   UNL     1      -0.997  10.880  21.372  0.00  0.00    +0.000 HD
ATOM     24  H   UNL     1      -0.347  10.416  18.947  0.00  0.00    +0.000 HD
BRANCH  11  26
ATOM     25  C   UNL     1      -1.514  11.890  22.858  0.00  0.00    +0.000 C 
ATOM     26  O   UNL     1      -1.035  10.796  23.644  0.00  0.00    +0.000 OA
ENDBRANCH  11  26
ENDBRANCH   1  18
BRANCH  10  27
ATOM     27  C   UNL     1       3.303   4.204  18.598  0.00  0.00    +0.000 A 
ATOM     28  C   UNL     1       2.761   3.523  17.491  0.00  0.00    +0.000 A 
ATOM     29  C   UNL     1       1.732   2.589  17.636  0.00  0.00    +0.000 A 
ATOM     30  C   UNL     1       1.210   2.332  18.892  0.00  0.00    +0.000 A 
ATOM     31  F   UNL     1       0.243   1.411  19.011  0.00  0.00    +0.000 F 
ATOM     32  C   UNL     1       1.683   3.017  20.001  0.00  0.00    +0.000 A 
ATOM     33 CL   UNL     1       1.011   2.715  21.561  0.00  0.00    +0.000 Cl
ATOM     34  C   UNL     1       2.715   3.949  19.851  0.00  0.00    +0.000 A 
ATOM     35  F   UNL     1       3.101   4.620  20.945  0.00  0.00    +0.000 F 
ENDBRANCH  10  27
BRANCH   1  36
ATOM     36  O   UNL     1       4.433   5.912  16.236  0.00  0.00    +0.000 OA
ATOM     37  H   UNL     1       3.667   6.338  15.825  0.00  0.00    +0.000 HD
ENDBRANCH   1  36
TORSDOF 4
ENDMDL
MODEL 2
REMARK VINA RESULT:      -8.4      2.423      4.925
REMARK  Name = 
REMARK  5 active torsions:
REMARK  status: ('A' for Active; 'I' for Inactive)
REMARK    1  A    between atoms: C_1  and  O_2
REMARK    2  A    between atoms: O_2  and  C_3
REMARK    3  A    between atoms: C_10  and  C_11
REMARK    4  A    between atoms: C_11  and  O_12
REMARK    5  A    between atoms: N_21  and  C_22
REMARK                            x       y       z     vdW  Elec       q    Type
REMARK                         _______ _______ _______ _____ _____    ______ ____
ROOT
ATOM      1  C   UNL     1       3.130   5.328  19.441  0.00  0.00    +0.000 C 
ATOM      2  C   UNL     1       2.106   4.219  19.343  0.00  0.00    +0.000 A 
ATOM      3  C   UNL     1       0.970   3.960  20.099  0.00  0.00    +0.000 A 
ATOM      4  C   UNL     1       0.215   2.818  19.796  0.00  0.00    +0.000 A 
ATOM      5  C   UNL     1       0.593   1.952  18.756  0.00  0.00    +0.000 A 
ATOM      6  C   UNL     1       1.738   2.210  18.008  0.00  0.00    +0.000 A 
ATOM      7  C   UNL     1       2.466   3.340  18.332  0.00  0.00    +0.000 A 
ATOM      8  C   UNL     1       3.701   3.812  17.721  0.00  0.00    +0.000 C 
ATOM      9  O   UNL     1       4.229   3.190  16.815  0.00  0.00    +0.000 OA
ATOM     10  N   UNL     1       4.077   4.994  18.365  0.00  0.00    +0.000 N 
ENDROOT
BRANCH   1  18
ATOM     11  C   UNL     1      -0.686  11.649  22.458  0.00  0.00    +0.000 C 
ATOM     12  O   UNL     1      -0.441  10.850  23.353  0.00  0.00    +0.000 OA
ATOM     13  N   UNL     1      -0.396  11.547  21.122  0.00  0.00    +0.000 N 
ATOM     14  C   UNL     1       0.247  10.461  20.599  0.00  0.00    +0.000 A 
ATOM     15  N   UNL     1       0.652   9.375  21.221  0.00  0.00    +0.000 NA
ATOM     16  C   UNL     1       1.275   8.600  20.283  0.00  0.00    +0.000 A 
ATOM     17  C   UNL     1       1.886   7.341  20.419  0.00  0.00    +0.000 A 
ATOM     18  C   UNL     1       2.493   6.725  19.300  0.00  0.00    +0.000 A 
ATOM     19  C   UNL     1       2.459   7.414  18.067  0.00  0.00    +0.000 A 
ATOM     20  C   UNL     1       1.838   8.664  17.908  0.00  0.00    +0.000 A 
ATOM     21  C   UNL     1       1.257   9.221  19.043  0.00  0.00    +0.000 A 
ATOM     22  N   UNL     1       0.566  10.388  19.263  0.00  0.00    +0.000 N 
ATOM     23  H   UNL     1      -0.656  12.336  20.551  0.00  0.00    +0.000 HD
ATOM     24  H   UNL     1       0.342  11.080  18.566  0.00  0.00    +0.000 HD
BRANCH  11  26
ATOM     25  C   UNL     1      -2.606  12.708  23.262  0.00  0.00    +0.000 C 
ATOM     26  O   UNL     1      -1.311  12.842  22.670  0.00  0.00    +0.000 OA
ENDBRANCH  11  26
ENDBRANCH   1  18
BRANCH  10  27
ATOM     27  C   UNL     1       5.212   5.782  17.996  0.00  0.00    +0.000 A 
ATOM     28  C   UNL     1       5.173   6.566  16.826  0.00  0.00    +0.000 A 
ATOM     29  C   UNL     1       6.218   7.429  16.486  0.00  0.00    +0.000 A 
ATOM     30  C   UNL     1       7.334   7.511  17.302  0.00  0.00    +0.000 A 
ATOM     31  F   UNL     1       8.311   8.368  16.972  0.00  0.00    +0.000 F 
ATOM     32  C   UNL     1       7.431   6.721  18.437  0.00  0.00    +0.000 A 
ATOM     33 CL   UNL     1       8.835   6.806  19.437  0.00  0.00    +0.000 Cl
ATOM     34  C   UNL     1       6.382   5.860  18.774  0.00  0.00    +0.000 A 
ATOM     35  F   UNL     1       6.547   5.082  19.852  0.00  0.00    +0.000 F 
ENDBRANCH  10  27
BRANCH   1  36
ATOM     36  O   UNL     1       3.774   5.095  20.686  0.00  0.00    +0.000 OA
ATOM     37  H   UNL     1       3.094   5.168  21.371  0.00  0.00    +0.000 HD
ENDBRANCH   1  36
TORSDOF 4
ENDMDL
MODEL 3
REMARK VINA RESULT:      -7.9      5.956      9.336
REMARK  Name = 
REMARK  5 active torsions:
REMARK  status: ('A' for Active; 'I' for Inactive)
REMARK    1  A    between atoms: C_1  and  O_2
REMARK    2  A    between atoms: O_2  and  C_3
REMARK    3  A    between atoms: C_10  and  C_11
REMARK    4  A    between atoms: C_11  and  O_12
REMARK    5  A    between atoms: N_21  and  C_22
REMARK                            x       y       z     vdW  Elec       q    Type
REMARK                         _______ _______ _______ _____ _____    ______ ____
ROOT
ATOM      1  C   UNL     1      -0.577  11.596  20.298  0.00  0.00    +0.000 C 
ATOM      2  C   UNL     1       0.308  10.404  20.007  0.00  0.00    +0.000 A 
ATOM      3  C   UNL     1       0.804   9.909  18.808  0.00  0.00    +0.000 A 
ATOM      4  C   UNL     1       1.586   8.746  18.839  0.00  0.00    +0.000 A 
ATOM      5  C   UNL     1       1.864   8.091  20.051  0.00  0.00    +0.000 A 
ATOM      6  C   UNL     1       1.357   8.584  21.249  0.00  0.00    +0.000 A 
ATOM      7  C   UNL     1       0.585   9.730  21.188  0.00  0.00    +0.000 A 
ATOM      8  C   UNL     1      -0.073  10.423  22.287  0.00  0.00    +0.000 C 
ATOM      9  O   UNL     1       0.008  10.005  23.429  0.00  0.00    +0.000 OA
ATOM     10  N   UNL     1      -0.739  11.533  21.759  0.00  0.00    +0.000 N 
ENDROOT
BRANCH   1  18
ATOM     11  C   UNL     1       5.659  16.391  18.981  0.00  0.00    +0.000 C 
ATOM     12  O   UNL     1       6.051  15.315  19.419  0.00  0.00    +0.000 OA
ATOM     13  N   UNL     1       4.371  16.792  18.738  0.00  0.00    +0.000 N 
ATOM     14  C   UNL     1       3.299  15.978  18.972  0.00  0.00    +0.000 A 
ATOM     15  N   UNL     1       3.294  14.761  19.469  0.00  0.00    +0.000 NA
ATOM     16  C   UNL     1       1.989  14.351  19.473  0.00  0.00    +0.000 A 
ATOM     17  C   UNL     1       1.432  13.132  19.901  0.00  0.00    +0.000 A 
ATOM     18  C   UNL     1       0.038  12.917  19.795  0.00  0.00    +0.000 A 
ATOM     19  C   UNL     1      -0.752  13.955  19.254  0.00  0.00    +0.000 A 
ATOM     20  C   UNL     1      -0.215  15.186  18.838  0.00  0.00    +0.000 A 
ATOM     21  C   UNL     1       1.161  15.341  18.967  0.00  0.00    +0.000 A 
ATOM     22  N   UNL     1       2.016  16.380  18.687  0.00  0.00    +0.000 N 
ATOM     23  H   UNL     1       4.263  17.713  18.343  0.00  0.00    +0.000 HD
ATOM     24  H   UNL     1       1.748  17.280  18.324  0.00  0.00    +0.000 HD
BRANCH  11  26
ATOM     25  C   UNL     1       7.874  17.021  18.593  0.00  0.00    +0.000 C 
ATOM     26  O   UNL     1       6.498  17.408  18.635  0.00  0.00    +0.000 OA
ENDBRANCH  11  26
ENDBRANCH   1  18
BRANCH  10  27
ATOM     27  C   UNL     1      -1.451  12.490  22.548  0.00  0.00    +0.000 A 
ATOM     28  C   UNL     1      -2.782  12.237  22.931  0.00  0.00    +0.000 A 
ATOM     29  C   UNL     1      -3.476  13.095  23.786  0.00  0.00    +0.000 A 
ATOM     30  C   UNL     1      -2.858  14.240  24.261  0.00  0.00    +0.000 A 
ATOM     31  F   UNL     1      -3.533  15.034  25.104  0.00  0.00    +0.000 F 
ATOM     32  C   UNL     1      -1.565  14.550  23.869  0.00  0.00    +0.000 A 
ATOM     33 CL   UNL     1      -0.806  15.991  24.441  0.00  0.00    +0.000 Cl
ATOM     34  C   UNL     1      -0.873  13.686  23.015  0.00  0.00    +0.000 A 
ATOM     35  F   UNL     1       0.355  14.057  22.627  0.00  0.00    +0.000 F 
ENDBRANCH  10  27
BRANCH   1  36
ATOM     36  O   UNL     1      -1.821  11.257  19.699  0.00  0.00    +0.000 OA
ATOM     37  H   UNL     1      -2.240  10.603  20.276  0.00  0.00    +0.000 HD
ENDBRANCH   1  36
TORSDOF 4
ENDMDL
MODEL 4
REMARK VINA RESULT:      -7.9      3.127      4.935
REMARK  Name = 
REMARK  5 active torsions:
REMARK  status: ('A' for Active; 'I' for Inactive)
REMARK    1  A    between atoms: C_1  and  O_2
REMARK    2  A    between atoms: O_2  and  C_3
REMARK    3  A    between atoms: C_10  and  C_11
REMARK    4  A    between atoms: C_11  and  O_12
REMARK    5  A    between atoms: N_21  and  C_22
REMARK                            x       y       z     vdW  Elec       q    Type
REMARK                         _______ _______ _______ _____ _____    ______ ____
ROOT
ATOM      1  C   UNL     1       4.076   4.947  19.217  0.00  0.00    +0.000 C 
ATOM      2  C   UNL     1       3.099   4.152  20.055  0.00  0.00    +0.000 A 
ATOM      3  C   UNL     1       2.450   4.468  21.242  0.00  0.00    +0.000 A 
ATOM      4  C   UNL     1       1.612   3.504  21.820  0.00  0.00    +0.000 A 
ATOM      5  C   UNL     1       1.431   2.246  21.220  0.00  0.00    +0.000 A 
ATOM      6  C   UNL     1       2.091   1.929  20.037  0.00  0.00    +0.000 A 
ATOM      7  C   UNL     1       2.915   2.897  19.492  0.00  0.00    +0.000 A 
ATOM      8  C   UNL     1       3.725   2.804  18.285  0.00  0.00    +0.000 C 
ATOM      9  O   UNL     1       3.745   1.781  17.622  0.00  0.00    +0.000 OA
ATOM     10  N   UNL     1       4.391   4.020  18.117  0.00  0.00    +0.000 N 
ENDROOT
BRANCH   1  18
ATOM     11  C   UNL     1      -0.643  11.291  20.264  0.00  0.00    +0.000 C 
ATOM     12  O   UNL     1      -0.676  10.584  21.264  0.00  0.00    +0.000 OA
ATOM     13  N   UNL     1       0.057  11.092  19.103  0.00  0.00    +0.000 N 
ATOM     14  C   UNL     1       0.857  10.001  18.915  0.00  0.00    +0.000 A 
ATOM     15  N   UNL     1       1.069   8.994  19.733  0.00  0.00    +0.000 NA
ATOM     16  C   UNL     1       1.975   8.177  19.116  0.00  0.00    +0.000 A 
ATOM     17  C   UNL     1       2.541   6.966  19.558  0.00  0.00    +0.000 A 
ATOM     18  C   UNL     1       3.484   6.291  18.750  0.00  0.00    +0.000 A 
ATOM     19  C   UNL     1       3.826   6.871  17.508  0.00  0.00    +0.000 A 
ATOM     20  C   UNL     1       3.259   8.070  17.042  0.00  0.00    +0.000 A 
ATOM     21  C   UNL     1       2.336   8.688  17.880  0.00  0.00    +0.000 A 
ATOM     22  N   UNL     1       1.584   9.833  17.759  0.00  0.00    +0.000 N 
ATOM     23  H   UNL     1      -0.028  11.816  18.406  0.00  0.00    +0.000 HD
ATOM     24  H   UNL     1       1.577  10.451  16.964  0.00  0.00    +0.000 HD
BRANCH  11  26
ATOM     25  C   UNL     1      -2.649  12.301  19.625  0.00  0.00    +0.000 C 
ATOM     26  O   UNL     1      -1.330  12.464  20.154  0.00  0.00    +0.000 OA
ENDBRANCH  11  26
ENDBRANCH   1  18
BRANCH  10  27
ATOM     27  C   UNL     1       5.236   4.326  17.004  0.00  0.00    +0.000 A 
ATOM     28  C   UNL     1       6.543   4.803  17.223  0.00  0.00    +0.000 A 
ATOM     29  C   UNL     1       7.434   5.013  16.169  0.00  0.00    +0.000 A 
ATOM     30  C   UNL     1       7.028   4.769  14.867  0.00  0.00    +0.000 A 
ATOM     31  F   UNL     1       7.909   4.949  13.873  0.00  0.00    +0.000 F 
ATOM     32  C   UNL     1       5.734   4.345  14.606  0.00  0.00    +0.000 A 
ATOM     33 CL   UNL     1       5.222   4.067  12.981  0.00  0.00    +0.000 Cl
ATOM     34  C   UNL     1       4.846   4.133  15.666  0.00  0.00    +0.000 A 
ATOM     35  F   UNL     1       3.594   3.772  15.356  0.00  0.00    +0.000 F 
ENDBRANCH  10  27
BRANCH   1  36
ATOM     36  O   UNL     1       5.227   5.062  20.043  0.00  0.00    +0.000 OA
ATOM     37  H   UNL     1       5.953   4.628  19.573  0.00  0.00    +0.000 HD
ENDBRANCH   1  36
TORSDOF 4
ENDMDL
MODEL 5
REMARK VINA RESULT:      -7.9      5.064     10.169
REMARK  Name = 
REMARK  5 active torsions:
REMARK  status: ('A' for Active; 'I' for Inactive)
REMARK    1  A    between atoms: C_1  and  O_2
REMARK    2  A    between atoms: O_2  and  C_3
REMARK    3  A    between atoms: C_10  and  C_11
REMARK    4  A    between atoms: C_11  and  O_12
REMARK    5  A    between atoms: N_21  and  C_22
REMARK                            x       y       z     vdW  Elec       q    Type
REMARK                         _______ _______ _______ _____ _____    ______ ____
ROOT
ATOM      1  C   UNL     1      -1.102  12.971  19.904  0.00  0.00    +0.000 C 
ATOM      2  C   UNL     1      -2.503  13.163  20.440  0.00  0.00    +0.000 A 
ATOM      3  C   UNL     1      -3.628  12.352  20.357  0.00  0.00    +0.000 A 
ATOM      4  C   UNL     1      -4.823  12.811  20.929  0.00  0.00    +0.000 A 
ATOM      5  C   UNL     1      -4.889  14.061  21.570  0.00  0.00    +0.000 A 
ATOM      6  C   UNL     1      -3.763  14.874  21.641  0.00  0.00    +0.000 A 
ATOM      7  C   UNL     1      -2.599  14.398  21.064  0.00  0.00    +0.000 A 
ATOM      8  C   UNL     1      -1.305  15.062  20.987  0.00  0.00    +0.000 C 
ATOM      9  O   UNL     1      -1.144  16.177  21.452  0.00  0.00    +0.000 OA
ATOM     10  N   UNL     1      -0.422  14.209  20.320  0.00  0.00    +0.000 N 
ENDROOT
BRANCH   1  18
ATOM     11  C   UNL     1       3.118   6.280  18.883  0.00  0.00    +0.000 C 
ATOM     12  O   UNL     1       3.058   6.896  17.825  0.00  0.00    +0.000 OA
ATOM     13  N   UNL     1       2.566   6.613  20.093  0.00  0.00    +0.000 N 
ATOM     14  C   UNL     1       1.833   7.752  20.269  0.00  0.00    +0.000 A 
ATOM     15  N   UNL     1       1.513   8.662  19.376  0.00  0.00    +0.000 NA
ATOM     16  C   UNL     1       0.809   9.627  20.041  0.00  0.00    +0.000 A 
ATOM     17  C   UNL     1       0.236  10.817  19.557  0.00  0.00    +0.000 A 
ATOM     18  C   UNL     1      -0.442  11.686  20.442  0.00  0.00    +0.000 A 
ATOM     19  C   UNL     1      -0.517  11.316  21.804  0.00  0.00    +0.000 A 
ATOM     20  C   UNL     1       0.034  10.124  22.303  0.00  0.00    +0.000 A 
ATOM     21  C   UNL     1       0.687   9.307  21.385  0.00  0.00    +0.000 A 
ATOM     22  N   UNL     1       1.318   8.091  21.498  0.00  0.00    +0.000 N 
ATOM     23  H   UNL     1       2.761   5.982  20.855  0.00  0.00    +0.000 HD
ATOM     24  H   UNL     1       1.400   7.548  22.342  0.00  0.00    +0.000 HD
BRANCH  11  26
ATOM     25  C   UNL     1       5.199   5.285  19.245  0.00  0.00    +0.000 C 
ATOM     26  O   UNL     1       3.796   5.107  19.029  0.00  0.00    +0.000 OA
ENDBRANCH  11  26
ENDBRANCH   1  18
BRANCH  10  27
ATOM     27  C   UNL     1       0.963  14.495  20.106  0.00  0.00    +0.000 A 
ATOM     28  C   UNL     1       1.934  13.962  20.976  0.00  0.00    +0.000 A 
ATOM     29  C   UNL     1       3.300  14.131  20.743  0.00  0.00    +0.000 A 
ATOM     30  C   UNL     1       3.725  14.857  19.642  0.00  0.00    +0.000 A 
ATOM     31  F   UNL     1       5.041  14.981  19.422  0.00  0.00    +0.000 F 
ATOM     32  C   UNL     1       2.800  15.439  18.789  0.00  0.00    +0.000 A 
ATOM     33 CL   UNL     1       3.332  16.365  17.433  0.00  0.00    +0.000 Cl
ATOM     34  C   UNL     1       1.433  15.264  19.025  0.00  0.00    +0.000 A 
ATOM     35  F   UNL     1       0.582  15.889  18.200  0.00  0.00    +0.000 F 
ENDBRANCH  10  27
BRANCH   1  36
ATOM     36  O   UNL     1      -1.263  13.007  18.492  0.00  0.00    +0.000 OA
ATOM     37  H   UNL     1      -2.020  13.582  18.312  0.00  0.00    +0.000 HD
ENDBRANCH   1  36
TORSDOF 4
ENDMDL
MODEL 6
REMARK VINA RESULT:      -7.9      4.805      9.712
REMARK  Name = 
REMARK  5 active torsions:
REMARK  status: ('A' for Active; 'I' for Inactive)
REMARK    1  A    between atoms: C_1  and  O_2
REMARK    2  A    between atoms: O_2  and  C_3
REMARK    3  A    between atoms: C_10  and  C_11
REMARK    4  A    between atoms: C_11  and  O_12
REMARK    5  A    between atoms: N_21  and  C_22
REMARK                            x       y       z     vdW  Elec       q    Type
REMARK                         _______ _______ _______ _____ _____    ______ ____
ROOT
ATOM      1  C   UNL     1      -0.593  12.630  19.310  0.00  0.00    +0.000 C 
ATOM      2  C   UNL     1      -2.001  12.888  19.800  0.00  0.00    +0.000 A 
ATOM      3  C   UNL     1      -3.148  12.110  19.725  0.00  0.00    +0.000 A 
ATOM      4  C   UNL     1      -4.342  12.631  20.244  0.00  0.00    +0.000 A 
ATOM      5  C   UNL     1      -4.384  13.910  20.825  0.00  0.00    +0.000 A 
ATOM      6  C   UNL     1      -3.235  14.692  20.889  0.00  0.00    +0.000 A 
ATOM      7  C   UNL     1      -2.073  14.154  20.365  0.00  0.00    +0.000 A 
ATOM      8  C   UNL     1      -0.757  14.774  20.290  0.00  0.00    +0.000 C 
ATOM      9  O   UNL     1      -0.572  15.904  20.708  0.00  0.00    +0.000 OA
ATOM     10  N   UNL     1       0.115  13.864  19.686  0.00  0.00    +0.000 N 
ENDROOT
BRANCH   1  18
ATOM     11  C   UNL     1       3.515   5.818  18.723  0.00  0.00    +0.000 C 
ATOM     12  O   UNL     1       3.517   6.395  17.642  0.00  0.00    +0.000 OA
ATOM     13  N   UNL     1       2.917   6.206  19.894  0.00  0.00    +0.000 N 
ATOM     14  C   UNL     1       2.203   7.366  19.996  0.00  0.00    +0.000 A 
ATOM     15  N   UNL     1       1.944   8.249  19.057  0.00  0.00    +0.000 NA
ATOM     16  C   UNL     1       1.233   9.253  19.654  0.00  0.00    +0.000 A 
ATOM     17  C   UNL     1       0.709  10.436  19.102  0.00  0.00    +0.000 A 
ATOM     18  C   UNL     1       0.012  11.351  19.923  0.00  0.00    +0.000 A 
ATOM     19  C   UNL     1      -0.133  11.034  21.292  0.00  0.00    +0.000 A 
ATOM     20  C   UNL     1       0.367   9.848  21.858  0.00  0.00    +0.000 A 
ATOM     21  C   UNL     1       1.043   8.985  21.001  0.00  0.00    +0.000 A 
ATOM     22  N   UNL     1       1.640   7.761  21.187  0.00  0.00    +0.000 N 
ATOM     23  H   UNL     1       3.063   5.600  20.686  0.00  0.00    +0.000 HD
ATOM     24  H   UNL     1       1.671   7.247  22.052  0.00  0.00    +0.000 HD
BRANCH  11  26
ATOM     25  C   UNL     1       5.584   4.760  18.950  0.00  0.00    +0.000 C 
ATOM     26  O   UNL     1       4.159   4.637  18.942  0.00  0.00    +0.000 OA
ENDBRANCH  11  26
ENDBRANCH   1  18
BRANCH  10  27
ATOM     27  C   UNL     1       1.513  14.098  19.496  0.00  0.00    +0.000 A 
ATOM     28  C   UNL     1       2.021  14.310  18.200  0.00  0.00    +0.000 A 
ATOM     29  C   UNL     1       3.359  14.645  17.981  0.00  0.00    +0.000 A 
ATOM     30  C   UNL     1       4.224  14.754  19.057  0.00  0.00    +0.000 A 
ATOM     31  F   UNL     1       5.497  15.106  18.826  0.00  0.00    +0.000 F 
ATOM     32  C   UNL     1       3.775  14.506  20.344  0.00  0.00    +0.000 A 
ATOM     33 CL   UNL     1       4.862  14.617  21.680  0.00  0.00    +0.000 Cl
ATOM     34  C   UNL     1       2.433  14.174  20.558  0.00  0.00    +0.000 A 
ATOM     35  F   UNL     1       2.062  13.895  21.815  0.00  0.00    +0.000 F 
ENDBRANCH  10  27
BRANCH   1  36
ATOM     36  O   UNL     1      -0.719  12.604  17.895  0.00  0.00    +0.000 OA
ATOM     37  H   UNL     1      -0.185  11.861  17.580  0.00  0.00    +0.000 HD
ENDBRANCH   1  36
TORSDOF 4
ENDMDL
MODEL 7
REMARK VINA RESULT:      -7.7      4.704      9.590
REMARK  Name = 
REMARK  5 active torsions:
REMARK  status: ('A' for Active; 'I' for Inactive)
REMARK    1  A    between atoms: C_1  and  O_2
REMARK    2  A    between atoms: O_2  and  C_3
REMARK    3  A    between atoms: C_10  and  C_11
REMARK    4  A    between atoms: C_11  and  O_12
REMARK    5  A    between atoms: N_21  and  C_22
REMARK                            x       y       z     vdW  Elec       q    Type
REMARK                         _______ _______ _______ _____ _____    ______ ____
ROOT
ATOM      1  C   UNL     1      -1.278  11.649  18.808  0.00  0.00    +0.000 C 
ATOM      2  C   UNL     1      -2.149  11.094  17.703  0.00  0.00    +0.000 A 
ATOM      3  C   UNL     1      -1.823  10.370  16.564  0.00  0.00    +0.000 A 
ATOM      4  C   UNL     1      -2.854  10.012  15.684  0.00  0.00    +0.000 A 
ATOM      5  C   UNL     1      -4.188  10.377  15.941  0.00  0.00    +0.000 A 
ATOM      6  C   UNL     1      -4.509  11.111  17.079  0.00  0.00    +0.000 A 
ATOM      7  C   UNL     1      -3.471  11.454  17.926  0.00  0.00    +0.000 A 
ATOM      8  C   UNL     1      -3.542  12.232  19.155  0.00  0.00    +0.000 C 
ATOM      9  O   UNL     1      -4.603  12.680  19.552  0.00  0.00    +0.000 OA
ATOM     10  N   UNL     1      -2.251  12.326  19.681  0.00  0.00    +0.000 N 
ENDROOT
BRANCH   1  18
ATOM     11  C   UNL     1       4.145   5.800  18.783  0.00  0.00    +0.000 C 
ATOM     12  O   UNL     1       4.092   6.318  17.674  0.00  0.00    +0.000 OA
ATOM     13  N   UNL     1       3.415   6.108  19.901  0.00  0.00    +0.000 N 
ATOM     14  C   UNL     1       2.477   7.102  19.907  0.00  0.00    +0.000 A 
ATOM     15  N   UNL     1       2.100   7.872  18.911  0.00  0.00    +0.000 NA
ATOM     16  C   UNL     1       1.168   8.734  19.419  0.00  0.00    +0.000 A 
ATOM     17  C   UNL     1       0.449   9.760  18.780  0.00  0.00    +0.000 A 
ATOM     18  C   UNL     1      -0.463  10.549  19.517  0.00  0.00    +0.000 A 
ATOM     19  C   UNL     1      -0.619  10.268  20.893  0.00  0.00    +0.000 A 
ATOM     20  C   UNL     1       0.077   9.236  21.545  0.00  0.00    +0.000 A 
ATOM     21  C   UNL     1       0.960   8.492  20.768  0.00  0.00    +0.000 A 
ATOM     22  N   UNL     1       1.780   7.425  21.047  0.00  0.00    +0.000 N 
ATOM     23  H   UNL     1       3.635   5.579  20.731  0.00  0.00    +0.000 HD
ATOM     24  H   UNL     1       1.865   6.966  21.940  0.00  0.00    +0.000 HD
BRANCH  11  26
ATOM     25  C   UNL     1       4.381   3.496  19.080  0.00  0.00    +0.000 C 
ATOM     26  O   UNL     1       5.000   4.786  19.095  0.00  0.00    +0.000 OA
ENDBRANCH  11  26
ENDBRANCH   1  18
BRANCH  10  27
ATOM     27  C   UNL     1      -1.934  12.968  20.920  0.00  0.00    +0.000 A 
ATOM     28  C   UNL     1      -2.392  12.420  22.133  0.00  0.00    +0.000 A 
ATOM     29  C   UNL     1      -2.019  12.954  23.368  0.00  0.00    +0.000 A 
ATOM     30  C   UNL     1      -1.192  14.065  23.414  0.00  0.00    +0.000 A 
ATOM     31  F   UNL     1      -0.823  14.543  24.610  0.00  0.00    +0.000 F 
ATOM     32  C   UNL     1      -0.758  14.663  22.241  0.00  0.00    +0.000 A 
ATOM     33 CL   UNL     1       0.250  16.062  22.301  0.00  0.00    +0.000 Cl
ATOM     34  C   UNL     1      -1.133  14.122  21.007  0.00  0.00    +0.000 A 
ATOM     35  F   UNL     1      -0.728  14.767  19.905  0.00  0.00    +0.000 F 
ENDBRANCH  10  27
BRANCH   1  36
ATOM     36  O   UNL     1      -0.493  12.644  18.164  0.00  0.00    +0.000 OA
ATOM     37  H   UNL     1      -0.546  13.440  18.711  0.00  0.00    +0.000 HD
ENDBRANCH   1  36
TORSDOF 4
ENDMDL
MODEL 8
REMARK VINA RESULT:      -7.7      4.872     10.737
REMARK  Name = 
REMARK  5 active torsions:
REMARK  status: ('A' for Active; 'I' for Inactive)
REMARK    1  A    between atoms: C_1  and  O_2
REMARK    2  A    between atoms: O_2  and  C_3
REMARK    3  A    between atoms: C_10  and  C_11
REMARK    4  A    between atoms: C_11  and  O_12
REMARK    5  A    between atoms: N_21  and  C_22
REMARK                            x       y       z     vdW  Elec       q    Type
REMARK                         _______ _______ _______ _____ _____    ______ ____
ROOT
ATOM      1  C   UNL     1      -2.482  13.335  20.986  0.00  0.00    +0.000 C 
ATOM      2  C   UNL     1      -3.698  13.511  21.870  0.00  0.00    +0.000 A 
ATOM      3  C   UNL     1      -4.754  12.652  22.147  0.00  0.00    +0.000 A 
ATOM      4  C   UNL     1      -5.777  13.106  22.992  0.00  0.00    +0.000 A 
ATOM      5  C   UNL     1      -5.741  14.397  23.547  0.00  0.00    +0.000 A 
ATOM      6  C   UNL     1      -4.687  15.257  23.259  0.00  0.00    +0.000 A 
ATOM      7  C   UNL     1      -3.695  14.785  22.418  0.00  0.00    +0.000 A 
ATOM      8  C   UNL     1      -2.510  15.492  21.950  0.00  0.00    +0.000 C 
ATOM      9  O   UNL     1      -2.296  16.645  22.283  0.00  0.00    +0.000 OA
ATOM     10  N   UNL     1      -1.790  14.626  21.123  0.00  0.00    +0.000 N 
ENDROOT
BRANCH   1  18
ATOM     11  C   UNL     1       2.429   7.281  19.296  0.00  0.00    +0.000 C 
ATOM     12  O   UNL     1       2.207   7.928  18.280  0.00  0.00    +0.000 OA
ATOM     13  N   UNL     1       1.941   7.489  20.560  0.00  0.00    +0.000 N 
ATOM     14  C   UNL     1       1.091   8.517  20.852  0.00  0.00    +0.000 A 
ATOM     15  N   UNL     1       0.589   9.417  20.035  0.00  0.00    +0.000 NA
ATOM     16  C   UNL     1      -0.171  10.256  20.802  0.00  0.00    +0.000 A 
ATOM     17  C   UNL     1      -0.924  11.383  20.425  0.00  0.00    +0.000 A 
ATOM     18  C   UNL     1      -1.628  12.121  21.404  0.00  0.00    +0.000 A 
ATOM     19  C   UNL     1      -1.546  11.687  22.746  0.00  0.00    +0.000 A 
ATOM     20  C   UNL     1      -0.814  10.553  23.138  0.00  0.00    +0.000 A 
ATOM     21  C   UNL     1      -0.142   9.866  22.132  0.00  0.00    +0.000 A 
ATOM     22  N   UNL     1       0.640   8.736  22.133  0.00  0.00    +0.000 N 
ATOM     23  H   UNL     1       2.274   6.856  21.271  0.00  0.00    +0.000 HD
ATOM     24  H   UNL     1       0.857   8.172  22.938  0.00  0.00    +0.000 HD
BRANCH  11  26
ATOM     25  C   UNL     1       2.768   5.136  20.154  0.00  0.00    +0.000 C 
ATOM     26  O   UNL     1       3.255   6.198  19.328  0.00  0.00    +0.000 OA
ENDBRANCH  11  26
ENDBRANCH   1  18
BRANCH  10  27
ATOM     27  C   UNL     1      -0.532  14.950  20.523  0.00  0.00    +0.000 A 
ATOM     28  C   UNL     1      -0.493  15.519  19.236  0.00  0.00    +0.000 A 
ATOM     29  C   UNL     1       0.705  15.945  18.658  0.00  0.00    +0.000 A 
ATOM     30  C   UNL     1       1.894  15.793  19.351  0.00  0.00    +0.000 A 
ATOM     31  F   UNL     1       3.028  16.236  18.790  0.00  0.00    +0.000 F 
ATOM     32  C   UNL     1       1.904  15.194  20.601  0.00  0.00    +0.000 A 
ATOM     33 CL   UNL     1       3.391  14.981  21.451  0.00  0.00    +0.000 Cl
ATOM     34  C   UNL     1       0.701  14.771  21.176  0.00  0.00    +0.000 A 
ATOM     35  F   UNL     1       0.772  14.153  22.363  0.00  0.00    +0.000 F 
ENDBRANCH  10  27
BRANCH   1  36
ATOM     36  O   UNL     1      -3.018  13.256  19.672  0.00  0.00    +0.000 OA
ATOM     37  H   UNL     1      -3.580  12.468  19.646  0.00  0.00    +0.000 HD
ENDBRANCH   1  36
TORSDOF 4
ENDMDL
MODEL 9
REMARK VINA RESULT:      -7.7      5.037      9.884
REMARK  Name = 
REMARK  5 active torsions:
REMARK  status: ('A' for Active; 'I' for Inactive)
REMARK    1  A    between atoms: C_1  and  O_2
REMARK    2  A    between atoms: O_2  and  C_3
REMARK    3  A    between atoms: C_10  and  C_11
REMARK    4  A    between atoms: C_11  and  O_12
REMARK    5  A    between atoms: N_21  and  C_22
REMARK                            x       y       z     vdW  Elec       q    Type
REMARK                         _______ _______ _______ _____ _____    ______ ____
ROOT
ATOM      1  C   UNL     1      -0.685  12.501  19.139  0.00  0.00    +0.000 C 
ATOM      2  C   UNL     1      -2.174  12.506  19.409  0.00  0.00    +0.000 A 
ATOM      3  C   UNL     1      -3.180  11.652  18.978  0.00  0.00    +0.000 A 
ATOM      4  C   UNL     1      -4.499  11.927  19.366  0.00  0.00    +0.000 A 
ATOM      5  C   UNL     1      -4.803  13.039  20.170  0.00  0.00    +0.000 A 
ATOM      6  C   UNL     1      -3.793  13.899  20.591  0.00  0.00    +0.000 A 
ATOM      7  C   UNL     1      -2.502  13.606  20.189  0.00  0.00    +0.000 A 
ATOM      8  C   UNL     1      -1.287  14.355  20.475  0.00  0.00    +0.000 C 
ATOM      9  O   UNL     1      -1.323  15.381  21.133  0.00  0.00    +0.000 OA
ATOM     10  N   UNL     1      -0.217  13.690  19.870  0.00  0.00    +0.000 N 
ENDROOT
BRANCH   1  18
ATOM     11  C   UNL     1       4.048   6.219  17.818  0.00  0.00    +0.000 C 
ATOM     12  O   UNL     1       4.078   6.968  16.850  0.00  0.00    +0.000 OA
ATOM     13  N   UNL     1       3.332   6.357  18.979  0.00  0.00    +0.000 N 
ATOM     14  C   UNL     1       2.512   7.425  19.205  0.00  0.00    +0.000 A 
ATOM     15  N   UNL     1       2.245   8.432  18.402  0.00  0.00    +0.000 NA
ATOM     16  C   UNL     1       1.405   9.263  19.090  0.00  0.00    +0.000 A 
ATOM     17  C   UNL     1       0.820  10.480  18.692  0.00  0.00    +0.000 A 
ATOM     18  C   UNL     1      -0.015  11.188  19.587  0.00  0.00    +0.000 A 
ATOM     19  C   UNL     1      -0.232  10.633  20.868  0.00  0.00    +0.000 A 
ATOM     20  C   UNL     1       0.329   9.411  21.277  0.00  0.00    +0.000 A 
ATOM     21  C   UNL     1       1.140   8.759  20.354  0.00  0.00    +0.000 A 
ATOM     22  N   UNL     1       1.829   7.570  20.390  0.00  0.00    +0.000 N 
ATOM     23  H   UNL     1       3.473   5.638  19.673  0.00  0.00    +0.000 HD
ATOM     24  H   UNL     1       1.842   6.921  21.160  0.00  0.00    +0.000 HD
BRANCH  11  26
ATOM     25  C   UNL     1       4.703   4.439  19.180  0.00  0.00    +0.000 C 
ATOM     26  O   UNL     1       4.777   5.069  17.899  0.00  0.00    +0.000 OA
ENDBRANCH  11  26
ENDBRANCH   1  18
BRANCH  10  27
ATOM     27  C   UNL     1       1.149  14.097  19.984  0.00  0.00    +0.000 A 
ATOM     28  C   UNL     1       1.965  13.551  20.993  0.00  0.00    +0.000 A 
ATOM     29  C   UNL     1       3.328  13.843  21.074  0.00  0.00    +0.000 A 
ATOM     30  C   UNL     1       3.901  14.706  20.155  0.00  0.00    +0.000 A 
ATOM     31  F   UNL     1       5.217  14.949  20.233  0.00  0.00    +0.000 F 
ATOM     32  C   UNL     1       3.123  15.303  19.175  0.00  0.00    +0.000 A 
ATOM     33 CL   UNL     1       3.834  16.399  18.048  0.00  0.00    +0.000 Cl
ATOM     34  C   UNL     1       1.759  15.005  19.097  0.00  0.00    +0.000 A 
ATOM     35  F   UNL     1       1.042  15.646  18.164  0.00  0.00    +0.000 F 
ENDBRANCH  10  27
BRANCH   1  36
ATOM     36  O   UNL     1      -0.586  12.771  17.746  0.00  0.00    +0.000 OA
ATOM     37  H   UNL     1      -0.014  13.546  17.652  0.00  0.00    +0.000 HD
ENDBRANCH   1  36
TORSDOF 4
ENDMDL
