MODEL 1
REMARK VINA RESULT:      -8.4      0.000      0.000
REMARK  Name = 
REMARK  8 active torsions:
REMARK  status: ('A' for Active; 'I' for Inactive)
REMARK    1  A    between atoms: C_1  and  C_2
REMARK    2  A    between atoms: C_2  and  C_3
REMARK    3  A    between atoms: C_3  and  C_4
REMARK    4  A    between atoms: C_4  and  N_5
REMARK    5  A    between atoms: N_8  and  N_9
REMARK    6  A    between atoms: C_10  and  C_11
REMARK    7  A    between atoms: C_14  and  C_15
REMARK    8  A    between atoms: N_23  and  C_24
REMARK                            x       y       z     vdW  Elec       q    Type
REMARK                         _______ _______ _______ _____ _____    ______ ____
ROOT
ATOM      1  C   UNL     1       4.725   4.988  16.444  0.00  0.00    +0.000 A 
ATOM      2  C   UNL     1       3.625   4.449  17.123  0.00  0.00    +0.000 A 
ATOM      3  C   UNL     1       2.849   5.247  17.966  0.00  0.00    +0.000 A 
ATOM      4  C   UNL     1       3.163   6.601  18.124  0.00  0.00    +0.000 A 
ATOM      5  C   UNL     1       4.262   7.140  17.441  0.00  0.00    +0.000 A 
ATOM      6  C   UNL     1       5.047   6.335  16.604  0.00  0.00    +0.000 A 
ENDROOT
BRANCH   4   7
ATOM      7  C   UNL     1       2.332   7.450  19.041  0.00  0.00    +0.000 A 
ATOM      8  C   UNL     1       1.918   7.104  20.319  0.00  0.00    +0.000 A 
ATOM      9  N   UNL     1       1.226   8.174  20.845  0.00  0.00    +0.000 N 
ATOM     10  C   UNL     1       0.683   8.289  22.112  0.00  0.00    +0.000 A 
ATOM     11  C   UNL     1       0.008   9.420  22.397  0.00  0.00    +0.000 A 
ATOM     12  C   UNL     1      -0.168  10.495  21.432  0.00  0.00    +0.000 A 
ATOM     13  C   UNL     1       0.381  10.396  20.210  0.00  0.00    +0.000 A 
ATOM     14  C   UNL     1       1.136   9.140  19.916  0.00  0.00    +0.000 A 
ATOM     15  N   UNL     1       1.792   8.736  18.817  0.00  0.00    +0.000 N 
ATOM     16  C   UNL     1       1.805   9.455  17.549  0.00  0.00    +0.000 C 
ENDBRANCH   4   7
BRANCH   1  18
ATOM     17  N   UNL     1       5.628   4.363  14.304  0.00  0.00    +0.000 NA
ATOM     18  C   UNL     1       5.547   4.112  15.579  0.00  0.00    +0.000 C 
BRANCH  17  22
ATOM     19  N   UNL     1       4.893   3.503  11.827  0.00  0.00    +0.000 N 
ATOM     20  C   UNL     1       6.042   3.004  12.349  0.00  0.00    +0.000 C 
ATOM     21  N   UNL     1       6.781   2.124  11.766  0.00  0.00    +0.000 NA
ATOM     22  N   UNL     1       6.387   3.509  13.573  0.00  0.00    +0.000 N 
ATOM     23  H   UNL     1       4.556   4.320  12.325  0.00  0.00    +0.000 HD
ATOM     24  H   UNL     1       6.358   1.931  10.855  0.00  0.00    +0.000 HD
ATOM     25  H   UNL     1       7.229   3.078  13.947  0.00  0.00    +0.000 HD
BRANCH  19  26
ATOM     26  C   UNL     1       3.949   2.802  10.982  0.00  0.00    +0.000 C 
BRANCH  26  27
ATOM     27  C   UNL     1       2.799   3.689  10.481  0.00  0.00    +0.000 C 
BRANCH  27  29
ATOM     28  C   UNL     1       2.012   5.311   8.700  0.00  0.00    +0.000 C 
ATOM     29  C   UNL     1       3.059   4.278   9.093  0.00  0.00    +0.000 C 
ENDBRANCH  27  29
ENDBRANCH  26  27
ENDBRANCH  19  26
ENDBRANCH  17  22
ENDBRANCH   1  18
TORSDOF 6
ENDMDL
MODEL 2
REMARK VINA RESULT:      -8.1      0.627      1.510
REMARK  Name = 
REMARK  8 active torsions:
REMARK  status: ('A' for Active; 'I' for Inactive)
REMARK    1  A    between atoms: C_1  and  C_2
REMARK    2  A    between atoms: C_2  and  C_3
REMARK    3  A    between atoms: C_3  and  C_4
REMARK    4  A    between atoms: C_4  and  N_5
REMARK    5  A    between atoms: N_8  and  N_9
REMARK    6  A    between atoms: C_10  and  C_11
REMARK    7  A    between atoms: C_14  and  C_15
REMARK    8  A    between atoms: N_23  and  C_24
REMARK                            x       y       z     vdW  Elec       q    Type
REMARK                         _______ _______ _______ _____ _____    ______ ____
ROOT
ATOM      1  C   UNL     1       4.952   5.198  16.354  0.00  0.00    +0.000 A 
ATOM      2  C   UNL     1       3.909   4.587  17.063  0.00  0.00    +0.000 A 
ATOM      3  C   UNL     1       3.089   5.338  17.907  0.00  0.00    +0.000 A 
ATOM      4  C   UNL     1       3.299   6.714  18.038  0.00  0.00    +0.000 A 
ATOM      5  C   UNL     1       4.340   7.325  17.326  0.00  0.00    +0.000 A 
ATOM      6  C   UNL     1       5.171   6.568  16.487  0.00  0.00    +0.000 A 
ENDROOT
BRANCH   4   7
ATOM      7  C   UNL     1       2.420   7.513  18.957  0.00  0.00    +0.000 A 
ATOM      8  C   UNL     1       2.016   8.824  18.758  0.00  0.00    +0.000 A 
ATOM      9  N   UNL     1       1.177   9.170  19.797  0.00  0.00    +0.000 N 
ATOM     10  C   UNL     1       0.499  10.363  19.974  0.00  0.00    +0.000 A 
ATOM     11  C   UNL     1      -0.239  10.496  21.093  0.00  0.00    +0.000 A 
ATOM     12  C   UNL     1      -0.336   9.450  22.101  0.00  0.00    +0.000 A 
ATOM     13  C   UNL     1       0.301   8.281  21.917  0.00  0.00    +0.000 A 
ATOM     14  C   UNL     1       1.104   8.147  20.664  0.00  0.00    +0.000 A 
ATOM     15  N   UNL     1       1.843   7.133  20.187  0.00  0.00    +0.000 N 
ATOM     16  C   UNL     1       2.118   5.899  20.912  0.00  0.00    +0.000 C 
ENDBRANCH   4   7
BRANCH   1  18
ATOM     17  N   UNL     1       5.489   4.171  14.247  0.00  0.00    +0.000 NA
ATOM     18  C   UNL     1       5.823   4.373  15.488  0.00  0.00    +0.000 C 
BRANCH  17  22
ATOM     19  N   UNL     1       4.919   3.381  11.704  0.00  0.00    +0.000 N 
ATOM     20  C   UNL     1       6.069   2.924  12.260  0.00  0.00    +0.000 C 
ATOM     21  N   UNL     1       6.884   2.112  11.678  0.00  0.00    +0.000 NA
ATOM     22  N   UNL     1       6.328   3.394  13.519  0.00  0.00    +0.000 N 
ATOM     23  H   UNL     1       4.512   4.155  12.218  0.00  0.00    +0.000 HD
ATOM     24  H   UNL     1       6.515   1.936  10.740  0.00  0.00    +0.000 HD
ATOM     25  H   UNL     1       7.175   2.994  13.915  0.00  0.00    +0.000 HD
BRANCH  19  26
ATOM     26  C   UNL     1       4.056   2.666  10.786  0.00  0.00    +0.000 C 
BRANCH  26  27
ATOM     27  C   UNL     1       2.824   3.471  10.350  0.00  0.00    +0.000 C 
BRANCH  27  29
ATOM     28  C   UNL     1       1.934   5.274   8.808  0.00  0.00    +0.000 C 
ATOM     29  C   UNL     1       3.060   4.284   9.076  0.00  0.00    +0.000 C 
ENDBRANCH  27  29
ENDBRANCH  26  27
ENDBRANCH  19  26
ENDBRANCH  17  22
ENDBRANCH   1  18
TORSDOF 6
ENDMDL
MODEL 3
REMARK VINA RESULT:      -8.0      0.663      1.805
REMARK  Name = 
REMARK  8 active torsions:
REMARK  status: ('A' for Active; 'I' for Inactive)
REMARK    1  A    between atoms: C_1  and  C_2
REMARK    2  A    between atoms: C_2  and  C_3
REMARK    3  A    between atoms: C_3  and  C_4
REMARK    4  A    between atoms: C_4  and  N_5
REMARK    5  A    between atoms: N_8  and  N_9
REMARK    6  A    between atoms: C_10  and  C_11
REMARK    7  A    between atoms: C_14  and  C_15
REMARK    8  A    between atoms: N_23  and  C_24
REMARK                            x       y       z     vdW  Elec       q    Type
REMARK                         _______ _______ _______ _____ _____    ______ ____
ROOT
ATOM      1  C   UNL     1       4.515   4.903  16.462  0.00  0.00    +0.000 A 
ATOM      2  C   UNL     1       4.804   6.274  16.466  0.00  0.00    +0.000 A 
ATOM      3  C   UNL     1       4.081   7.150  17.279  0.00  0.00    +0.000 A 
ATOM      4  C   UNL     1       3.070   6.655  18.108  0.00  0.00    +0.000 A 
ATOM      5  C   UNL     1       2.785   5.282  18.106  0.00  0.00    +0.000 A 
ATOM      6  C   UNL     1       3.503   4.405  17.280  0.00  0.00    +0.000 A 
ENDROOT
BRANCH   4   7
ATOM      7  C   UNL     1       2.290   7.604  18.971  0.00  0.00    +0.000 A 
ATOM      8  C   UNL     1       1.974   8.916  18.656  0.00  0.00    +0.000 A 
ATOM      9  N   UNL     1       1.204   9.424  19.681  0.00  0.00    +0.000 N 
ATOM     10  C   UNL     1       0.621  10.677  19.760  0.00  0.00    +0.000 A 
ATOM     11  C   UNL     1      -0.060  10.973  20.884  0.00  0.00    +0.000 A 
ATOM     12  C   UNL     1      -0.193  10.040  21.993  0.00  0.00    +0.000 A 
ATOM     13  C   UNL     1       0.350   8.814  21.906  0.00  0.00    +0.000 A 
ATOM     14  C   UNL     1       1.091   8.499  20.648  0.00  0.00    +0.000 A 
ATOM     15  N   UNL     1       1.735   7.389  20.251  0.00  0.00    +0.000 N 
ATOM     16  C   UNL     1       1.948   6.214  21.086  0.00  0.00    +0.000 C 
ENDBRANCH   4   7
BRANCH   1  18
ATOM     17  N   UNL     1       5.774   4.466  14.460  0.00  0.00    +0.000 NA
ATOM     18  C   UNL     1       5.278   4.002  15.570  0.00  0.00    +0.000 C 
BRANCH  17  22
ATOM     19  N   UNL     1       4.914   3.733  11.982  0.00  0.00    +0.000 N 
ATOM     20  C   UNL     1       6.035   3.135  12.460  0.00  0.00    +0.000 C 
ATOM     21  N   UNL     1       6.692   2.218  11.835  0.00  0.00    +0.000 NA
ATOM     22  N   UNL     1       6.448   3.579  13.687  0.00  0.00    +0.000 N 
ATOM     23  H   UNL     1       4.652   4.558  12.510  0.00  0.00    +0.000 HD
ATOM     24  H   UNL     1       6.232   2.083  10.931  0.00  0.00    +0.000 HD
ATOM     25  H   UNL     1       7.264   3.076  14.027  0.00  0.00    +0.000 HD
BRANCH  19  26
ATOM     26  C   UNL     1       3.899   3.127  11.145  0.00  0.00    +0.000 C 
BRANCH  26  27
ATOM     27  C   UNL     1       3.713   3.838   9.797  0.00  0.00    +0.000 C 
BRANCH  27  29
ATOM     28  C   UNL     1       2.076   5.399   8.654  0.00  0.00    +0.000 C 
ATOM     29  C   UNL     1       2.246   4.123   9.468  0.00  0.00    +0.000 C 
ENDBRANCH  27  29
ENDBRANCH  26  27
ENDBRANCH  19  26
ENDBRANCH  17  22
ENDBRANCH   1  18
TORSDOF 6
ENDMDL
MODEL 4
REMARK VINA RESULT:      -7.7      3.990      5.924
REMARK  Name = 
REMARK  8 active torsions:
REMARK  status: ('A' for Active; 'I' for Inactive)
REMARK    1  A    between atoms: C_1  and  C_2
REMARK    2  A    between atoms: C_2  and  C_3
REMARK    3  A    between atoms: C_3  and  C_4
REMARK    4  A    between atoms: C_4  and  N_5
REMARK    5  A    between atoms: N_8  and  N_9
REMARK    6  A    between atoms: C_10  and  C_11
REMARK    7  A    between atoms: C_14  and  C_15
REMARK    8  A    between atoms: N_23  and  C_24
REMARK                            x       y       z     vdW  Elec       q    Type
REMARK                         _______ _______ _______ _____ _____    ______ ____
ROOT
ATOM      1  C   UNL     1       2.396   7.927  18.619  0.00  0.00    +0.000 A 
ATOM      2  C   UNL     1       1.966   9.063  17.922  0.00  0.00    +0.000 A 
ATOM      3  C   UNL     1       1.106   9.983  18.523  0.00  0.00    +0.000 A 
ATOM      4  C   UNL     1       0.679   9.779  19.839  0.00  0.00    +0.000 A 
ATOM      5  C   UNL     1       1.113   8.643  20.538  0.00  0.00    +0.000 A 
ATOM      6  C   UNL     1       1.968   7.713  19.928  0.00  0.00    +0.000 A 
ENDROOT
BRANCH   4   7
ATOM      7  C   UNL     1      -0.255  10.766  20.476  0.00  0.00    +0.000 A 
ATOM      8  C   UNL     1      -0.175  11.239  21.777  0.00  0.00    +0.000 A 
ATOM      9  N   UNL     1      -1.181  12.166  21.953  0.00  0.00    +0.000 N 
ATOM     10  C   UNL     1      -1.439  12.930  23.078  0.00  0.00    +0.000 A 
ATOM     11  C   UNL     1      -2.509  13.748  23.038  0.00  0.00    +0.000 A 
ATOM     12  C   UNL     1      -3.384  13.845  21.879  0.00  0.00    +0.000 A 
ATOM     13  C   UNL     1      -3.117  13.124  20.777  0.00  0.00    +0.000 A 
ATOM     14  C   UNL     1      -1.921  12.232  20.834  0.00  0.00    +0.000 A 
ATOM     15  N   UNL     1      -1.390  11.399  19.924  0.00  0.00    +0.000 N 
ATOM     16  C   UNL     1      -1.991  11.095  18.632  0.00  0.00    +0.000 C 
ENDBRANCH   4   7
BRANCH   1  18
ATOM     17  N   UNL     1       3.774   5.955  18.624  0.00  0.00    +0.000 NA
ATOM     18  C   UNL     1       3.286   6.954  17.947  0.00  0.00    +0.000 C 
BRANCH  17  22
ATOM     19  N   UNL     1       2.919   3.574  17.618  0.00  0.00    +0.000 N 
ATOM     20  C   UNL     1       4.231   3.885  17.466  0.00  0.00    +0.000 C 
ATOM     21  N   UNL     1       5.100   3.110  16.913  0.00  0.00    +0.000 NA
ATOM     22  N   UNL     1       4.592   5.114  17.946  0.00  0.00    +0.000 N 
ATOM     23  H   UNL     1       2.354   4.372  17.888  0.00  0.00    +0.000 HD
ATOM     24  H   UNL     1       4.600   2.277  16.593  0.00  0.00    +0.000 HD
ATOM     25  H   UNL     1       5.590   5.289  17.851  0.00  0.00    +0.000 HD
BRANCH  19  26
ATOM     26  C   UNL     1       2.360   2.257  17.842  0.00  0.00    +0.000 C 
BRANCH  26  27
ATOM     27  C   UNL     1       1.157   2.255  18.796  0.00  0.00    +0.000 C 
BRANCH  27  29
ATOM     28  C   UNL     1       1.424   3.333  21.073  0.00  0.00    +0.000 C 
ATOM     29  C   UNL     1       1.040   3.542  19.615  0.00  0.00    +0.000 C 
ENDBRANCH  27  29
ENDBRANCH  26  27
ENDBRANCH  19  26
ENDBRANCH  17  22
ENDBRANCH   1  18
TORSDOF 6
ENDMDL
MODEL 5
REMARK VINA RESULT:      -7.6      3.927      5.875
REMARK  Name = 
REMARK  8 active torsions:
REMARK  status: ('A' for Active; 'I' for Inactive)
REMARK    1  A    between atoms: C_1  and  C_2
REMARK    2  A    between atoms: C_2  and  C_3
REMARK    3  A    between atoms: C_3  and  C_4
REMARK    4  A    between atoms: C_4  and  N_5
REMARK    5  A    between atoms: N_8  and  N_9
REMARK    6  A    between atoms: C_10  and  C_11
REMARK    7  A    between atoms: C_14  and  C_15
REMARK    8  A    between atoms: N_23  and  C_24
REMARK                            x       y       z     vdW  Elec       q    Type
REMARK                         _______ _______ _______ _____ _____    ______ ____
ROOT
ATOM      1  C   UNL     1       2.383   8.128  18.481  0.00  0.00    +0.000 A 
ATOM      2  C   UNL     1       1.936   7.876  19.785  0.00  0.00    +0.000 A 
ATOM      3  C   UNL     1       1.068   8.764  20.423  0.00  0.00    +0.000 A 
ATOM      4  C   UNL     1       0.628   9.908  19.752  0.00  0.00    +0.000 A 
ATOM      5  C   UNL     1       1.073  10.158  18.446  0.00  0.00    +0.000 A 
ATOM      6  C   UNL     1       1.954   9.272  17.811  0.00  0.00    +0.000 A 
ENDROOT
BRANCH   4   7
ATOM      7  C   UNL     1      -0.296  10.865  20.448  0.00  0.00    +0.000 A 
ATOM      8  C   UNL     1      -0.174  11.307  21.757  0.00  0.00    +0.000 A 
ATOM      9  N   UNL     1      -1.185  12.214  21.994  0.00  0.00    +0.000 N 
ATOM     10  C   UNL     1      -1.411  12.945  23.147  0.00  0.00    +0.000 A 
ATOM     11  C   UNL     1      -2.493  13.748  23.168  0.00  0.00    +0.000 A 
ATOM     12  C   UNL     1      -3.411  13.862  22.045  0.00  0.00    +0.000 A 
ATOM     13  C   UNL     1      -3.177  13.173  20.915  0.00  0.00    +0.000 A 
ATOM     14  C   UNL     1      -1.967  12.297  20.905  0.00  0.00    +0.000 A 
ATOM     15  N   UNL     1      -1.459  11.496  19.955  0.00  0.00    +0.000 N 
ATOM     16  C   UNL     1      -2.103  11.216  18.678  0.00  0.00    +0.000 C 
ENDBRANCH   4   7
BRANCH   1  18
ATOM     17  N   UNL     1       3.606   6.057  18.428  0.00  0.00    +0.000 NA
ATOM     18  C   UNL     1       3.325   7.184  17.840  0.00  0.00    +0.000 C 
BRANCH  17  22
ATOM     19  N   UNL     1       2.920   3.598  17.481  0.00  0.00    +0.000 N 
ATOM     20  C   UNL     1       4.213   3.987  17.340  0.00  0.00    +0.000 C 
ATOM     21  N   UNL     1       5.139   3.254  16.824  0.00  0.00    +0.000 NA
ATOM     22  N   UNL     1       4.487   5.251  17.788  0.00  0.00    +0.000 N 
ATOM     23  H   UNL     1       2.301   4.365  17.718  0.00  0.00    +0.000 HD
ATOM     24  H   UNL     1       4.699   2.382  16.522  0.00  0.00    +0.000 HD
ATOM     25  H   UNL     1       5.473   5.486  17.703  0.00  0.00    +0.000 HD
BRANCH  19  26
ATOM     26  C   UNL     1       2.443   2.255  17.735  0.00  0.00    +0.000 C 
BRANCH  26  27
ATOM     27  C   UNL     1       1.402   2.177  18.862  0.00  0.00    +0.000 C 
BRANCH  27  29
ATOM     28  C   UNL     1       0.986   4.109  20.448  0.00  0.00    +0.000 C 
ATOM     29  C   UNL     1       1.848   2.893  20.138  0.00  0.00    +0.000 C 
ENDBRANCH  27  29
ENDBRANCH  26  27
ENDBRANCH  19  26
ENDBRANCH  17  22
ENDBRANCH   1  18
TORSDOF 6
ENDMDL
MODEL 6
REMARK VINA RESULT:      -7.6      3.712      5.647
REMARK  Name = 
REMARK  8 active torsions:
REMARK  status: ('A' for Active; 'I' for Inactive)
REMARK    1  A    between atoms: C_1  and  C_2
REMARK    2  A    between atoms: C_2  and  C_3
REMARK    3  A    between atoms: C_3  and  C_4
REMARK    4  A    between atoms: C_4  and  N_5
REMARK    5  A    between atoms: N_8  and  N_9
REMARK    6  A    between atoms: C_10  and  C_11
REMARK    7  A    between atoms: C_14  and  C_15
REMARK    8  A    between atoms: N_23  and  C_24
REMARK                            x       y       z     vdW  Elec       q    Type
REMARK                         _______ _______ _______ _____ _____    ______ ____
ROOT
ATOM      1  C   UNL     1       2.590   7.667  18.336  0.00  0.00    +0.000 A 
ATOM      2  C   UNL     1       2.116   8.833  17.722  0.00  0.00    +0.000 A 
ATOM      3  C   UNL     1       1.260   9.699  18.406  0.00  0.00    +0.000 A 
ATOM      4  C   UNL     1       0.882   9.408  19.720  0.00  0.00    +0.000 A 
ATOM      5  C   UNL     1       1.360   8.242  20.335  0.00  0.00    +0.000 A 
ATOM      6  C   UNL     1       2.210   7.368  19.643  0.00  0.00    +0.000 A 
ENDROOT
BRANCH   4   7
ATOM      7  C   UNL     1      -0.048  10.337  20.445  0.00  0.00    +0.000 A 
ATOM      8  C   UNL     1      -0.777  11.368  19.873  0.00  0.00    +0.000 A 
ATOM      9  N   UNL     1      -1.546  11.944  20.862  0.00  0.00    +0.000 N 
ATOM     10  C   UNL     1      -2.466  12.969  20.729  0.00  0.00    +0.000 A 
ATOM     11  C   UNL     1      -3.078  13.401  21.849  0.00  0.00    +0.000 A 
ATOM     12  C   UNL     1      -2.801  12.841  23.164  0.00  0.00    +0.000 A 
ATOM     13  C   UNL     1      -1.928  11.827  23.289  0.00  0.00    +0.000 A 
ATOM     14  C   UNL     1      -1.269  11.353  22.036  0.00  0.00    +0.000 A 
ATOM     15  N   UNL     1      -0.369  10.380  21.819  0.00  0.00    +0.000 N 
ATOM     16  C   UNL     1       0.278   9.603  22.869  0.00  0.00    +0.000 C 
ENDBRANCH   4   7
BRANCH   1  18
ATOM     17  N   UNL     1       4.370   6.054  18.212  0.00  0.00    +0.000 NA
ATOM     18  C   UNL     1       3.474   6.753  17.578  0.00  0.00    +0.000 C 
BRANCH  17  22
ATOM     19  N   UNL     1       3.567   3.587  17.381  0.00  0.00    +0.000 N 
ATOM     20  C   UNL     1       4.822   3.984  17.050  0.00  0.00    +0.000 C 
ATOM     21  N   UNL     1       5.666   3.255  16.404  0.00  0.00    +0.000 NA
ATOM     22  N   UNL     1       5.152   5.251  17.450  0.00  0.00    +0.000 N 
ATOM     23  H   UNL     1       2.985   4.352  17.706  0.00  0.00    +0.000 HD
ATOM     24  H   UNL     1       5.191   2.379  16.171  0.00  0.00    +0.000 HD
ATOM     25  H   UNL     1       6.113   5.491  17.220  0.00  0.00    +0.000 HD
BRANCH  19  26
ATOM     26  C   UNL     1       3.141   2.242  17.706  0.00  0.00    +0.000 C 
BRANCH  26  27
ATOM     27  C   UNL     1       2.458   2.130  19.076  0.00  0.00    +0.000 C 
BRANCH  27  29
ATOM     28  C   UNL     1       0.939   3.835  20.175  0.00  0.00    +0.000 C 
ATOM     29  C   UNL     1       1.064   2.760  19.104  0.00  0.00    +0.000 C 
ENDBRANCH  27  29
ENDBRANCH  26  27
ENDBRANCH  19  26
ENDBRANCH  17  22
ENDBRANCH   1  18
TORSDOF 6
ENDMDL
MODEL 7
REMARK VINA RESULT:      -7.6      3.960      6.282
REMARK  Name = 
REMARK  8 active torsions:
REMARK  status: ('A' for Active; 'I' for Inactive)
REMARK    1  A    between atoms: C_1  and  C_2
REMARK    2  A    between atoms: C_2  and  C_3
REMARK    3  A    between atoms: C_3  and  C_4
REMARK    4  A    between atoms: C_4  and  N_5
REMARK    5  A    between atoms: N_8  and  N_9
REMARK    6  A    between atoms: C_10  and  C_11
REMARK    7  A    between atoms: C_14  and  C_15
REMARK    8  A    between atoms: N_23  and  C_24
REMARK                            x       y       z     vdW  Elec       q    Type
REMARK                         _______ _______ _______ _____ _____    ______ ____
ROOT
ATOM      1  C   UNL     1       2.117   8.312  18.626  0.00  0.00    +0.000 A 
ATOM      2  C   UNL     1       1.773   8.101  19.968  0.00  0.00    +0.000 A 
ATOM      3  C   UNL     1       0.884   8.960  20.616  0.00  0.00    +0.000 A 
ATOM      4  C   UNL     1       0.318  10.032  19.919  0.00  0.00    +0.000 A 
ATOM      5  C   UNL     1       0.660  10.239  18.575  0.00  0.00    +0.000 A 
ATOM      6  C   UNL     1       1.563   9.383  17.928  0.00  0.00    +0.000 A 
ENDROOT
BRANCH   4   7
ATOM      7  C   UNL     1      -0.628  10.958  20.625  0.00  0.00    +0.000 A 
ATOM      8  C   UNL     1      -1.261  12.057  20.065  0.00  0.00    +0.000 A 
ATOM      9  N   UNL     1      -2.084  12.607  21.024  0.00  0.00    +0.000 N 
ATOM     10  C   UNL     1      -2.944  13.682  20.885  0.00  0.00    +0.000 A 
ATOM     11  C   UNL     1      -3.628  14.074  21.978  0.00  0.00    +0.000 A 
ATOM     12  C   UNL     1      -3.488  13.420  23.271  0.00  0.00    +0.000 A 
ATOM     13  C   UNL     1      -2.673  12.359  23.400  0.00  0.00    +0.000 A 
ATOM     14  C   UNL     1      -1.932  11.932  22.175  0.00  0.00    +0.000 A 
ATOM     15  N   UNL     1      -1.061  10.931  21.969  0.00  0.00    +0.000 N 
ATOM     16  C   UNL     1      -0.539  10.061  23.014  0.00  0.00    +0.000 C 
ENDBRANCH   4   7
BRANCH   1  18
ATOM     17  N   UNL     1       3.305   6.225  18.482  0.00  0.00    +0.000 NA
ATOM     18  C   UNL     1       3.084   7.402  17.972  0.00  0.00    +0.000 C 
BRANCH  17  22
ATOM     19  N   UNL     1       2.755   3.687  17.663  0.00  0.00    +0.000 N 
ATOM     20  C   UNL     1       4.011   4.157  17.451  0.00  0.00    +0.000 C 
ATOM     21  N   UNL     1       4.964   3.467  16.925  0.00  0.00    +0.000 NA
ATOM     22  N   UNL     1       4.214   5.454  17.837  0.00  0.00    +0.000 N 
ATOM     23  H   UNL     1       2.094   4.420  17.896  0.00  0.00    +0.000 HD
ATOM     24  H   UNL     1       4.574   2.555  16.677  0.00  0.00    +0.000 HD
ATOM     25  H   UNL     1       5.177   5.752  17.700  0.00  0.00    +0.000 HD
BRANCH  19  26
ATOM     26  C   UNL     1       2.383   2.326  17.991  0.00  0.00    +0.000 C 
BRANCH  26  27
ATOM     27  C   UNL     1       1.074   2.224  18.787  0.00  0.00    +0.000 C 
BRANCH  27  29
ATOM     28  C   UNL     1       1.433   2.796  21.230  0.00  0.00    +0.000 C 
ATOM     29  C   UNL     1       0.949   3.293  19.874  0.00  0.00    +0.000 C 
ENDBRANCH  27  29
ENDBRANCH  26  27
ENDBRANCH  19  26
ENDBRANCH  17  22
ENDBRANCH   1  18
TORSDOF 6
ENDMDL
MODEL 8
REMARK VINA RESULT:      -7.4      4.023      6.095
REMARK  Name = 
REMARK  8 active torsions:
REMARK  status: ('A' for Active; 'I' for Inactive)
REMARK    1  A    between atoms: C_1  and  C_2
REMARK    2  A    between atoms: C_2  and  C_3
REMARK    3  A    between atoms: C_3  and  C_4
REMARK    4  A    between atoms: C_4  and  N_5
REMARK    5  A    between atoms: N_8  and  N_9
REMARK    6  A    between atoms: C_10  and  C_11
REMARK    7  A    between atoms: C_14  and  C_15
REMARK    8  A    between atoms: N_23  and  C_24
REMARK                            x       y       z     vdW  Elec       q    Type
REMARK                         _______ _______ _______ _____ _____    ______ ____
ROOT
ATOM      1  C   UNL     1       2.253   7.988  18.786  0.00  0.00    +0.000 A 
ATOM      2  C   UNL     1       1.973   7.784  20.143  0.00  0.00    +0.000 A 
ATOM      3  C   UNL     1       1.266   8.741  20.874  0.00  0.00    +0.000 A 
ATOM      4  C   UNL     1       0.821   9.908  20.244  0.00  0.00    +0.000 A 
ATOM      5  C   UNL     1       1.099  10.109  18.885  0.00  0.00    +0.000 A 
ATOM      6  C   UNL     1       1.820   9.153  18.155  0.00  0.00    +0.000 A 
ENDROOT
BRANCH   4   7
ATOM      7  C   UNL     1       0.072  10.938  21.039  0.00  0.00    +0.000 A 
ATOM      8  C   UNL     1      -1.141  10.745  21.683  0.00  0.00    +0.000 A 
ATOM      9  N   UNL     1      -1.461  11.913  22.341  0.00  0.00    +0.000 N 
ATOM     10  C   UNL     1      -2.554  12.152  23.156  0.00  0.00    +0.000 A 
ATOM     11  C   UNL     1      -2.687  13.392  23.666  0.00  0.00    +0.000 A 
ATOM     12  C   UNL     1      -1.741  14.463  23.389  0.00  0.00    +0.000 A 
ATOM     13  C   UNL     1      -0.665  14.224  22.620  0.00  0.00    +0.000 A 
ATOM     14  C   UNL     1      -0.528  12.842  22.072  0.00  0.00    +0.000 A 
ATOM     15  N   UNL     1       0.410  12.286  21.289  0.00  0.00    +0.000 N 
ATOM     16  C   UNL     1       1.515  13.014  20.678  0.00  0.00    +0.000 C 
ENDBRANCH   4   7
BRANCH   1  18
ATOM     17  N   UNL     1       3.643   6.027  18.696  0.00  0.00    +0.000 NA
ATOM     18  C   UNL     1       3.029   6.970  18.042  0.00  0.00    +0.000 C 
BRANCH  17  22
ATOM     19  N   UNL     1       2.576   3.676  17.829  0.00  0.00    +0.000 N 
ATOM     20  C   UNL     1       3.877   3.922  17.533  0.00  0.00    +0.000 C 
ATOM     21  N   UNL     1       4.646   3.100  16.904  0.00  0.00    +0.000 NA
ATOM     22  N   UNL     1       4.344   5.139  17.950  0.00  0.00    +0.000 N 
ATOM     23  H   UNL     1       2.080   4.503  18.144  0.00  0.00    +0.000 HD
ATOM     24  H   UNL     1       4.077   2.288  16.654  0.00  0.00    +0.000 HD
ATOM     25  H   UNL     1       5.333   5.265  17.746  0.00  0.00    +0.000 HD
BRANCH  19  26
ATOM     26  C   UNL     1       1.985   2.390  18.134  0.00  0.00    +0.000 C 
BRANCH  26  27
ATOM     27  C   UNL     1       1.432   2.293  19.563  0.00  0.00    +0.000 C 
BRANCH  27  29
ATOM     28  C   UNL     1       2.063   3.987  21.339  0.00  0.00    +0.000 C 
ATOM     29  C   UNL     1       1.129   3.659  20.182  0.00  0.00    +0.000 C 
ENDBRANCH  27  29
ENDBRANCH  26  27
ENDBRANCH  19  26
ENDBRANCH  17  22
ENDBRANCH   1  18
TORSDOF 6
ENDMDL
MODEL 9
REMARK VINA RESULT:      -7.3      3.532      5.326
REMARK  Name = 
REMARK  8 active torsions:
REMARK  status: ('A' for Active; 'I' for Inactive)
REMARK    1  A    between atoms: C_1  and  C_2
REMARK    2  A    between atoms: C_2  and  C_3
REMARK    3  A    between atoms: C_3  and  C_4
REMARK    4  A    between atoms: C_4  and  N_5
REMARK    5  A    between atoms: N_8  and  N_9
REMARK    6  A    between atoms: C_10  and  C_11
REMARK    7  A    between atoms: C_14  and  C_15
REMARK    8  A    between atoms: N_23  and  C_24
REMARK                            x       y       z     vdW  Elec       q    Type
REMARK                         _______ _______ _______ _____ _____    ______ ____
ROOT
ATOM      1  C   UNL     1       2.953   7.400  18.565  0.00  0.00    +0.000 A 
ATOM      2  C   UNL     1       2.609   8.497  17.765  0.00  0.00    +0.000 A 
ATOM      3  C   UNL     1       1.673   9.434  18.208  0.00  0.00    +0.000 A 
ATOM      4  C   UNL     1       1.082   9.285  19.466  0.00  0.00    +0.000 A 
ATOM      5  C   UNL     1       1.430   8.188  20.267  0.00  0.00    +0.000 A 
ATOM      6  C   UNL     1       2.361   7.242  19.816  0.00  0.00    +0.000 A 
ENDROOT
BRANCH   4   7
ATOM      7  C   UNL     1       0.067  10.289  19.931  0.00  0.00    +0.000 A 
ATOM      8  C   UNL     1       0.084  10.959  21.145  0.00  0.00    +0.000 A 
ATOM      9  N   UNL     1      -0.986  11.828  21.163  0.00  0.00    +0.000 N 
ATOM     10  C   UNL     1      -1.323  12.734  22.153  0.00  0.00    +0.000 A 
ATOM     11  C   UNL     1      -2.444  13.460  21.974  0.00  0.00    +0.000 A 
ATOM     12  C   UNL     1      -3.296  13.317  20.802  0.00  0.00    +0.000 A 
ATOM     13  C   UNL     1      -2.955  12.457  19.828  0.00  0.00    +0.000 A 
ATOM     14  C   UNL     1      -1.702  11.670  20.037  0.00  0.00    +0.000 A 
ATOM     15  N   UNL     1      -1.094  10.749  19.273  0.00  0.00    +0.000 N 
ATOM     16  C   UNL     1      -1.641  10.209  18.035  0.00  0.00    +0.000 C 
ENDBRANCH   4   7
BRANCH   1  18
ATOM     17  N   UNL     1       4.245   6.406  16.796  0.00  0.00    +0.000 NA
ATOM     18  C   UNL     1       3.927   6.408  18.058  0.00  0.00    +0.000 C 
BRANCH  17  22
ATOM     19  N   UNL     1       3.690   3.742  16.905  0.00  0.00    +0.000 N 
ATOM     20  C   UNL     1       4.927   4.109  16.485  0.00  0.00    +0.000 C 
ATOM     21  N   UNL     1       5.864   3.279  16.175  0.00  0.00    +0.000 NA
ATOM     22  N   UNL     1       5.132   5.459  16.403  0.00  0.00    +0.000 N 
ATOM     23  H   UNL     1       3.031   4.513  16.911  0.00  0.00    +0.000 HD
ATOM     24  H   UNL     1       5.474   2.338  16.266  0.00  0.00    +0.000 HD
ATOM     25  H   UNL     1       6.083   5.691  16.127  0.00  0.00    +0.000 HD
BRANCH  19  26
ATOM     26  C   UNL     1       3.352   2.571  17.688  0.00  0.00    +0.000 C 
BRANCH  26  27
ATOM     27  C   UNL     1       2.762   2.905  19.066  0.00  0.00    +0.000 C 
BRANCH  27  29
ATOM     28  C   UNL     1       0.867   3.982  20.358  0.00  0.00    +0.000 C 
ATOM     29  C   UNL     1       1.438   3.667  18.982  0.00  0.00    +0.000 C 
ENDBRANCH  27  29
ENDBRANCH  26  27
ENDBRANCH  19  26
ENDBRANCH  17  22
ENDBRANCH   1  18
TORSDOF 6
ENDMDL
