MODEL 1
REMARK VINA RESULT:      -6.0      0.000      0.000
REMARK  Name = 
REMARK  17 active torsions:
REMARK  status: ('A' for Active; 'I' for Inactive)
REMARK    1  A    between atoms: C_1  and  C_2
REMARK    2  A    between atoms: C_2  and  O_3
REMARK    3  A    between atoms: O_3  and  C_4
REMARK    4  A    between atoms: C_4  and  C_6
REMARK    5  A    between atoms: C_7  and  C_8
REMARK    6  A    between atoms: C_9  and  C_10
REMARK    7  A    between atoms: C_10  and  O_12
REMARK    8  A    between atoms: O_12  and  C_13
REMARK    9  A    between atoms: C_13  and  C_14
REMARK   10  A    between atoms: N_17  and  C_18
REMARK   11  A    between atoms: C_20  and  C_21
REMARK   12  A    between atoms: C_21  and  O_22
REMARK   13  A    between atoms: O_22  and  C_23
REMARK   14  A    between atoms: C_24  and  O_25
REMARK   15  A    between atoms: O_25  and  C_26
REMARK   16  A    between atoms: C_27  and  O_28
REMARK   17  A    between atoms: O_28  and  C_29
REMARK                            x       y       z     vdW  Elec       q    Type
REMARK                         _______ _______ _______ _____ _____    ______ ____
ROOT
ATOM      1  C   UNL     1       6.325   4.908  17.408  0.00  0.00    +0.000 A 
ATOM      2  C   UNL     1       6.858   6.016  18.045  0.00  0.00    +0.000 A 
ATOM      3  N   UNL     1       6.576   5.938  19.389  0.00  0.00    +0.000 NA
ATOM      4  N   UNL     1       5.896   4.831  19.610  0.00  0.00    +0.000 NA
ATOM      5  N   UNL     1       5.725   4.206  18.426  0.00  0.00    +0.000 N 
ENDROOT
BRANCH   5   6
ATOM      6  C   UNL     1       5.038   2.923  18.382  0.00  0.00    +0.000 C 
ATOM      7  O   UNL     1       3.875   3.056  17.543  0.00  0.00    +0.000 OA
ATOM      8  C   UNL     1       2.697   2.916  18.377  0.00  0.00    +0.000 C 
ATOM      9  C   UNL     1       3.162   3.083  19.825  0.00  0.00    +0.000 C 
ATOM     10  C   UNL     1       4.560   2.449  19.764  0.00  0.00    +0.000 C 
BRANCH   9  11
ATOM     11  O   UNL     1       2.248   2.507  20.758  0.00  0.00    +0.000 OA
ATOM     12  C   UNL     1       1.922   3.386  21.828  0.00  0.00    +0.000 C 
ENDBRANCH   9  11
BRANCH  10  13
ATOM     13  O   UNL     1       4.439   1.012  19.819  0.00  0.00    +0.000 OA
ATOM     14  C   UNL     1       5.318   0.393  20.749  0.00  0.00    +0.000 C 
ENDBRANCH  10  13
BRANCH   8  15
ATOM     15  C   UNL     1       1.657   3.956  17.946  0.00  0.00    +0.000 C 
BRANCH  15  16
ATOM     16  O   UNL     1       1.817   5.125  18.762  0.00  0.00    +0.000 OA
ATOM     17  C   UNL     1       2.536   6.152  18.097  0.00  0.00    +0.000 C 
ENDBRANCH  15  16
ENDBRANCH   8  15
ENDBRANCH   5   6
BRANCH   1  19
ATOM     18  C   UNL     1       6.430   4.242  14.872  0.00  0.00    +0.000 C 
ATOM     19  C   UNL     1       6.391   4.537  16.033  0.00  0.00    +0.000 C 
BRANCH  18  20
ATOM     20  C   UNL     1       6.434   3.972  13.459  0.00  0.00    +0.000 C 
ATOM     21  O   UNL     1       7.122   4.635  12.701  0.00  0.00    +0.000 OA
BRANCH  20  22
ATOM     22  O   UNL     1       5.518   3.032  13.114  0.00  0.00    +0.000 OA
BRANCH  22  24
ATOM     23  C   UNL     1       4.065   3.327  11.236  0.00  0.00    +0.000 C 
ATOM     24  C   UNL     1       5.405   2.788  11.706  0.00  0.00    +0.000 C 
ENDBRANCH  22  24
ENDBRANCH  20  22
ENDBRANCH  18  20
ENDBRANCH   1  19
BRANCH   2  25
ATOM     25  C   UNL     1       7.677   7.079  17.496  0.00  0.00    +0.000 C 
ATOM     26  O   UNL     1       7.964   7.185  16.310  0.00  0.00    +0.000 OA
BRANCH  25  27
ATOM     27  O   UNL     1       8.179   7.874  18.487  0.00  0.00    +0.000 OA
BRANCH  27  28
ATOM     28  C   UNL     1       8.310   9.261  18.168  0.00  0.00    +0.000 C 
ATOM     29  C   UNL     1       9.214   9.900  19.208  0.00  0.00    +0.000 C 
ENDBRANCH  27  28
ENDBRANCH  25  27
ENDBRANCH   2  25
TORSDOF 12
ENDMDL
MODEL 2
REMARK VINA RESULT:      -6.0      1.662      5.792
REMARK  Name = 
REMARK  17 active torsions:
REMARK  status: ('A' for Active; 'I' for Inactive)
REMARK    1  A    between atoms: C_1  and  C_2
REMARK    2  A    between atoms: C_2  and  O_3
REMARK    3  A    between atoms: O_3  and  C_4
REMARK    4  A    between atoms: C_4  and  C_6
REMARK    5  A    between atoms: C_7  and  C_8
REMARK    6  A    between atoms: C_9  and  C_10
REMARK    7  A    between atoms: C_10  and  O_12
REMARK    8  A    between atoms: O_12  and  C_13
REMARK    9  A    between atoms: C_13  and  C_14
REMARK   10  A    between atoms: N_17  and  C_18
REMARK   11  A    between atoms: C_20  and  C_21
REMARK   12  A    between atoms: C_21  and  O_22
REMARK   13  A    between atoms: O_22  and  C_23
REMARK   14  A    between atoms: C_24  and  O_25
REMARK   15  A    between atoms: O_25  and  C_26
REMARK   16  A    between atoms: C_27  and  O_28
REMARK   17  A    between atoms: O_28  and  C_29
REMARK                            x       y       z     vdW  Elec       q    Type
REMARK                         _______ _______ _______ _____ _____    ______ ____
ROOT
ATOM      1  C   UNL     1       5.849   5.750  16.829  0.00  0.00    +0.000 A 
ATOM      2  C   UNL     1       5.880   4.985  15.675  0.00  0.00    +0.000 A 
ATOM      3  N   UNL     1       4.822   4.105  15.693  0.00  0.00    +0.000 NA
ATOM      4  N   UNL     1       4.140   4.295  16.805  0.00  0.00    +0.000 NA
ATOM      5  N   UNL     1       4.753   5.272  17.506  0.00  0.00    +0.000 N 
ENDROOT
BRANCH   5   6
ATOM      6  C   UNL     1       4.180   5.720  18.767  0.00  0.00    +0.000 C 
ATOM      7  O   UNL     1       4.561   4.788  19.797  0.00  0.00    +0.000 OA
ATOM      8  C   UNL     1       3.366   4.104  20.253  0.00  0.00    +0.000 C 
ATOM      9  C   UNL     1       2.286   4.358  19.200  0.00  0.00    +0.000 C 
ATOM     10  C   UNL     1       2.644   5.780  18.743  0.00  0.00    +0.000 C 
BRANCH   9  11
ATOM     11  O   UNL     1       0.969   4.174  19.718  0.00  0.00    +0.000 OA
ATOM     12  C   UNL     1       0.412   2.909  19.378  0.00  0.00    +0.000 C 
ENDBRANCH   9  11
BRANCH  10  13
ATOM     13  O   UNL     1       2.136   6.734  19.699  0.00  0.00    +0.000 OA
ATOM     14  C   UNL     1       1.994   8.051  19.182  0.00  0.00    +0.000 C 
ENDBRANCH  10  13
BRANCH   8  15
ATOM     15  C   UNL     1       3.689   2.619  20.449  0.00  0.00    +0.000 C 
BRANCH  15  16
ATOM     16  O   UNL     1       4.455   2.166  19.324  0.00  0.00    +0.000 OA
ATOM     17  C   UNL     1       3.748   1.220  18.537  0.00  0.00    +0.000 C 
ENDBRANCH  15  16
ENDBRANCH   8  15
ENDBRANCH   5   6
BRANCH   1  19
ATOM     18  C   UNL     1       7.440   7.689  17.600  0.00  0.00    +0.000 C 
ATOM     19  C   UNL     1       6.714   6.808  17.235  0.00  0.00    +0.000 C 
BRANCH  18  20
ATOM     20  C   UNL     1       8.328   8.696  18.117  0.00  0.00    +0.000 C 
ATOM     21  O   UNL     1       8.980   8.489  19.127  0.00  0.00    +0.000 OA
BRANCH  20  22
ATOM     22  O   UNL     1       8.226   9.867  17.440  0.00  0.00    +0.000 OA
BRANCH  22  24
ATOM     23  C   UNL     1      10.077  11.337  17.811  0.00  0.00    +0.000 C 
ATOM     24  C   UNL     1       8.636  11.027  18.175  0.00  0.00    +0.000 C 
ENDBRANCH  22  24
ENDBRANCH  20  22
ENDBRANCH  18  20
ENDBRANCH   1  19
BRANCH   2  25
ATOM     25  C   UNL     1       6.770   5.086  14.535  0.00  0.00    +0.000 C 
ATOM     26  O   UNL     1       7.924   5.495  14.597  0.00  0.00    +0.000 OA
BRANCH  25  27
ATOM     27  O   UNL     1       6.119   4.778  13.375  0.00  0.00    +0.000 OA
BRANCH  27  28
ATOM     28  C   UNL     1       6.542   3.579  12.722  0.00  0.00    +0.000 C 
ATOM     29  C   UNL     1       5.359   3.020  11.951  0.00  0.00    +0.000 C 
ENDBRANCH  27  28
ENDBRANCH  25  27
ENDBRANCH   2  25
TORSDOF 12
ENDMDL
MODEL 3
REMARK VINA RESULT:      -5.9      1.572      5.748
REMARK  Name = 
REMARK  17 active torsions:
REMARK  status: ('A' for Active; 'I' for Inactive)
REMARK    1  A    between atoms: C_1  and  C_2
REMARK    2  A    between atoms: C_2  and  O_3
REMARK    3  A    between atoms: O_3  and  C_4
REMARK    4  A    between atoms: C_4  and  C_6
REMARK    5  A    between atoms: C_7  and  C_8
REMARK    6  A    between atoms: C_9  and  C_10
REMARK    7  A    between atoms: C_10  and  O_12
REMARK    8  A    between atoms: O_12  and  C_13
REMARK    9  A    between atoms: C_13  and  C_14
REMARK   10  A    between atoms: N_17  and  C_18
REMARK   11  A    between atoms: C_20  and  C_21
REMARK   12  A    between atoms: C_21  and  O_22
REMARK   13  A    between atoms: O_22  and  C_23
REMARK   14  A    between atoms: C_24  and  O_25
REMARK   15  A    between atoms: O_25  and  C_26
REMARK   16  A    between atoms: C_27  and  O_28
REMARK   17  A    between atoms: O_28  and  C_29
REMARK                            x       y       z     vdW  Elec       q    Type
REMARK                         _______ _______ _______ _____ _____    ______ ____
ROOT
ATOM      1  C   UNL     1       6.013   5.162  16.783  0.00  0.00    +0.000 A 
ATOM      2  C   UNL     1       6.017   4.568  15.531  0.00  0.00    +0.000 A 
ATOM      3  N   UNL     1       4.999   3.644  15.471  0.00  0.00    +0.000 NA
ATOM      4  N   UNL     1       4.367   3.643  16.628  0.00  0.00    +0.000 NA
ATOM      5  N   UNL     1       4.973   4.541  17.433  0.00  0.00    +0.000 N 
ENDROOT
BRANCH   5   6
ATOM      6  C   UNL     1       4.447   4.779  18.769  0.00  0.00    +0.000 C 
ATOM      7  O   UNL     1       5.148   3.926  19.694  0.00  0.00    +0.000 OA
ATOM      8  C   UNL     1       4.209   2.949  20.211  0.00  0.00    +0.000 C 
ATOM      9  C   UNL     1       2.993   2.975  19.282  0.00  0.00    +0.000 C 
ATOM     10  C   UNL     1       2.948   4.460  18.892  0.00  0.00    +0.000 C 
BRANCH   9  11
ATOM     11  O   UNL     1       1.822   2.451  19.905  0.00  0.00    +0.000 OA
ATOM     12  C   UNL     1       0.743   2.272  18.995  0.00  0.00    +0.000 C 
ENDBRANCH   9  11
BRANCH  10  13
ATOM     13  O   UNL     1       2.330   5.218  19.953  0.00  0.00    +0.000 OA
ATOM     14  C   UNL     1       2.468   6.626  19.815  0.00  0.00    +0.000 C 
ENDBRANCH  10  13
BRANCH   8  15
ATOM     15  C   UNL     1       4.898   1.583  20.275  0.00  0.00    +0.000 C 
BRANCH  15  16
ATOM     16  O   UNL     1       5.299   1.337  21.630  0.00  0.00    +0.000 OA
ATOM     17  C   UNL     1       5.964   0.092  21.778  0.00  0.00    +0.000 C 
ENDBRANCH  15  16
ENDBRANCH   8  15
ENDBRANCH   5   6
BRANCH   1  19
ATOM     18  C   UNL     1       7.540   7.078  17.720  0.00  0.00    +0.000 C 
ATOM     19  C   UNL     1       6.851   6.194  17.296  0.00  0.00    +0.000 C 
BRANCH  18  20
ATOM     20  C   UNL     1       8.294   8.199  18.215  0.00  0.00    +0.000 C 
ATOM     21  O   UNL     1       8.903   8.121  19.270  0.00  0.00    +0.000 OA
BRANCH  20  22
ATOM     22  O   UNL     1       8.117   9.311  17.459  0.00  0.00    +0.000 OA
BRANCH  22  24
ATOM     23  C   UNL     1       9.734  11.016  17.910  0.00  0.00    +0.000 C 
ATOM     24  C   UNL     1       8.309  10.550  18.154  0.00  0.00    +0.000 C 
ENDBRANCH  22  24
ENDBRANCH  20  22
ENDBRANCH  18  20
ENDBRANCH   1  19
BRANCH   2  25
ATOM     25  C   UNL     1       6.843   4.872  14.379  0.00  0.00    +0.000 C 
ATOM     26  O   UNL     1       7.953   5.385  14.444  0.00  0.00    +0.000 OA
BRANCH  25  27
ATOM     27  O   UNL     1       6.175   4.618  13.215  0.00  0.00    +0.000 OA
BRANCH  27  28
ATOM     28  C   UNL     1       6.711   3.572  12.403  0.00  0.00    +0.000 C 
ATOM     29  C   UNL     1       5.550   2.805  11.794  0.00  0.00    +0.000 C 
ENDBRANCH  27  28
ENDBRANCH  25  27
ENDBRANCH   2  25
TORSDOF 12
ENDMDL
MODEL 4
REMARK VINA RESULT:      -5.8      4.033      7.108
REMARK  Name = 
REMARK  17 active torsions:
REMARK  status: ('A' for Active; 'I' for Inactive)
REMARK    1  A    between atoms: C_1  and  C_2
REMARK    2  A    between atoms: C_2  and  O_3
REMARK    3  A    between atoms: O_3  and  C_4
REMARK    4  A    between atoms: C_4  and  C_6
REMARK    5  A    between atoms: C_7  and  C_8
REMARK    6  A    between atoms: C_9  and  C_10
REMARK    7  A    between atoms: C_10  and  O_12
REMARK    8  A    between atoms: O_12  and  C_13
REMARK    9  A    between atoms: C_13  and  C_14
REMARK   10  A    between atoms: N_17  and  C_18
REMARK   11  A    between atoms: C_20  and  C_21
REMARK   12  A    between atoms: C_21  and  O_22
REMARK   13  A    between atoms: O_22  and  C_23
REMARK   14  A    between atoms: C_24  and  O_25
REMARK   15  A    between atoms: O_25  and  C_26
REMARK   16  A    between atoms: C_27  and  O_28
REMARK   17  A    between atoms: O_28  and  C_29
REMARK                            x       y       z     vdW  Elec       q    Type
REMARK                         _______ _______ _______ _____ _____    ______ ____
ROOT
ATOM      1  C   UNL     1       2.415   5.930  19.201  0.00  0.00    +0.000 A 
ATOM      2  C   UNL     1       1.783   4.741  19.527  0.00  0.00    +0.000 A 
ATOM      3  N   UNL     1       0.873   4.979  20.531  0.00  0.00    +0.000 NA
ATOM      4  N   UNL     1       0.913   6.260  20.836  0.00  0.00    +0.000 NA
ATOM      5  N   UNL     1       1.845   6.844  20.054  0.00  0.00    +0.000 N 
ENDROOT
BRANCH   5   6
ATOM      6  C   UNL     1       2.068   8.280  20.150  0.00  0.00    +0.000 C 
ATOM      7  O   UNL     1       1.775   8.698  21.496  0.00  0.00    +0.000 OA
ATOM      8  C   UNL     1       0.599   9.546  21.461  0.00  0.00    +0.000 C 
ATOM      9  C   UNL     1      -0.061   9.325  20.099  0.00  0.00    +0.000 C 
ATOM     10  C   UNL     1       1.168   9.093  19.206  0.00  0.00    +0.000 C 
BRANCH   9  11
ATOM     11  O   UNL     1      -0.916  10.406  19.728  0.00  0.00    +0.000 OA
ATOM     12  C   UNL     1      -1.578  10.187  18.487  0.00  0.00    +0.000 C 
ENDBRANCH   9  11
BRANCH  10  13
ATOM     13  O   UNL     1       1.763  10.363  18.869  0.00  0.00    +0.000 OA
ATOM     14  C   UNL     1       2.508  10.350  17.659  0.00  0.00    +0.000 C 
ENDBRANCH  10  13
BRANCH   8  15
ATOM     15  C   UNL     1      -0.307   9.188  22.644  0.00  0.00    +0.000 C 
BRANCH  15  16
ATOM     16  O   UNL     1      -0.357  10.310  23.536  0.00  0.00    +0.000 OA
ATOM     17  C   UNL     1      -1.218  11.335  23.065  0.00  0.00    +0.000 C 
ENDBRANCH  15  16
ENDBRANCH   8  15
ENDBRANCH   5   6
BRANCH   1  19
ATOM     18  C   UNL     1       4.243   6.381  17.373  0.00  0.00    +0.000 C 
ATOM     19  C   UNL     1       3.400   6.185  18.204  0.00  0.00    +0.000 C 
BRANCH  18  20
ATOM     20  C   UNL     1       5.288   6.529  16.396  0.00  0.00    +0.000 C 
ATOM     21  O   UNL     1       5.059   7.049  15.316  0.00  0.00    +0.000 OA
BRANCH  20  22
ATOM     22  O   UNL     1       6.438   5.921  16.778  0.00  0.00    +0.000 OA
BRANCH  22  24
ATOM     23  C   UNL     1       7.646   7.837  17.549  0.00  0.00    +0.000 C 
ATOM     24  C   UNL     1       7.066   6.488  17.936  0.00  0.00    +0.000 C 
ENDBRANCH  22  24
ENDBRANCH  20  22
ENDBRANCH  18  20
ENDBRANCH   1  19
BRANCH   2  25
ATOM     25  C   UNL     1       1.914   3.437  18.907  0.00  0.00    +0.000 C 
ATOM     26  O   UNL     1       1.763   3.226  17.710  0.00  0.00    +0.000 OA
BRANCH  25  27
ATOM     27  O   UNL     1       2.111   2.464  19.845  0.00  0.00    +0.000 OA
BRANCH  27  28
ATOM     28  C   UNL     1       3.294   2.591  20.637  0.00  0.00    +0.000 C 
ATOM     29  C   UNL     1       4.493   2.363  19.734  0.00  0.00    +0.000 C 
ENDBRANCH  27  28
ENDBRANCH  25  27
ENDBRANCH   2  25
TORSDOF 12
ENDMDL
MODEL 5
REMARK VINA RESULT:      -5.8      1.455      5.778
REMARK  Name = 
REMARK  17 active torsions:
REMARK  status: ('A' for Active; 'I' for Inactive)
REMARK    1  A    between atoms: C_1  and  C_2
REMARK    2  A    between atoms: C_2  and  O_3
REMARK    3  A    between atoms: O_3  and  C_4
REMARK    4  A    between atoms: C_4  and  C_6
REMARK    5  A    between atoms: C_7  and  C_8
REMARK    6  A    between atoms: C_9  and  C_10
REMARK    7  A    between atoms: C_10  and  O_12
REMARK    8  A    between atoms: O_12  and  C_13
REMARK    9  A    between atoms: C_13  and  C_14
REMARK   10  A    between atoms: N_17  and  C_18
REMARK   11  A    between atoms: C_20  and  C_21
REMARK   12  A    between atoms: C_21  and  O_22
REMARK   13  A    between atoms: O_22  and  C_23
REMARK   14  A    between atoms: C_24  and  O_25
REMARK   15  A    between atoms: O_25  and  C_26
REMARK   16  A    between atoms: C_27  and  O_28
REMARK   17  A    between atoms: O_28  and  C_29
REMARK                            x       y       z     vdW  Elec       q    Type
REMARK                         _______ _______ _______ _____ _____    ______ ____
ROOT
ATOM      1  C   UNL     1       6.219   5.094  16.837  0.00  0.00    +0.000 A 
ATOM      2  C   UNL     1       6.369   4.345  15.681  0.00  0.00    +0.000 A 
ATOM      3  N   UNL     1       5.569   3.229  15.764  0.00  0.00    +0.000 NA
ATOM      4  N   UNL     1       4.932   3.257  16.918  0.00  0.00    +0.000 NA
ATOM      5  N   UNL     1       5.322   4.366  17.581  0.00  0.00    +0.000 N 
ENDROOT
BRANCH   5   6
ATOM      6  C   UNL     1       4.734   4.673  18.877  0.00  0.00    +0.000 C 
ATOM      7  O   UNL     1       5.313   3.794  19.860  0.00  0.00    +0.000 OA
ATOM      8  C   UNL     1       4.275   2.900  20.336  0.00  0.00    +0.000 C 
ATOM      9  C   UNL     1       3.124   2.991  19.332  0.00  0.00    +0.000 C 
ATOM     10  C   UNL     1       3.211   4.466  18.912  0.00  0.00    +0.000 C 
BRANCH   9  11
ATOM     11  O   UNL     1       1.881   2.568  19.892  0.00  0.00    +0.000 OA
ATOM     12  C   UNL     1       1.851   2.669  21.312  0.00  0.00    +0.000 C 
ENDBRANCH   9  11
BRANCH  10  13
ATOM     13  O   UNL     1       2.587   5.291  19.918  0.00  0.00    +0.000 OA
ATOM     14  C   UNL     1       2.576   6.677  19.604  0.00  0.00    +0.000 C 
ENDBRANCH  10  13
BRANCH   8  15
ATOM     15  C   UNL     1       4.857   1.489  20.469  0.00  0.00    +0.000 C 
BRANCH  15  16
ATOM     16  O   UNL     1       5.611   1.419  21.687  0.00  0.00    +0.000 OA
ATOM     17  C   UNL     1       6.019   0.095  21.994  0.00  0.00    +0.000 C 
ENDBRANCH  15  16
ENDBRANCH   8  15
ENDBRANCH   5   6
BRANCH   1  19
ATOM     18  C   UNL     1       7.295   7.400  17.476  0.00  0.00    +0.000 C 
ATOM     19  C   UNL     1       6.813   6.340  17.190  0.00  0.00    +0.000 C 
BRANCH  18  20
ATOM     20  C   UNL     1       7.788   8.712  17.798  0.00  0.00    +0.000 C 
ATOM     21  O   UNL     1       7.463   9.680  17.130  0.00  0.00    +0.000 OA
BRANCH  20  22
ATOM     22  O   UNL     1       8.708   8.685  18.794  0.00  0.00    +0.000 OA
BRANCH  22  24
ATOM     23  C   UNL     1       9.195  10.499  20.277  0.00  0.00    +0.000 C 
ATOM     24  C   UNL     1       9.494   9.877  18.924  0.00  0.00    +0.000 C 
ENDBRANCH  22  24
ENDBRANCH  20  22
ENDBRANCH  18  20
ENDBRANCH   1  19
BRANCH   2  25
ATOM     25  C   UNL     1       7.133   4.651  14.488  0.00  0.00    +0.000 C 
ATOM     26  O   UNL     1       7.745   5.698  14.311  0.00  0.00    +0.000 OA
BRANCH  25  27
ATOM     27  O   UNL     1       6.985   3.673  13.546  0.00  0.00    +0.000 OA
BRANCH  27  28
ATOM     28  C   UNL     1       6.433   4.090  12.295  0.00  0.00    +0.000 C 
ATOM     29  C   UNL     1       5.264   3.178  11.968  0.00  0.00    +0.000 C 
ENDBRANCH  27  28
ENDBRANCH  25  27
ENDBRANCH   2  25
TORSDOF 12
ENDMDL
MODEL 6
REMARK VINA RESULT:      -5.7      1.758      5.747
REMARK  Name = 
REMARK  17 active torsions:
REMARK  status: ('A' for Active; 'I' for Inactive)
REMARK    1  A    between atoms: C_1  and  C_2
REMARK    2  A    between atoms: C_2  and  O_3
REMARK    3  A    between atoms: O_3  and  C_4
REMARK    4  A    between atoms: C_4  and  C_6
REMARK    5  A    between atoms: C_7  and  C_8
REMARK    6  A    between atoms: C_9  and  C_10
REMARK    7  A    between atoms: C_10  and  O_12
REMARK    8  A    between atoms: O_12  and  C_13
REMARK    9  A    between atoms: C_13  and  C_14
REMARK   10  A    between atoms: N_17  and  C_18
REMARK   11  A    between atoms: C_20  and  C_21
REMARK   12  A    between atoms: C_21  and  O_22
REMARK   13  A    between atoms: O_22  and  C_23
REMARK   14  A    between atoms: C_24  and  O_25
REMARK   15  A    between atoms: O_25  and  C_26
REMARK   16  A    between atoms: C_27  and  O_28
REMARK   17  A    between atoms: O_28  and  C_29
REMARK                            x       y       z     vdW  Elec       q    Type
REMARK                         _______ _______ _______ _____ _____    ______ ____
ROOT
ATOM      1  C   UNL     1       5.904   5.607  16.808  0.00  0.00    +0.000 A 
ATOM      2  C   UNL     1       6.027   4.779  15.705  0.00  0.00    +0.000 A 
ATOM      3  N   UNL     1       4.994   3.870  15.710  0.00  0.00    +0.000 NA
ATOM      4  N   UNL     1       4.239   4.102  16.765  0.00  0.00    +0.000 NA
ATOM      5  N   UNL     1       4.780   5.135  17.444  0.00  0.00    +0.000 N 
ENDROOT
BRANCH   5   6
ATOM      6  C   UNL     1       4.118   5.636  18.640  0.00  0.00    +0.000 C 
ATOM      7  O   UNL     1       4.436   4.760  19.738  0.00  0.00    +0.000 OA
ATOM      8  C   UNL     1       3.220   4.083  20.145  0.00  0.00    +0.000 C 
ATOM      9  C   UNL     1       2.213   4.271  19.009  0.00  0.00    +0.000 C 
ATOM     10  C   UNL     1       2.587   5.675  18.509  0.00  0.00    +0.000 C 
BRANCH   9  11
ATOM     11  O   UNL     1       0.865   4.096  19.445  0.00  0.00    +0.000 OA
ATOM     12  C   UNL     1       0.271   2.905  18.939  0.00  0.00    +0.000 C 
ENDBRANCH   9  11
BRANCH  10  13
ATOM     13  O   UNL     1       2.005   6.667  19.379  0.00  0.00    +0.000 OA
ATOM     14  C   UNL     1       2.043   7.988  18.857  0.00  0.00    +0.000 C 
ENDBRANCH  10  13
BRANCH   8  15
ATOM     15  C   UNL     1       3.544   2.614  20.435  0.00  0.00    +0.000 C 
BRANCH  15  16
ATOM     16  O   UNL     1       3.222   2.337  21.805  0.00  0.00    +0.000 OA
ATOM     17  C   UNL     1       1.847   2.547  22.088  0.00  0.00    +0.000 C 
ENDBRANCH  15  16
ENDBRANCH   8  15
ENDBRANCH   5   6
BRANCH   1  19
ATOM     18  C   UNL     1       7.396   7.631  17.558  0.00  0.00    +0.000 C 
ATOM     19  C   UNL     1       6.712   6.712  17.204  0.00  0.00    +0.000 C 
BRANCH  18  20
ATOM     20  C   UNL     1       8.248   8.678  18.055  0.00  0.00    +0.000 C 
ATOM     21  O   UNL     1       9.004   8.472  18.990  0.00  0.00    +0.000 OA
BRANCH  20  22
ATOM     22  O   UNL     1       7.995   9.871  17.461  0.00  0.00    +0.000 OA
BRANCH  22  24
ATOM     23  C   UNL     1       8.131  12.259  17.480  0.00  0.00    +0.000 C 
ATOM     24  C   UNL     1       8.776  10.968  17.953  0.00  0.00    +0.000 C 
ENDBRANCH  22  24
ENDBRANCH  20  22
ENDBRANCH  18  20
ENDBRANCH   1  19
BRANCH   2  25
ATOM     25  C   UNL     1       6.984   4.843  14.617  0.00  0.00    +0.000 C 
ATOM     26  O   UNL     1       7.926   5.625  14.574  0.00  0.00    +0.000 OA
BRANCH  25  27
ATOM     27  O   UNL     1       6.629   4.002  13.601  0.00  0.00    +0.000 OA
BRANCH  27  28
ATOM     28  C   UNL     1       7.243   4.257  12.336  0.00  0.00    +0.000 C 
ATOM     29  C   UNL     1       7.046   3.033  11.460  0.00  0.00    +0.000 C 
ENDBRANCH  27  28
ENDBRANCH  25  27
ENDBRANCH   2  25
TORSDOF 12
ENDMDL
MODEL 7
REMARK VINA RESULT:      -5.7      1.624      5.856
REMARK  Name = 
REMARK  17 active torsions:
REMARK  status: ('A' for Active; 'I' for Inactive)
REMARK    1  A    between atoms: C_1  and  C_2
REMARK    2  A    between atoms: C_2  and  O_3
REMARK    3  A    between atoms: O_3  and  C_4
REMARK    4  A    between atoms: C_4  and  C_6
REMARK    5  A    between atoms: C_7  and  C_8
REMARK    6  A    between atoms: C_9  and  C_10
REMARK    7  A    between atoms: C_10  and  O_12
REMARK    8  A    between atoms: O_12  and  C_13
REMARK    9  A    between atoms: C_13  and  C_14
REMARK   10  A    between atoms: N_17  and  C_18
REMARK   11  A    between atoms: C_20  and  C_21
REMARK   12  A    between atoms: C_21  and  O_22
REMARK   13  A    between atoms: O_22  and  C_23
REMARK   14  A    between atoms: C_24  and  O_25
REMARK   15  A    between atoms: O_25  and  C_26
REMARK   16  A    between atoms: C_27  and  O_28
REMARK   17  A    between atoms: O_28  and  C_29
REMARK                            x       y       z     vdW  Elec       q    Type
REMARK                         _______ _______ _______ _____ _____    ______ ____
ROOT
ATOM      1  C   UNL     1       6.058   5.828  16.685  0.00  0.00    +0.000 A 
ATOM      2  C   UNL     1       6.202   5.038  15.557  0.00  0.00    +0.000 A 
ATOM      3  N   UNL     1       5.248   4.048  15.580  0.00  0.00    +0.000 NA
ATOM      4  N   UNL     1       4.521   4.193  16.669  0.00  0.00    +0.000 NA
ATOM      5  N   UNL     1       5.004   5.252  17.352  0.00  0.00    +0.000 N 
ENDROOT
BRANCH   5   6
ATOM      6  C   UNL     1       4.354   5.671  18.586  0.00  0.00    +0.000 C 
ATOM      7  O   UNL     1       4.667   4.713  19.614  0.00  0.00    +0.000 OA
ATOM      8  C   UNL     1       3.445   4.021  19.977  0.00  0.00    +0.000 C 
ATOM      9  C   UNL     1       2.434   4.305  18.864  0.00  0.00    +0.000 C 
ATOM     10  C   UNL     1       2.823   5.737  18.466  0.00  0.00    +0.000 C 
BRANCH   9  11
ATOM     11  O   UNL     1       1.087   4.113  19.293  0.00  0.00    +0.000 OA
ATOM     12  C   UNL     1       0.524   2.894  18.820  0.00  0.00    +0.000 C 
ENDBRANCH   9  11
BRANCH  10  13
ATOM     13  O   UNL     1       2.257   6.668  19.411  0.00  0.00    +0.000 OA
ATOM     14  C   UNL     1       2.126   7.993  18.911  0.00  0.00    +0.000 C 
ENDBRANCH  10  13
BRANCH   8  15
ATOM     15  C   UNL     1       3.753   2.531  20.156  0.00  0.00    +0.000 C 
BRANCH  15  16
ATOM     16  O   UNL     1       3.507   2.175  21.523  0.00  0.00    +0.000 OA
ATOM     17  C   UNL     1       2.225   2.594  21.967  0.00  0.00    +0.000 C 
ENDBRANCH  15  16
ENDBRANCH   8  15
ENDBRANCH   5   6
BRANCH   1  19
ATOM     18  C   UNL     1       7.385   7.975  17.405  0.00  0.00    +0.000 C 
ATOM     19  C   UNL     1       6.790   6.987  17.076  0.00  0.00    +0.000 C 
BRANCH  18  20
ATOM     20  C   UNL     1       8.015   9.198  17.823  0.00  0.00    +0.000 C 
ATOM     21  O   UNL     1       7.769  10.250  17.254  0.00  0.00    +0.000 OA
BRANCH  20  22
ATOM     22  O   UNL     1       8.954   8.992  18.780  0.00  0.00    +0.000 OA
BRANCH  22  24
ATOM     23  C   UNL     1      10.323  10.939  19.022  0.00  0.00    +0.000 C 
ATOM     24  C   UNL     1       9.203  10.116  19.634  0.00  0.00    +0.000 C 
ENDBRANCH  22  24
ENDBRANCH  20  22
ENDBRANCH  18  20
ENDBRANCH   1  19
BRANCH   2  25
ATOM     25  C   UNL     1       7.105   5.204  14.434  0.00  0.00    +0.000 C 
ATOM     26  O   UNL     1       8.257   5.609  14.531  0.00  0.00    +0.000 OA
BRANCH  25  27
ATOM     27  O   UNL     1       6.467   4.961  13.251  0.00  0.00    +0.000 OA
BRANCH  27  28
ATOM     28  C   UNL     1       6.972   3.866  12.483  0.00  0.00    +0.000 C 
ATOM     29  C   UNL     1       5.794   3.014  12.045  0.00  0.00    +0.000 C 
ENDBRANCH  27  28
ENDBRANCH  25  27
ENDBRANCH   2  25
TORSDOF 12
ENDMDL
MODEL 8
REMARK VINA RESULT:      -5.7      4.486      7.880
REMARK  Name = 
REMARK  17 active torsions:
REMARK  status: ('A' for Active; 'I' for Inactive)
REMARK    1  A    between atoms: C_1  and  C_2
REMARK    2  A    between atoms: C_2  and  O_3
REMARK    3  A    between atoms: O_3  and  C_4
REMARK    4  A    between atoms: C_4  and  C_6
REMARK    5  A    between atoms: C_7  and  C_8
REMARK    6  A    between atoms: C_9  and  C_10
REMARK    7  A    between atoms: C_10  and  O_12
REMARK    8  A    between atoms: O_12  and  C_13
REMARK    9  A    between atoms: C_13  and  C_14
REMARK   10  A    between atoms: N_17  and  C_18
REMARK   11  A    between atoms: C_20  and  C_21
REMARK   12  A    between atoms: C_21  and  O_22
REMARK   13  A    between atoms: O_22  and  C_23
REMARK   14  A    between atoms: C_24  and  O_25
REMARK   15  A    between atoms: O_25  and  C_26
REMARK   16  A    between atoms: C_27  and  O_28
REMARK   17  A    between atoms: O_28  and  C_29
REMARK                            x       y       z     vdW  Elec       q    Type
REMARK                         _______ _______ _______ _____ _____    ______ ____
ROOT
ATOM      1  C   UNL     1       1.816   8.132  19.595  0.00  0.00    +0.000 A 
ATOM      2  C   UNL     1       1.612   8.732  18.364  0.00  0.00    +0.000 A 
ATOM      3  N   UNL     1       2.214   7.971  17.389  0.00  0.00    +0.000 NA
ATOM      4  N   UNL     1       2.778   6.927  17.963  0.00  0.00    +0.000 NA
ATOM      5  N   UNL     1       2.559   7.016  19.292  0.00  0.00    +0.000 N 
ENDROOT
BRANCH   5   6
ATOM      6  C   UNL     1       3.038   5.959  20.172  0.00  0.00    +0.000 C 
ATOM      7  O   UNL     1       4.457   5.810  19.975  0.00  0.00    +0.000 OA
ATOM      8  C   UNL     1       4.697   4.514  19.371  0.00  0.00    +0.000 C 
ATOM      9  C   UNL     1       3.349   4.023  18.838  0.00  0.00    +0.000 C 
ATOM     10  C   UNL     1       2.386   4.597  19.888  0.00  0.00    +0.000 C 
BRANCH   9  11
ATOM     11  O   UNL     1       3.319   2.607  18.661  0.00  0.00    +0.000 OA
ATOM     12  C   UNL     1       2.368   2.191  17.686  0.00  0.00    +0.000 C 
ENDBRANCH   9  11
BRANCH  10  13
ATOM     13  O   UNL     1       2.390   3.752  21.057  0.00  0.00    +0.000 OA
ATOM     14  C   UNL     1       1.199   2.996  21.229  0.00  0.00    +0.000 C 
ENDBRANCH  10  13
BRANCH   8  15
ATOM     15  C   UNL     1       5.765   4.663  18.284  0.00  0.00    +0.000 C 
BRANCH  15  16
ATOM     16  O   UNL     1       7.036   4.867  18.917  0.00  0.00    +0.000 OA
ATOM     17  C   UNL     1       7.680   6.048  18.465  0.00  0.00    +0.000 C 
ENDBRANCH  15  16
ENDBRANCH   8  15
ENDBRANCH   5   6
BRANCH   1  19
ATOM     18  C   UNL     1       0.964   8.889  21.958  0.00  0.00    +0.000 C 
ATOM     19  C   UNL     1       1.354   8.531  20.883  0.00  0.00    +0.000 C 
BRANCH  18  20
ATOM     20  C   UNL     1       0.466   9.400  23.207  0.00  0.00    +0.000 C 
ATOM     21  O   UNL     1       1.141   9.330  24.221  0.00  0.00    +0.000 OA
BRANCH  20  22
ATOM     22  O   UNL     1      -0.824   9.810  23.116  0.00  0.00    +0.000 OA
BRANCH  22  24
ATOM     23  C   UNL     1      -1.334  12.147  23.059  0.00  0.00    +0.000 C 
ATOM     24  C   UNL     1      -1.047  10.911  22.225  0.00  0.00    +0.000 C 
ENDBRANCH  22  24
ENDBRANCH  20  22
ENDBRANCH  18  20
ENDBRANCH   1  19
BRANCH   2  25
ATOM     25  C   UNL     1       0.827   9.907  18.040  0.00  0.00    +0.000 C 
ATOM     26  O   UNL     1      -0.261   9.874  17.477  0.00  0.00    +0.000 OA
BRANCH  25  27
ATOM     27  O   UNL     1       1.509  11.052  18.339  0.00  0.00    +0.000 OA
BRANCH  27  28
ATOM     28  C   UNL     1       0.767  12.058  19.032  0.00  0.00    +0.000 C 
ATOM     29  C   UNL     1       1.618  12.564  20.183  0.00  0.00    +0.000 C 
ENDBRANCH  27  28
ENDBRANCH  25  27
ENDBRANCH   2  25
TORSDOF 12
ENDMDL
MODEL 9
REMARK VINA RESULT:      -5.7      2.625      5.667
REMARK  Name = 
REMARK  17 active torsions:
REMARK  status: ('A' for Active; 'I' for Inactive)
REMARK    1  A    between atoms: C_1  and  C_2
REMARK    2  A    between atoms: C_2  and  O_3
REMARK    3  A    between atoms: O_3  and  C_4
REMARK    4  A    between atoms: C_4  and  C_6
REMARK    5  A    between atoms: C_7  and  C_8
REMARK    6  A    between atoms: C_9  and  C_10
REMARK    7  A    between atoms: C_10  and  O_12
REMARK    8  A    between atoms: O_12  and  C_13
REMARK    9  A    between atoms: C_13  and  C_14
REMARK   10  A    between atoms: N_17  and  C_18
REMARK   11  A    between atoms: C_20  and  C_21
REMARK   12  A    between atoms: C_21  and  O_22
REMARK   13  A    between atoms: O_22  and  C_23
REMARK   14  A    between atoms: C_24  and  O_25
REMARK   15  A    between atoms: O_25  and  C_26
REMARK   16  A    between atoms: C_27  and  O_28
REMARK   17  A    between atoms: O_28  and  C_29
REMARK                            x       y       z     vdW  Elec       q    Type
REMARK                         _______ _______ _______ _____ _____    ______ ____
ROOT
ATOM      1  C   UNL     1       4.812   5.886  17.742  0.00  0.00    +0.000 A 
ATOM      2  C   UNL     1       5.734   5.528  16.773  0.00  0.00    +0.000 A 
ATOM      3  N   UNL     1       6.355   4.361  17.155  0.00  0.00    +0.000 NA
ATOM      4  N   UNL     1       5.855   3.983  18.315  0.00  0.00    +0.000 NA
ATOM      5  N   UNL     1       4.936   4.897  18.689  0.00  0.00    +0.000 N 
ENDROOT
BRANCH   5   6
ATOM      6  C   UNL     1       4.188   4.703  19.923  0.00  0.00    +0.000 C 
ATOM      7  O   UNL     1       4.846   3.684  20.699  0.00  0.00    +0.000 OA
ATOM      8  C   UNL     1       3.974   2.527  20.760  0.00  0.00    +0.000 C 
ATOM      9  C   UNL     1       2.920   2.714  19.668  0.00  0.00    +0.000 C 
ATOM     10  C   UNL     1       2.742   4.240  19.684  0.00  0.00    +0.000 C 
BRANCH   9  11
ATOM     11  O   UNL     1       1.745   1.940  19.908  0.00  0.00    +0.000 OA
ATOM     12  C   UNL     1       0.750   2.118  18.907  0.00  0.00    +0.000 C 
ENDBRANCH   9  11
BRANCH  10  13
ATOM     13  O   UNL     1       1.878   4.612  20.778  0.00  0.00    +0.000 OA
ATOM     14  C   UNL     1       1.559   5.996  20.819  0.00  0.00    +0.000 C 
ENDBRANCH  10  13
BRANCH   8  15
ATOM     15  C   UNL     1       4.817   1.260  20.583  0.00  0.00    +0.000 C 
BRANCH  15  16
ATOM     16  O   UNL     1       5.749   1.176  21.670  0.00  0.00    +0.000 OA
ATOM     17  C   UNL     1       6.110  -0.163  21.969  0.00  0.00    +0.000 C 
ENDBRANCH  15  16
ENDBRANCH   8  15
ENDBRANCH   5   6
BRANCH   1  19
ATOM     18  C   UNL     1       3.138   7.906  17.800  0.00  0.00    +0.000 C 
ATOM     19  C   UNL     1       3.913   6.992  17.770  0.00  0.00    +0.000 C 
BRANCH  18  20
ATOM     20  C   UNL     1       2.150   8.948  17.885  0.00  0.00    +0.000 C 
ATOM     21  O   UNL     1       2.270   9.974  17.235  0.00  0.00    +0.000 OA
BRANCH  20  22
ATOM     22  O   UNL     1       1.213   8.690  18.831  0.00  0.00    +0.000 OA
BRANCH  22  24
ATOM     23  C   UNL     1      -0.554  10.224  19.330  0.00  0.00    +0.000 C 
ATOM     24  C   UNL     1       0.868   9.808  19.660  0.00  0.00    +0.000 C 
ENDBRANCH  22  24
ENDBRANCH  20  22
ENDBRANCH  18  20
ENDBRANCH   1  19
BRANCH   2  25
ATOM     25  C   UNL     1       6.001   6.151  15.491  0.00  0.00    +0.000 C 
ATOM     26  O   UNL     1       5.210   6.878  14.901  0.00  0.00    +0.000 OA
BRANCH  25  27
ATOM     27  O   UNL     1       7.194   5.729  14.979  0.00  0.00    +0.000 OA
BRANCH  27  28
ATOM     28  C   UNL     1       7.116   4.862  13.846  0.00  0.00    +0.000 C 
ATOM     29  C   UNL     1       8.006   5.430  12.754  0.00  0.00    +0.000 C 
ENDBRANCH  27  28
ENDBRANCH  25  27
ENDBRANCH   2  25
TORSDOF 12
ENDMDL
