MODEL 1
REMARK VINA RESULT:      -7.8      0.000      0.000
REMARK  Name = 
REMARK  6 active torsions:
REMARK  status: ('A' for Active; 'I' for Inactive)
REMARK    1  A    between atoms: C_1  and  O_2
REMARK    2  A    between atoms: O_2  and  C_3
REMARK    3  A    between atoms: C_3  and  C_5
REMARK    4  A    between atoms: C_8  and  C_9
REMARK    5  A    between atoms: C_9  and  N_10
REMARK    6  A    between atoms: C_11  and  C_13
REMARK                            x       y       z     vdW  Elec       q    Type
REMARK                         _______ _______ _______ _____ _____    ______ ____
ROOT
ATOM      1  N   UNL     1       2.816   6.480  19.178  0.00  0.00    +0.000 N 
ATOM      2  C   UNL     1       1.933   6.769  20.193  0.00  0.00    +0.000 C 
ATOM      3  O   UNL     1       1.471   5.910  20.939  0.00  0.00    +0.000 OA
ATOM      4  H   UNL     1       3.010   7.170  18.465  0.00  0.00    +0.000 HD
ENDROOT
BRANCH   2   5
ATOM      5  C   UNL     1       1.495   8.186  20.330  0.00  0.00    +0.000 A 
ATOM      6  C   UNL     1       1.436   9.077  19.250  0.00  0.00    +0.000 A 
ATOM      7  C   UNL     1       0.913  10.363  19.432  0.00  0.00    +0.000 A 
ATOM      8  C   UNL     1       0.446  10.758  20.686  0.00  0.00    +0.000 A 
ATOM      9  C   UNL     1       0.581   9.898  21.774  0.00  0.00    +0.000 A 
ATOM     10  C   UNL     1       1.109   8.622  21.605  0.00  0.00    +0.000 A 
ATOM     11  O   UNL     1       0.193  10.245  23.040  0.00  0.00    +0.000 OA
ATOM     12  C   UNL     1      -0.926  11.125  22.968  0.00  0.00    +0.000 C 
ATOM     13  C   UNL     1      -0.650  12.319  22.064  0.00  0.00    +0.000 C 
ATOM     14  O   UNL     1      -0.162  11.981  20.760  0.00  0.00    +0.000 OA
ENDBRANCH   2   5
BRANCH   1  15
ATOM     15  C   UNL     1       3.197   5.113  18.897  0.00  0.00    +0.000 C 
BRANCH  15  19
ATOM     16  C   UNL     1       5.849   4.880  15.492  0.00  0.00    +0.000 A 
ATOM     17  C   UNL     1       5.407   3.719  16.130  0.00  0.00    +0.000 A 
ATOM     18  C   UNL     1       4.547   3.800  17.229  0.00  0.00    +0.000 A 
ATOM     19  C   UNL     1       4.122   5.048  17.705  0.00  0.00    +0.000 A 
ATOM     20  C   UNL     1       4.548   6.207  17.053  0.00  0.00    +0.000 A 
ATOM     21  C   UNL     1       5.409   6.129  15.951  0.00  0.00    +0.000 A 
BRANCH  16  22
ATOM     22  C   UNL     1       6.783   4.732  14.341  0.00  0.00    +0.000 C 
ATOM     23  O   UNL     1       7.596   5.585  14.020  0.00  0.00    +0.000 OA
BRANCH  22  25
ATOM     24  C   UNL     1       6.153   3.695  12.345  0.00  0.00    +0.000 C 
ATOM     25  O   UNL     1       6.578   3.553  13.701  0.00  0.00    +0.000 OA
ENDBRANCH  22  25
ENDBRANCH  16  22
ENDBRANCH  15  19
ENDBRANCH   1  15
TORSDOF 5
ENDMDL
MODEL 2
REMARK VINA RESULT:      -7.7      1.105      1.155
REMARK  Name = 
REMARK  6 active torsions:
REMARK  status: ('A' for Active; 'I' for Inactive)
REMARK    1  A    between atoms: C_1  and  O_2
REMARK    2  A    between atoms: O_2  and  C_3
REMARK    3  A    between atoms: C_3  and  C_5
REMARK    4  A    between atoms: C_8  and  C_9
REMARK    5  A    between atoms: C_9  and  N_10
REMARK    6  A    between atoms: C_11  and  C_13
REMARK                            x       y       z     vdW  Elec       q    Type
REMARK                         _______ _______ _______ _____ _____    ______ ____
ROOT
ATOM      1  N   UNL     1       3.782   5.906  19.752  0.00  0.00    +0.000 N 
ATOM      2  C   UNL     1       2.552   6.216  19.218  0.00  0.00    +0.000 C 
ATOM      3  O   UNL     1       1.920   5.441  18.506  0.00  0.00    +0.000 OA
ATOM      4  H   UNL     1       4.357   6.634  20.154  0.00  0.00    +0.000 HD
ENDROOT
BRANCH   2   5
ATOM      5  C   UNL     1       2.020   7.581  19.487  0.00  0.00    +0.000 A 
ATOM      6  C   UNL     1       1.854   8.549  18.487  0.00  0.00    +0.000 A 
ATOM      7  C   UNL     1       1.248   9.774  18.794  0.00  0.00    +0.000 A 
ATOM      8  C   UNL     1       0.806  10.031  20.092  0.00  0.00    +0.000 A 
ATOM      9  C   UNL     1       1.046   9.099  21.099  0.00  0.00    +0.000 A 
ATOM     10  C   UNL     1       1.656   7.883  20.806  0.00  0.00    +0.000 A 
ATOM     11  O   UNL     1       0.686   9.314  22.402  0.00  0.00    +0.000 OA
ATOM     12  C   UNL     1      -0.495  10.111  22.442  0.00  0.00    +0.000 C 
ATOM     13  C   UNL     1      -0.342  11.391  21.632  0.00  0.00    +0.000 C 
ATOM     14  O   UNL     1       0.115  11.195  20.288  0.00  0.00    +0.000 OA
ENDBRANCH   2   5
BRANCH   1  15
ATOM     15  C   UNL     1       4.428   4.650  19.437  0.00  0.00    +0.000 C 
BRANCH  15  19
ATOM     16  C   UNL     1       6.349   4.808  15.569  0.00  0.00    +0.000 A 
ATOM     17  C   UNL     1       5.322   3.895  15.816  0.00  0.00    +0.000 A 
ATOM     18  C   UNL     1       4.702   3.851  17.068  0.00  0.00    +0.000 A 
ATOM     19  C   UNL     1       5.107   4.719  18.091  0.00  0.00    +0.000 A 
ATOM     20  C   UNL     1       6.121   5.646  17.835  0.00  0.00    +0.000 A 
ATOM     21  C   UNL     1       6.743   5.693  16.581  0.00  0.00    +0.000 A 
BRANCH  16  22
ATOM     22  C   UNL     1       6.987   4.793  14.223  0.00  0.00    +0.000 C 
ATOM     23  O   UNL     1       7.814   5.616  13.861  0.00  0.00    +0.000 OA
BRANCH  22  25
ATOM     24  C   UNL     1       6.884   3.838  12.094  0.00  0.00    +0.000 C 
ATOM     25  O   UNL     1       6.501   3.775  13.469  0.00  0.00    +0.000 OA
ENDBRANCH  22  25
ENDBRANCH  16  22
ENDBRANCH  15  19
ENDBRANCH   1  15
TORSDOF 5
ENDMDL
MODEL 3
REMARK VINA RESULT:      -7.7      0.384      1.058
REMARK  Name = 
REMARK  6 active torsions:
REMARK  status: ('A' for Active; 'I' for Inactive)
REMARK    1  A    between atoms: C_1  and  O_2
REMARK    2  A    between atoms: O_2  and  C_3
REMARK    3  A    between atoms: C_3  and  C_5
REMARK    4  A    between atoms: C_8  and  C_9
REMARK    5  A    between atoms: C_9  and  N_10
REMARK    6  A    between atoms: C_11  and  C_13
REMARK                            x       y       z     vdW  Elec       q    Type
REMARK                         _______ _______ _______ _____ _____    ______ ____
ROOT
ATOM      1  N   UNL     1       2.410   6.325  18.824  0.00  0.00    +0.000 N 
ATOM      2  C   UNL     1       2.059   6.711  20.098  0.00  0.00    +0.000 C 
ATOM      3  O   UNL     1       2.076   5.943  21.056  0.00  0.00    +0.000 OA
ATOM      4  H   UNL     1       2.187   6.917  18.037  0.00  0.00    +0.000 HD
ENDROOT
BRANCH   2   5
ATOM      5  C   UNL     1       1.586   8.112  20.277  0.00  0.00    +0.000 A 
ATOM      6  C   UNL     1       1.487   9.028  19.221  0.00  0.00    +0.000 A 
ATOM      7  C   UNL     1       0.934  10.295  19.445  0.00  0.00    +0.000 A 
ATOM      8  C   UNL     1       0.479  10.646  20.716  0.00  0.00    +0.000 A 
ATOM      9  C   UNL     1       0.654   9.763  21.779  0.00  0.00    +0.000 A 
ATOM     10  C   UNL     1       1.211   8.506  21.569  0.00  0.00    +0.000 A 
ATOM     11  O   UNL     1       0.278  10.069  23.059  0.00  0.00    +0.000 OA
ATOM     12  C   UNL     1      -0.864  10.920  23.027  0.00  0.00    +0.000 C 
ATOM     13  C   UNL     1      -0.634  12.143  22.150  0.00  0.00    +0.000 C 
ATOM     14  O   UNL     1      -0.160  11.850  20.830  0.00  0.00    +0.000 OA
ENDBRANCH   2   5
BRANCH   1  15
ATOM     15  C   UNL     1       2.760   4.950  18.539  0.00  0.00    +0.000 C 
BRANCH  15  19
ATOM     16  C   UNL     1       5.811   4.795  15.482  0.00  0.00    +0.000 A 
ATOM     17  C   UNL     1       5.305   6.021  15.921  0.00  0.00    +0.000 A 
ATOM     18  C   UNL     1       4.321   6.065  16.913  0.00  0.00    +0.000 A 
ATOM     19  C   UNL     1       3.828   4.879  17.474  0.00  0.00    +0.000 A 
ATOM     20  C   UNL     1       4.349   3.656  17.048  0.00  0.00    +0.000 A 
ATOM     21  C   UNL     1       5.336   3.608  16.055  0.00  0.00    +0.000 A 
BRANCH  16  22
ATOM     22  C   UNL     1       6.841   4.810  14.406  0.00  0.00    +0.000 C 
ATOM     23  O   UNL     1       7.833   5.524  14.434  0.00  0.00    +0.000 OA
BRANCH  22  25
ATOM     24  C   UNL     1       7.142   4.252  12.158  0.00  0.00    +0.000 C 
ATOM     25  O   UNL     1       6.506   3.959  13.403  0.00  0.00    +0.000 OA
ENDBRANCH  22  25
ENDBRANCH  16  22
ENDBRANCH  15  19
ENDBRANCH   1  15
TORSDOF 5
ENDMDL
MODEL 4
REMARK VINA RESULT:      -7.6      1.169      1.525
REMARK  Name = 
REMARK  6 active torsions:
REMARK  status: ('A' for Active; 'I' for Inactive)
REMARK    1  A    between atoms: C_1  and  O_2
REMARK    2  A    between atoms: O_2  and  C_3
REMARK    3  A    between atoms: C_3  and  C_5
REMARK    4  A    between atoms: C_8  and  C_9
REMARK    5  A    between atoms: C_9  and  N_10
REMARK    6  A    between atoms: C_11  and  C_13
REMARK                            x       y       z     vdW  Elec       q    Type
REMARK                         _______ _______ _______ _____ _____    ______ ____
ROOT
ATOM      1  N   UNL     1       3.775   5.931  19.674  0.00  0.00    +0.000 N 
ATOM      2  C   UNL     1       2.617   6.273  19.013  0.00  0.00    +0.000 C 
ATOM      3  O   UNL     1       2.053   5.521  18.223  0.00  0.00    +0.000 OA
ATOM      4  H   UNL     1       4.315   6.641  20.149  0.00  0.00    +0.000 HD
ENDROOT
BRANCH   2   5
ATOM      5  C   UNL     1       2.084   7.645  19.243  0.00  0.00    +0.000 A 
ATOM      6  C   UNL     1       1.965   8.601  18.226  0.00  0.00    +0.000 A 
ATOM      7  C   UNL     1       1.356   9.834  18.493  0.00  0.00    +0.000 A 
ATOM      8  C   UNL     1       0.864  10.110  19.769  0.00  0.00    +0.000 A 
ATOM      9  C   UNL     1       1.057   9.190  20.797  0.00  0.00    +0.000 A 
ATOM     10  C   UNL     1       1.670   7.966  20.543  0.00  0.00    +0.000 A 
ATOM     11  O   UNL     1       0.647   9.423  22.081  0.00  0.00    +0.000 OA
ATOM     12  C   UNL     1      -0.529  10.228  22.064  0.00  0.00    +0.000 C 
ATOM     13  C   UNL     1      -0.335  11.497  21.244  0.00  0.00    +0.000 C 
ATOM     14  O   UNL     1       0.174  11.281  19.922  0.00  0.00    +0.000 OA
ENDBRANCH   2   5
BRANCH   1  15
ATOM     15  C   UNL     1       4.428   4.666  19.413  0.00  0.00    +0.000 C 
BRANCH  15  19
ATOM     16  C   UNL     1       6.304   4.719  15.520  0.00  0.00    +0.000 A 
ATOM     17  C   UNL     1       6.641   5.671  16.485  0.00  0.00    +0.000 A 
ATOM     18  C   UNL     1       6.033   5.647  17.743  0.00  0.00    +0.000 A 
ATOM     19  C   UNL     1       5.076   4.670  18.049  0.00  0.00    +0.000 A 
ATOM     20  C   UNL     1       4.756   3.706  17.091  0.00  0.00    +0.000 A 
ATOM     21  C   UNL     1       5.364   3.727  15.829  0.00  0.00    +0.000 A 
BRANCH  16  22
ATOM     22  C   UNL     1       6.968   4.809  14.190  0.00  0.00    +0.000 C 
ATOM     23  O   UNL     1       7.912   5.549  13.957  0.00  0.00    +0.000 OA
BRANCH  22  25
ATOM     24  C   UNL     1       7.074   3.856  12.060  0.00  0.00    +0.000 C 
ATOM     25  O   UNL     1       6.362   3.992  13.291  0.00  0.00    +0.000 OA
ENDBRANCH  22  25
ENDBRANCH  16  22
ENDBRANCH  15  19
ENDBRANCH   1  15
TORSDOF 5
ENDMDL
MODEL 5
REMARK VINA RESULT:      -7.5      3.851      5.412
REMARK  Name = 
REMARK  6 active torsions:
REMARK  status: ('A' for Active; 'I' for Inactive)
REMARK    1  A    between atoms: C_1  and  O_2
REMARK    2  A    between atoms: O_2  and  C_3
REMARK    3  A    between atoms: C_3  and  C_5
REMARK    4  A    between atoms: C_8  and  C_9
REMARK    5  A    between atoms: C_9  and  N_10
REMARK    6  A    between atoms: C_11  and  C_13
REMARK                            x       y       z     vdW  Elec       q    Type
REMARK                         _______ _______ _______ _____ _____    ______ ____
ROOT
ATOM      1  N   UNL     1       1.180   9.152  17.845  0.00  0.00    +0.000 N 
ATOM      2  C   UNL     1       0.477   9.933  18.733  0.00  0.00    +0.000 C 
ATOM      3  O   UNL     1       0.909  10.236  19.842  0.00  0.00    +0.000 OA
ATOM      4  H   UNL     1       0.715   8.757  17.040  0.00  0.00    +0.000 HD
ENDROOT
BRANCH   2   5
ATOM      5  C   UNL     1      -0.888  10.366  18.324  0.00  0.00    +0.000 A 
ATOM      6  C   UNL     1      -1.564   9.827  17.222  0.00  0.00    +0.000 A 
ATOM      7  C   UNL     1      -2.887  10.205  16.960  0.00  0.00    +0.000 A 
ATOM      8  C   UNL     1      -3.534  11.115  17.796  0.00  0.00    +0.000 A 
ATOM      9  C   UNL     1      -2.832  11.710  18.842  0.00  0.00    +0.000 A 
ATOM     10  C   UNL     1      -1.514  11.348  19.105  0.00  0.00    +0.000 A 
ATOM     11  O   UNL     1      -3.393  12.649  19.665  0.00  0.00    +0.000 OA
ATOM     12  C   UNL     1      -4.785  12.382  19.809  0.00  0.00    +0.000 C 
ATOM     13  C   UNL     1      -5.480  12.259  18.459  0.00  0.00    +0.000 C 
ATOM     14  O   UNL     1      -4.860  11.342  17.550  0.00  0.00    +0.000 OA
ENDBRANCH   2   5
BRANCH   1  15
ATOM     15  C   UNL     1       2.460   8.586  18.212  0.00  0.00    +0.000 C 
BRANCH  15  19
ATOM     16  C   UNL     1       2.003   4.529  19.630  0.00  0.00    +0.000 A 
ATOM     17  C   UNL     1       1.977   5.602  20.524  0.00  0.00    +0.000 A 
ATOM     18  C   UNL     1       2.121   6.913  20.059  0.00  0.00    +0.000 A 
ATOM     19  C   UNL     1       2.300   7.163  18.692  0.00  0.00    +0.000 A 
ATOM     20  C   UNL     1       2.306   6.091  17.797  0.00  0.00    +0.000 A 
ATOM     21  C   UNL     1       2.160   4.776  18.260  0.00  0.00    +0.000 A 
BRANCH  16  22
ATOM     22  C   UNL     1       1.867   3.154  20.187  0.00  0.00    +0.000 C 
ATOM     23  O   UNL     1       1.069   2.859  21.063  0.00  0.00    +0.000 OA
BRANCH  22  25
ATOM     24  C   UNL     1       4.072   2.384  20.173  0.00  0.00    +0.000 C 
ATOM     25  O   UNL     1       2.761   2.309  19.612  0.00  0.00    +0.000 OA
ENDBRANCH  22  25
ENDBRANCH  16  22
ENDBRANCH  15  19
ENDBRANCH   1  15
TORSDOF 5
ENDMDL
MODEL 6
REMARK VINA RESULT:      -7.5      1.544      2.452
REMARK  Name = 
REMARK  6 active torsions:
REMARK  status: ('A' for Active; 'I' for Inactive)
REMARK    1  A    between atoms: C_1  and  O_2
REMARK    2  A    between atoms: O_2  and  C_3
REMARK    3  A    between atoms: C_3  and  C_5
REMARK    4  A    between atoms: C_8  and  C_9
REMARK    5  A    between atoms: C_9  and  N_10
REMARK    6  A    between atoms: C_11  and  C_13
REMARK                            x       y       z     vdW  Elec       q    Type
REMARK                         _______ _______ _______ _____ _____    ______ ____
ROOT
ATOM      1  N   UNL     1       4.092   5.884  19.743  0.00  0.00    +0.000 N 
ATOM      2  C   UNL     1       2.726   5.908  19.583  0.00  0.00    +0.000 C 
ATOM      3  O   UNL     1       2.074   4.916  19.269  0.00  0.00    +0.000 OA
ATOM      4  H   UNL     1       4.611   6.750  19.796  0.00  0.00    +0.000 HD
ENDROOT
BRANCH   2   5
ATOM      5  C   UNL     1       2.045   7.223  19.748  0.00  0.00    +0.000 A 
ATOM      6  C   UNL     1       1.309   7.566  20.890  0.00  0.00    +0.000 A 
ATOM      7  C   UNL     1       0.786   8.859  21.022  0.00  0.00    +0.000 A 
ATOM      8  C   UNL     1       0.999   9.806  20.021  0.00  0.00    +0.000 A 
ATOM      9  C   UNL     1       1.661   9.437  18.852  0.00  0.00    +0.000 A 
ATOM     10  C   UNL     1       2.176   8.153  18.708  0.00  0.00    +0.000 A 
ATOM     11  O   UNL     1       1.855  10.304  17.811  0.00  0.00    +0.000 OA
ATOM     12  C   UNL     1       1.999  11.628  18.318  0.00  0.00    +0.000 C 
ATOM     13  C   UNL     1       0.840  12.015  19.227  0.00  0.00    +0.000 C 
ATOM     14  O   UNL     1       0.565  11.078  20.275  0.00  0.00    +0.000 OA
ENDBRANCH   2   5
BRANCH   1  15
ATOM     15  C   UNL     1       4.845   4.677  19.479  0.00  0.00    +0.000 C 
BRANCH  15  19
ATOM     16  C   UNL     1       6.423   4.728  15.456  0.00  0.00    +0.000 A 
ATOM     17  C   UNL     1       6.950   5.571  16.437  0.00  0.00    +0.000 A 
ATOM     18  C   UNL     1       6.438   5.547  17.738  0.00  0.00    +0.000 A 
ATOM     19  C   UNL     1       5.387   4.681  18.070  0.00  0.00    +0.000 A 
ATOM     20  C   UNL     1       4.875   3.825  17.093  0.00  0.00    +0.000 A 
ATOM     21  C   UNL     1       5.387   3.845  15.788  0.00  0.00    +0.000 A 
BRANCH  16  22
ATOM     22  C   UNL     1       6.993   4.814  14.083  0.00  0.00    +0.000 C 
ATOM     23  O   UNL     1       7.959   5.505  13.797  0.00  0.00    +0.000 OA
BRANCH  22  25
ATOM     24  C   UNL     1       6.977   3.741  12.008  0.00  0.00    +0.000 C 
ATOM     25  O   UNL     1       6.279   4.055  13.213  0.00  0.00    +0.000 OA
ENDBRANCH  22  25
ENDBRANCH  16  22
ENDBRANCH  15  19
ENDBRANCH   1  15
TORSDOF 5
ENDMDL
MODEL 7
REMARK VINA RESULT:      -7.4      1.480      2.396
REMARK  Name = 
REMARK  6 active torsions:
REMARK  status: ('A' for Active; 'I' for Inactive)
REMARK    1  A    between atoms: C_1  and  O_2
REMARK    2  A    between atoms: O_2  and  C_3
REMARK    3  A    between atoms: C_3  and  C_5
REMARK    4  A    between atoms: C_8  and  C_9
REMARK    5  A    between atoms: C_9  and  N_10
REMARK    6  A    between atoms: C_11  and  C_13
REMARK                            x       y       z     vdW  Elec       q    Type
REMARK                         _______ _______ _______ _____ _____    ______ ____
ROOT
ATOM      1  N   UNL     1       3.794   5.892  19.709  0.00  0.00    +0.000 N 
ATOM      2  C   UNL     1       2.449   5.939  19.994  0.00  0.00    +0.000 C 
ATOM      3  O   UNL     1       1.759   4.931  20.120  0.00  0.00    +0.000 OA
ATOM      4  H   UNL     1       4.278   6.728  19.411  0.00  0.00    +0.000 HD
ENDROOT
BRANCH   2   5
ATOM      5  C   UNL     1       1.821   7.286  20.088  0.00  0.00    +0.000 A 
ATOM      6  C   UNL     1       1.100   7.719  21.210  0.00  0.00    +0.000 A 
ATOM      7  C   UNL     1       0.628   9.036  21.272  0.00  0.00    +0.000 A 
ATOM      8  C   UNL     1       0.877   9.920  20.222  0.00  0.00    +0.000 A 
ATOM      9  C   UNL     1       1.522   9.463  19.075  0.00  0.00    +0.000 A 
ATOM     10  C   UNL     1       1.986   8.153  18.999  0.00  0.00    +0.000 A 
ATOM     11  O   UNL     1       1.748  10.264  17.989  0.00  0.00    +0.000 OA
ATOM     12  C   UNL     1       1.944  11.607  18.424  0.00  0.00    +0.000 C 
ATOM     13  C   UNL     1       0.803  12.088  19.310  0.00  0.00    +0.000 C 
ATOM     14  O   UNL     1       0.494  11.220  20.407  0.00  0.00    +0.000 OA
ENDBRANCH   2   5
BRANCH   1  15
ATOM     15  C   UNL     1       4.456   4.627  19.478  0.00  0.00    +0.000 C 
BRANCH  15  19
ATOM     16  C   UNL     1       6.279   4.552  15.559  0.00  0.00    +0.000 A 
ATOM     17  C   UNL     1       4.891   4.464  15.701  0.00  0.00    +0.000 A 
ATOM     18  C   UNL     1       4.307   4.492  16.971  0.00  0.00    +0.000 A 
ATOM     19  C   UNL     1       5.108   4.604  18.116  0.00  0.00    +0.000 A 
ATOM     20  C   UNL     1       6.493   4.712  17.971  0.00  0.00    +0.000 A 
ATOM     21  C   UNL     1       7.081   4.685  16.700  0.00  0.00    +0.000 A 
BRANCH  16  22
ATOM     22  C   UNL     1       6.844   4.493  14.183  0.00  0.00    +0.000 C 
ATOM     23  O   UNL     1       6.478   3.690  13.338  0.00  0.00    +0.000 OA
BRANCH  22  25
ATOM     24  C   UNL     1       8.219   5.615  12.665  0.00  0.00    +0.000 C 
ATOM     25  O   UNL     1       7.825   5.418  14.023  0.00  0.00    +0.000 OA
ENDBRANCH  22  25
ENDBRANCH  16  22
ENDBRANCH  15  19
ENDBRANCH   1  15
TORSDOF 5
ENDMDL
MODEL 8
REMARK VINA RESULT:      -7.4      3.694      9.222
REMARK  Name = 
REMARK  6 active torsions:
REMARK  status: ('A' for Active; 'I' for Inactive)
REMARK    1  A    between atoms: C_1  and  O_2
REMARK    2  A    between atoms: O_2  and  C_3
REMARK    3  A    between atoms: C_3  and  C_5
REMARK    4  A    between atoms: C_8  and  C_9
REMARK    5  A    between atoms: C_9  and  N_10
REMARK    6  A    between atoms: C_11  and  C_13
REMARK                            x       y       z     vdW  Elec       q    Type
REMARK                         _______ _______ _______ _____ _____    ______ ____
ROOT
ATOM      1  N   UNL     1       1.330   9.244  19.271  0.00  0.00    +0.000 N 
ATOM      2  C   UNL     1       2.059   8.386  18.479  0.00  0.00    +0.000 C 
ATOM      3  O   UNL     1       2.538   8.720  17.399  0.00  0.00    +0.000 OA
ATOM      4  H   UNL     1       0.784   8.883  20.040  0.00  0.00    +0.000 HD
ENDROOT
BRANCH   2   5
ATOM      5  C   UNL     1       2.205   6.982  18.955  0.00  0.00    +0.000 A 
ATOM      6  C   UNL     1       1.892   6.579  20.260  0.00  0.00    +0.000 A 
ATOM      7  C   UNL     1       1.952   5.223  20.607  0.00  0.00    +0.000 A 
ATOM      8  C   UNL     1       2.320   4.273  19.654  0.00  0.00    +0.000 A 
ATOM      9  C   UNL     1       2.708   4.686  18.382  0.00  0.00    +0.000 A 
ATOM     10  C   UNL     1       2.661   6.032  18.031  0.00  0.00    +0.000 A 
ATOM     11  O   UNL     1       3.131   3.809  17.420  0.00  0.00    +0.000 OA
ATOM     12  C   UNL     1       2.456   2.565  17.584  0.00  0.00    +0.000 C 
ATOM     13  C   UNL     1       2.595   2.029  19.002  0.00  0.00    +0.000 C 
ATOM     14  O   UNL     1       2.237   2.960  20.030  0.00  0.00    +0.000 OA
ENDBRANCH   2   5
BRANCH   1  15
ATOM     15  C   UNL     1       1.036  10.589  18.825  0.00  0.00    +0.000 C 
BRANCH  15  19
ATOM     16  C   UNL     1      -3.177  11.055  17.979  0.00  0.00    +0.000 A 
ATOM     17  C   UNL     1      -2.543  11.882  18.909  0.00  0.00    +0.000 A 
ATOM     18  C   UNL     1      -1.179  11.729  19.176  0.00  0.00    +0.000 A 
ATOM     19  C   UNL     1      -0.435  10.741  18.517  0.00  0.00    +0.000 A 
ATOM     20  C   UNL     1      -1.066   9.929  17.572  0.00  0.00    +0.000 A 
ATOM     21  C   UNL     1      -2.433  10.081  17.301  0.00  0.00    +0.000 A 
BRANCH  16  22
ATOM     22  C   UNL     1      -4.636  11.250  17.753  0.00  0.00    +0.000 C 
ATOM     23  O   UNL     1      -5.113  11.581  16.678  0.00  0.00    +0.000 OA
BRANCH  22  25
ATOM     24  C   UNL     1      -6.688  10.637  18.687  0.00  0.00    +0.000 C 
ATOM     25  O   UNL     1      -5.335  11.043  18.898  0.00  0.00    +0.000 OA
ENDBRANCH  22  25
ENDBRANCH  16  22
ENDBRANCH  15  19
ENDBRANCH   1  15
TORSDOF 5
ENDMDL
MODEL 9
REMARK VINA RESULT:      -7.4      3.818      5.477
REMARK  Name = 
REMARK  6 active torsions:
REMARK  status: ('A' for Active; 'I' for Inactive)
REMARK    1  A    between atoms: C_1  and  O_2
REMARK    2  A    between atoms: O_2  and  C_3
REMARK    3  A    between atoms: C_3  and  C_5
REMARK    4  A    between atoms: C_8  and  C_9
REMARK    5  A    between atoms: C_9  and  N_10
REMARK    6  A    between atoms: C_11  and  C_13
REMARK                            x       y       z     vdW  Elec       q    Type
REMARK                         _______ _______ _______ _____ _____    ______ ____
ROOT
ATOM      1  N   UNL     1       0.951   9.460  17.754  0.00  0.00    +0.000 N 
ATOM      2  C   UNL     1       0.157  10.172  18.624  0.00  0.00    +0.000 C 
ATOM      3  O   UNL     1       0.531  10.508  19.744  0.00  0.00    +0.000 OA
ATOM      4  H   UNL     1       0.544   9.029  16.936  0.00  0.00    +0.000 HD
ENDROOT
BRANCH   2   5
ATOM      5  C   UNL     1      -1.230  10.483  18.179  0.00  0.00    +0.000 A 
ATOM      6  C   UNL     1      -1.825   9.891  17.057  0.00  0.00    +0.000 A 
ATOM      7  C   UNL     1      -3.169  10.150  16.759  0.00  0.00    +0.000 A 
ATOM      8  C   UNL     1      -3.918  10.994  17.581  0.00  0.00    +0.000 A 
ATOM      9  C   UNL     1      -3.300  11.643  18.648  0.00  0.00    +0.000 A 
ATOM     10  C   UNL     1      -1.963  11.400  18.945  0.00  0.00    +0.000 A 
ATOM     11  O   UNL     1      -3.965  12.524  19.458  0.00  0.00    +0.000 OA
ATOM     12  C   UNL     1      -5.332  12.132  19.562  0.00  0.00    +0.000 C 
ATOM     13  C   UNL     1      -5.976  11.955  18.194  0.00  0.00    +0.000 C 
ATOM     14  O   UNL     1      -5.252  11.102  17.299  0.00  0.00    +0.000 OA
ENDBRANCH   2   5
BRANCH   1  15
ATOM     15  C   UNL     1       2.266   9.010  18.154  0.00  0.00    +0.000 C 
BRANCH  15  19
ATOM     16  C   UNL     1       2.134   4.898  19.480  0.00  0.00    +0.000 A 
ATOM     17  C   UNL     1       2.335   5.205  18.132  0.00  0.00    +0.000 A 
ATOM     18  C   UNL     1       2.381   6.537  17.709  0.00  0.00    +0.000 A 
ATOM     19  C   UNL     1       2.220   7.579  18.633  0.00  0.00    +0.000 A 
ATOM     20  C   UNL     1       2.039   7.270  19.983  0.00  0.00    +0.000 A 
ATOM     21  C   UNL     1       1.994   5.937  20.410  0.00  0.00    +0.000 A 
BRANCH  16  22
ATOM     22  C   UNL     1       2.071   3.462  19.866  0.00  0.00    +0.000 C 
ATOM     23  O   UNL     1       1.042   2.902  20.213  0.00  0.00    +0.000 OA
BRANCH  22  25
ATOM     24  C   UNL     1       3.410   1.843  18.844  0.00  0.00    +0.000 C 
ATOM     25  O   UNL     1       3.302   2.891  19.808  0.00  0.00    +0.000 OA
ENDBRANCH  22  25
ENDBRANCH  16  22
ENDBRANCH  15  19
ENDBRANCH   1  15
TORSDOF 5
ENDMDL
