MODEL 1
REMARK VINA RESULT:      -8.0      0.000      0.000
REMARK  Name = 
REMARK  10 active torsions:
REMARK  status: ('A' for Active; 'I' for Inactive)
REMARK    1  A    between atoms: C_1  and  O_2
REMARK    2  A    between atoms: O_2  and  C_3
REMARK    3  A    between atoms: C_6  and  N_7
REMARK    4  A    between atoms: N_7  and  C_8
REMARK    5  A    between atoms: C_8  and  C_9
REMARK    6  A    between atoms: N_17  and  C_18
REMARK    7  A    between atoms: C_18  and  C_19
REMARK    8  A    between atoms: C_19  and  O_20
REMARK    9  A    between atoms: O_20  and  C_21
REMARK   10  A    between atoms: C_24  and  C_25
REMARK                            x       y       z     vdW  Elec       q    Type
REMARK                         _______ _______ _______ _____ _____    ______ ____
ROOT
ATOM      1  C   UNL     1       4.011   3.735  17.841  0.00  0.00    +0.000 A 
ATOM      2  N   UNL     1       4.317   2.842  18.757  0.00  0.00    +0.000 NA
ATOM      3  C   UNL     1       3.381   2.986  19.734  0.00  0.00    +0.000 A 
ATOM      4  C   UNL     1       3.267   2.247  20.919  0.00  0.00    +0.000 A 
ATOM      5  C   UNL     1       2.163   2.466  21.739  0.00  0.00    +0.000 A 
ATOM      6  C   UNL     1       1.202   3.411  21.381  0.00  0.00    +0.000 A 
ATOM      7  C   UNL     1       1.337   4.213  20.229  0.00  0.00    +0.000 A 
ATOM      8  C   UNL     1       2.458   3.992  19.419  0.00  0.00    +0.000 A 
ATOM      9  N   UNL     1       2.967   4.554  18.267  0.00  0.00    +0.000 N 
ENDROOT
BRANCH   1  10
ATOM     10  C   UNL     1       4.741   3.873  16.538  0.00  0.00    +0.000 C 
BRANCH  10  11
ATOM     11  N   UNL     1       6.207   3.874  16.664  0.00  0.00    +0.000 N 
ATOM     12  H   UNL     1       6.493   3.053  17.202  0.00  0.00    +0.000 HD
BRANCH  11  16
ATOM     13  C   UNL     1       8.047   7.344  18.254  0.00  0.00    +0.000 A 
ATOM     14  C   UNL     1       8.012   6.175  19.004  0.00  0.00    +0.000 A 
ATOM     15  C   UNL     1       7.408   5.022  18.498  0.00  0.00    +0.000 A 
ATOM     16  C   UNL     1       6.791   5.016  17.243  0.00  0.00    +0.000 A 
ATOM     17  C   UNL     1       6.857   6.194  16.485  0.00  0.00    +0.000 A 
ATOM     18  C   UNL     1       7.464   7.357  16.989  0.00  0.00    +0.000 A 
BRANCH  13  20
ATOM     19  C   UNL     1       8.532   9.657  18.224  0.00  0.00    +0.000 C 
ATOM     20  O   UNL     1       8.644   8.401  18.880  0.00  0.00    +0.000 OA
ENDBRANCH  13  20
ENDBRANCH  11  16
ENDBRANCH  10  11
ENDBRANCH   1  10
BRANCH   9  21
ATOM     21  C   UNL     1       2.688   5.800  17.585  0.00  0.00    +0.000 C 
BRANCH  21  22
ATOM     22  C   UNL     1       3.324   7.147  17.922  0.00  0.00    +0.000 C 
BRANCH  22  23
ATOM     23  O   UNL     1       2.719   7.500  19.184  0.00  0.00    +0.000 OA
BRANCH  23  24
ATOM     24  C   UNL     1       1.740   8.440  19.260  0.00  0.00    +0.000 A 
ATOM     25  C   UNL     1       1.178   8.597  20.532  0.00  0.00    +0.000 A 
ATOM     26  C   UNL     1       0.185   9.553  20.774  0.00  0.00    +0.000 A 
ATOM     27  C   UNL     1      -0.258  10.380  19.736  0.00  0.00    +0.000 A 
ATOM     28  C   UNL     1      -1.291  11.438  19.977  0.00  0.00    +0.000 C 
ATOM     29  C   UNL     1       0.314  10.224  18.466  0.00  0.00    +0.000 A 
ATOM     30  C   UNL     1       1.303   9.253  18.220  0.00  0.00    +0.000 A 
ENDBRANCH  23  24
ENDBRANCH  22  23
ENDBRANCH  21  22
ENDBRANCH   9  21
TORSDOF 8
ENDMDL
MODEL 2
REMARK VINA RESULT:      -7.9      0.634      1.143
REMARK  Name = 
REMARK  10 active torsions:
REMARK  status: ('A' for Active; 'I' for Inactive)
REMARK    1  A    between atoms: C_1  and  O_2
REMARK    2  A    between atoms: O_2  and  C_3
REMARK    3  A    between atoms: C_6  and  N_7
REMARK    4  A    between atoms: N_7  and  C_8
REMARK    5  A    between atoms: C_8  and  C_9
REMARK    6  A    between atoms: N_17  and  C_18
REMARK    7  A    between atoms: C_18  and  C_19
REMARK    8  A    between atoms: C_19  and  O_20
REMARK    9  A    between atoms: O_20  and  C_21
REMARK   10  A    between atoms: C_24  and  C_25
REMARK                            x       y       z     vdW  Elec       q    Type
REMARK                         _______ _______ _______ _____ _____    ______ ____
ROOT
ATOM      1  C   UNL     1       3.901   3.829  17.935  0.00  0.00    +0.000 A 
ATOM      2  N   UNL     1       4.277   2.923  18.811  0.00  0.00    +0.000 NA
ATOM      3  C   UNL     1       3.338   2.957  19.796  0.00  0.00    +0.000 A 
ATOM      4  C   UNL     1       3.285   2.162  20.949  0.00  0.00    +0.000 A 
ATOM      5  C   UNL     1       2.173   2.265  21.780  0.00  0.00    +0.000 A 
ATOM      6  C   UNL     1       1.143   3.151  21.466  0.00  0.00    +0.000 A 
ATOM      7  C   UNL     1       1.214   4.009  20.348  0.00  0.00    +0.000 A 
ATOM      8  C   UNL     1       2.343   3.905  19.526  0.00  0.00    +0.000 A 
ATOM      9  N   UNL     1       2.803   4.551  18.398  0.00  0.00    +0.000 N 
ENDROOT
BRANCH   1  10
ATOM     10  C   UNL     1       4.612   4.075  16.637  0.00  0.00    +0.000 C 
BRANCH  10  11
ATOM     11  N   UNL     1       6.074   3.939  16.713  0.00  0.00    +0.000 N 
ATOM     12  H   UNL     1       6.301   3.112  17.271  0.00  0.00    +0.000 HD
BRANCH  11  16
ATOM     13  C   UNL     1       8.121   7.233  18.421  0.00  0.00    +0.000 A 
ATOM     14  C   UNL     1       7.680   7.301  17.105  0.00  0.00    +0.000 A 
ATOM     15  C   UNL     1       7.006   6.225  16.524  0.00  0.00    +0.000 A 
ATOM     16  C   UNL     1       6.785   5.038  17.231  0.00  0.00    +0.000 A 
ATOM     17  C   UNL     1       7.212   4.992  18.566  0.00  0.00    +0.000 A 
ATOM     18  C   UNL     1       7.891   6.073  19.156  0.00  0.00    +0.000 A 
BRANCH  13  20
ATOM     19  C   UNL     1       8.410   9.571  18.243  0.00  0.00    +0.000 C 
ATOM     20  O   UNL     1       8.788   8.344  18.853  0.00  0.00    +0.000 OA
ENDBRANCH  13  20
ENDBRANCH  11  16
ENDBRANCH  10  11
ENDBRANCH   1  10
BRANCH   9  21
ATOM     21  C   UNL     1       2.430   5.801  17.770  0.00  0.00    +0.000 C 
BRANCH  21  22
ATOM     22  C   UNL     1       2.818   7.189  18.277  0.00  0.00    +0.000 C 
BRANCH  22  23
ATOM     23  O   UNL     1       2.283   7.220  19.617  0.00  0.00    +0.000 OA
BRANCH  23  24
ATOM     24  C   UNL     1       1.550   8.275  20.061  0.00  0.00    +0.000 A 
ATOM     25  C   UNL     1       1.254   8.247  21.429  0.00  0.00    +0.000 A 
ATOM     26  C   UNL     1       0.537   9.284  22.038  0.00  0.00    +0.000 A 
ATOM     27  C   UNL     1       0.110  10.379  21.280  0.00  0.00    +0.000 A 
ATOM     28  C   UNL     1      -0.623  11.520  21.914  0.00  0.00    +0.000 C 
ATOM     29  C   UNL     1       0.416  10.405  19.912  0.00  0.00    +0.000 A 
ATOM     30  C   UNL     1       1.125   9.356  19.297  0.00  0.00    +0.000 A 
ENDBRANCH  23  24
ENDBRANCH  22  23
ENDBRANCH  21  22
ENDBRANCH   9  21
TORSDOF 8
ENDMDL
MODEL 3
REMARK VINA RESULT:      -7.5      2.441      7.141
REMARK  Name = 
REMARK  10 active torsions:
REMARK  status: ('A' for Active; 'I' for Inactive)
REMARK    1  A    between atoms: C_1  and  O_2
REMARK    2  A    between atoms: O_2  and  C_3
REMARK    3  A    between atoms: C_6  and  N_7
REMARK    4  A    between atoms: N_7  and  C_8
REMARK    5  A    between atoms: C_8  and  C_9
REMARK    6  A    between atoms: N_17  and  C_18
REMARK    7  A    between atoms: C_18  and  C_19
REMARK    8  A    between atoms: C_19  and  O_20
REMARK    9  A    between atoms: O_20  and  C_21
REMARK   10  A    between atoms: C_24  and  C_25
REMARK                            x       y       z     vdW  Elec       q    Type
REMARK                         _______ _______ _______ _____ _____    ______ ____
ROOT
ATOM      1  C   UNL     1       3.399   6.291  17.928  0.00  0.00    +0.000 A 
ATOM      2  N   UNL     1       2.324   5.575  17.678  0.00  0.00    +0.000 NA
ATOM      3  C   UNL     1       2.659   4.294  17.994  0.00  0.00    +0.000 A 
ATOM      4  C   UNL     1       1.841   3.159  17.917  0.00  0.00    +0.000 A 
ATOM      5  C   UNL     1       2.332   1.950  18.403  0.00  0.00    +0.000 A 
ATOM      6  C   UNL     1       3.615   1.881  18.944  0.00  0.00    +0.000 A 
ATOM      7  C   UNL     1       4.476   2.998  18.964  0.00  0.00    +0.000 A 
ATOM      8  C   UNL     1       3.976   4.206  18.462  0.00  0.00    +0.000 A 
ATOM      9  N   UNL     1       4.476   5.478  18.275  0.00  0.00    +0.000 N 
ENDROOT
BRANCH   1  10
ATOM     10  C   UNL     1       3.452   7.784  17.794  0.00  0.00    +0.000 C 
BRANCH  10  11
ATOM     11  N   UNL     1       2.134   8.432  17.713  0.00  0.00    +0.000 N 
ATOM     12  H   UNL     1       2.187   9.208  17.049  0.00  0.00    +0.000 HD
BRANCH  11  16
ATOM     13  C   UNL     1       0.557  10.032  21.306  0.00  0.00    +0.000 A 
ATOM     14  C   UNL     1       1.212   8.807  21.325  0.00  0.00    +0.000 A 
ATOM     15  C   UNL     1       1.736   8.262  20.151  0.00  0.00    +0.000 A 
ATOM     16  C   UNL     1       1.589   8.911  18.919  0.00  0.00    +0.000 A 
ATOM     17  C   UNL     1       0.951  10.159  18.919  0.00  0.00    +0.000 A 
ATOM     18  C   UNL     1       0.422  10.712  20.098  0.00  0.00    +0.000 A 
BRANCH  13  20
ATOM     19  C   UNL     1      -0.737  11.601  22.509  0.00  0.00    +0.000 C 
ATOM     20  O   UNL     1       0.073  10.433  22.518  0.00  0.00    +0.000 OA
ENDBRANCH  13  20
ENDBRANCH  11  16
ENDBRANCH  10  11
ENDBRANCH   1  10
BRANCH   9  21
ATOM     21  C   UNL     1       5.825   6.002  18.263  0.00  0.00    +0.000 C 
BRANCH  21  22
ATOM     22  C   UNL     1       6.978   5.443  17.431  0.00  0.00    +0.000 C 
BRANCH  22  23
ATOM     23  O   UNL     1       6.760   6.019  16.126  0.00  0.00    +0.000 OA
BRANCH  23  24
ATOM     24  C   UNL     1       6.614   5.235  15.023  0.00  0.00    +0.000 A 
ATOM     25  C   UNL     1       5.450   4.459  15.008  0.00  0.00    +0.000 A 
ATOM     26  C   UNL     1       5.145   3.631  13.923  0.00  0.00    +0.000 A 
ATOM     27  C   UNL     1       6.005   3.573  12.822  0.00  0.00    +0.000 A 
ATOM     28  C   UNL     1       5.682   2.726  11.630  0.00  0.00    +0.000 C 
ATOM     29  C   UNL     1       7.166   4.359  12.839  0.00  0.00    +0.000 A 
ATOM     30  C   UNL     1       7.480   5.182  13.937  0.00  0.00    +0.000 A 
ENDBRANCH  23  24
ENDBRANCH  22  23
ENDBRANCH  21  22
ENDBRANCH   9  21
TORSDOF 8
ENDMDL
MODEL 4
REMARK VINA RESULT:      -7.4      2.273      3.248
REMARK  Name = 
REMARK  10 active torsions:
REMARK  status: ('A' for Active; 'I' for Inactive)
REMARK    1  A    between atoms: C_1  and  O_2
REMARK    2  A    between atoms: O_2  and  C_3
REMARK    3  A    between atoms: C_6  and  N_7
REMARK    4  A    between atoms: N_7  and  C_8
REMARK    5  A    between atoms: C_8  and  C_9
REMARK    6  A    between atoms: N_17  and  C_18
REMARK    7  A    between atoms: C_18  and  C_19
REMARK    8  A    between atoms: C_19  and  O_20
REMARK    9  A    between atoms: O_20  and  C_21
REMARK   10  A    between atoms: C_24  and  C_25
REMARK                            x       y       z     vdW  Elec       q    Type
REMARK                         _______ _______ _______ _____ _____    ______ ____
ROOT
ATOM      1  C   UNL     1       4.922   4.780  18.901  0.00  0.00    +0.000 A 
ATOM      2  N   UNL     1       4.609   3.777  19.693  0.00  0.00    +0.000 NA
ATOM      3  C   UNL     1       3.289   3.533  19.469  0.00  0.00    +0.000 A 
ATOM      4  C   UNL     1       2.495   2.544  20.063  0.00  0.00    +0.000 A 
ATOM      5  C   UNL     1       1.189   2.376  19.610  0.00  0.00    +0.000 A 
ATOM      6  C   UNL     1       0.691   3.188  18.592  0.00  0.00    +0.000 A 
ATOM      7  C   UNL     1       1.453   4.235  18.033  0.00  0.00    +0.000 A 
ATOM      8  C   UNL     1       2.761   4.402  18.506  0.00  0.00    +0.000 A 
ATOM      9  N   UNL     1       3.792   5.285  18.261  0.00  0.00    +0.000 N 
ENDROOT
BRANCH   1  10
ATOM     10  C   UNL     1       6.310   5.330  18.764  0.00  0.00    +0.000 C 
BRANCH  10  11
ATOM     11  N   UNL     1       7.219   4.487  17.971  0.00  0.00    +0.000 N 
ATOM     12  H   UNL     1       8.174   4.840  18.077  0.00  0.00    +0.000 HD
BRANCH  11  16
ATOM     13  C   UNL     1       6.359   4.308  13.826  0.00  0.00    +0.000 A 
ATOM     14  C   UNL     1       5.694   3.464  14.706  0.00  0.00    +0.000 A 
ATOM     15  C   UNL     1       5.965   3.506  16.076  0.00  0.00    +0.000 A 
ATOM     16  C   UNL     1       6.935   4.370  16.598  0.00  0.00    +0.000 A 
ATOM     17  C   UNL     1       7.579   5.236  15.702  0.00  0.00    +0.000 A 
ATOM     18  C   UNL     1       7.309   5.197  14.323  0.00  0.00    +0.000 A 
BRANCH  13  20
ATOM     19  C   UNL     1       5.735   2.810  12.108  0.00  0.00    +0.000 C 
ATOM     20  O   UNL     1       6.015   4.143  12.515  0.00  0.00    +0.000 OA
ENDBRANCH  13  20
ENDBRANCH  11  16
ENDBRANCH  10  11
ENDBRANCH   1  10
BRANCH   9  21
ATOM     21  C   UNL     1       3.832   6.580  17.615  0.00  0.00    +0.000 C 
BRANCH  21  22
ATOM     22  C   UNL     1       2.858   7.726  17.883  0.00  0.00    +0.000 C 
BRANCH  22  23
ATOM     23  O   UNL     1       2.393   7.466  19.224  0.00  0.00    +0.000 OA
BRANCH  23  24
ATOM     24  C   UNL     1       1.615   8.362  19.888  0.00  0.00    +0.000 A 
ATOM     25  C   UNL     1       1.424   8.077  21.245  0.00  0.00    +0.000 A 
ATOM     26  C   UNL     1       0.677   8.928  22.067  0.00  0.00    +0.000 A 
ATOM     27  C   UNL     1       0.112  10.093  21.539  0.00  0.00    +0.000 A 
ATOM     28  C   UNL     1      -0.658  11.042  22.406  0.00  0.00    +0.000 C 
ATOM     29  C   UNL     1       0.313  10.378  20.181  0.00  0.00    +0.000 A 
ATOM     30  C   UNL     1       1.053   9.515  19.351  0.00  0.00    +0.000 A 
ENDBRANCH  23  24
ENDBRANCH  22  23
ENDBRANCH  21  22
ENDBRANCH   9  21
TORSDOF 8
ENDMDL
MODEL 5
REMARK VINA RESULT:      -7.3      2.433      7.275
REMARK  Name = 
REMARK  10 active torsions:
REMARK  status: ('A' for Active; 'I' for Inactive)
REMARK    1  A    between atoms: C_1  and  O_2
REMARK    2  A    between atoms: O_2  and  C_3
REMARK    3  A    between atoms: C_6  and  N_7
REMARK    4  A    between atoms: N_7  and  C_8
REMARK    5  A    between atoms: C_8  and  C_9
REMARK    6  A    between atoms: N_17  and  C_18
REMARK    7  A    between atoms: C_18  and  C_19
REMARK    8  A    between atoms: C_19  and  O_20
REMARK    9  A    between atoms: O_20  and  C_21
REMARK   10  A    between atoms: C_24  and  C_25
REMARK                            x       y       z     vdW  Elec       q    Type
REMARK                         _______ _______ _______ _____ _____    ______ ____
ROOT
ATOM      1  C   UNL     1       3.225   6.333  18.071  0.00  0.00    +0.000 A 
ATOM      2  N   UNL     1       2.129   5.622  17.915  0.00  0.00    +0.000 NA
ATOM      3  C   UNL     1       2.503   4.329  18.115  0.00  0.00    +0.000 A 
ATOM      4  C   UNL     1       1.686   3.191  18.075  0.00  0.00    +0.000 A 
ATOM      5  C   UNL     1       2.236   1.962  18.428  0.00  0.00    +0.000 A 
ATOM      6  C   UNL     1       3.576   1.875  18.803  0.00  0.00    +0.000 A 
ATOM      7  C   UNL     1       4.430   2.998  18.780  0.00  0.00    +0.000 A 
ATOM      8  C   UNL     1       3.868   4.227  18.412  0.00  0.00    +0.000 A 
ATOM      9  N   UNL     1       4.338   5.512  18.237  0.00  0.00    +0.000 N 
ENDROOT
BRANCH   1  10
ATOM     10  C   UNL     1       3.258   7.832  18.017  0.00  0.00    +0.000 C 
BRANCH  10  11
ATOM     11  N   UNL     1       1.931   8.464  17.949  0.00  0.00    +0.000 N 
ATOM     12  H   UNL     1       1.969   9.239  17.283  0.00  0.00    +0.000 HD
BRANCH  11  16
ATOM     13  C   UNL     1       0.271   9.726  21.637  0.00  0.00    +0.000 A 
ATOM     14  C   UNL     1      -0.011  10.433  20.475  0.00  0.00    +0.000 A 
ATOM     15  C   UNL     1       0.528  10.034  19.250  0.00  0.00    +0.000 A 
ATOM     16  C   UNL     1       1.394   8.938  19.160  0.00  0.00    +0.000 A 
ATOM     17  C   UNL     1       1.648   8.217  20.335  0.00  0.00    +0.000 A 
ATOM     18  C   UNL     1       1.107   8.614  21.570  0.00  0.00    +0.000 A 
BRANCH  13  20
ATOM     19  C   UNL     1      -0.859  11.542  22.642  0.00  0.00    +0.000 C 
ATOM     20  O   UNL     1      -0.301  10.241  22.765  0.00  0.00    +0.000 OA
ENDBRANCH  13  20
ENDBRANCH  11  16
ENDBRANCH  10  11
ENDBRANCH   1  10
BRANCH   9  21
ATOM     21  C   UNL     1       5.675   6.049  18.090  0.00  0.00    +0.000 C 
BRANCH  21  22
ATOM     22  C   UNL     1       6.171   6.855  16.891  0.00  0.00    +0.000 C 
BRANCH  22  23
ATOM     23  O   UNL     1       7.049   5.936  16.207  0.00  0.00    +0.000 OA
BRANCH  23  24
ATOM     24  C   UNL     1       6.606   5.172  15.172  0.00  0.00    +0.000 A 
ATOM     25  C   UNL     1       7.459   5.139  14.063  0.00  0.00    +0.000 A 
ATOM     26  C   UNL     1       7.155   4.367  12.937  0.00  0.00    +0.000 A 
ATOM     27  C   UNL     1       5.984   3.602  12.907  0.00  0.00    +0.000 A 
ATOM     28  C   UNL     1       5.655   2.737  11.730  0.00  0.00    +0.000 C 
ATOM     29  C   UNL     1       5.137   3.633  14.024  0.00  0.00    +0.000 A 
ATOM     30  C   UNL     1       5.436   4.420  15.152  0.00  0.00    +0.000 A 
ENDBRANCH  23  24
ENDBRANCH  22  23
ENDBRANCH  21  22
ENDBRANCH   9  21
TORSDOF 8
ENDMDL
MODEL 6
REMARK VINA RESULT:      -7.2      2.693      3.840
REMARK  Name = 
REMARK  10 active torsions:
REMARK  status: ('A' for Active; 'I' for Inactive)
REMARK    1  A    between atoms: C_1  and  O_2
REMARK    2  A    between atoms: O_2  and  C_3
REMARK    3  A    between atoms: C_6  and  N_7
REMARK    4  A    between atoms: N_7  and  C_8
REMARK    5  A    between atoms: C_8  and  C_9
REMARK    6  A    between atoms: N_17  and  C_18
REMARK    7  A    between atoms: C_18  and  C_19
REMARK    8  A    between atoms: C_19  and  O_20
REMARK    9  A    between atoms: O_20  and  C_21
REMARK   10  A    between atoms: C_24  and  C_25
REMARK                            x       y       z     vdW  Elec       q    Type
REMARK                         _______ _______ _______ _____ _____    ______ ____
ROOT
ATOM      1  C   UNL     1       5.256   5.713  17.832  0.00  0.00    +0.000 A 
ATOM      2  N   UNL     1       5.598   4.645  18.521  0.00  0.00    +0.000 NA
ATOM      3  C   UNL     1       4.441   4.175  19.062  0.00  0.00    +0.000 A 
ATOM      4  C   UNL     1       4.279   3.040  19.868  0.00  0.00    +0.000 A 
ATOM      5  C   UNL     1       2.990   2.655  20.226  0.00  0.00    +0.000 A 
ATOM      6  C   UNL     1       1.891   3.397  19.793  0.00  0.00    +0.000 A 
ATOM      7  C   UNL     1       2.041   4.581  19.041  0.00  0.00    +0.000 A 
ATOM      8  C   UNL     1       3.344   4.965  18.697  0.00  0.00    +0.000 A 
ATOM      9  N   UNL     1       3.913   6.027  18.025  0.00  0.00    +0.000 N 
ENDROOT
BRANCH   1  10
ATOM     10  C   UNL     1       6.218   6.507  16.998  0.00  0.00    +0.000 C 
BRANCH  10  11
ATOM     11  N   UNL     1       7.218   5.694  16.289  0.00  0.00    +0.000 N 
ATOM     12  H   UNL     1       8.035   6.277  16.088  0.00  0.00    +0.000 HD
BRANCH  11  16
ATOM     13  C   UNL     1       5.919   3.697  12.786  0.00  0.00    +0.000 A 
ATOM     14  C   UNL     1       7.116   4.401  12.775  0.00  0.00    +0.000 A 
ATOM     15  C   UNL     1       7.560   5.068  13.919  0.00  0.00    +0.000 A 
ATOM     16  C   UNL     1       6.801   5.078  15.095  0.00  0.00    +0.000 A 
ATOM     17  C   UNL     1       5.608   4.341  15.101  0.00  0.00    +0.000 A 
ATOM     18  C   UNL     1       5.157   3.668  13.952  0.00  0.00    +0.000 A 
BRANCH  13  20
ATOM     19  C   UNL     1       4.211   3.095  11.268  0.00  0.00    +0.000 C 
ATOM     20  O   UNL     1       5.594   3.115  11.594  0.00  0.00    +0.000 OA
ENDBRANCH  13  20
ENDBRANCH  11  16
ENDBRANCH  10  11
ENDBRANCH   1  10
BRANCH   9  21
ATOM     21  C   UNL     1       3.402   7.328  17.649  0.00  0.00    +0.000 C 
BRANCH  21  22
ATOM     22  C   UNL     1       2.051   7.898  18.076  0.00  0.00    +0.000 C 
BRANCH  22  23
ATOM     23  O   UNL     1       2.178   8.030  19.507  0.00  0.00    +0.000 OA
BRANCH  23  24
ATOM     24  C   UNL     1       1.349   8.839  20.220  0.00  0.00    +0.000 A 
ATOM     25  C   UNL     1       1.126   8.431  21.540  0.00  0.00    +0.000 A 
ATOM     26  C   UNL     1       0.324   9.183  22.406  0.00  0.00    +0.000 A 
ATOM     27  C   UNL     1      -0.265  10.370  21.961  0.00  0.00    +0.000 A 
ATOM     28  C   UNL     1      -1.095  11.214  22.879  0.00  0.00    +0.000 C 
ATOM     29  C   UNL     1      -0.032  10.778  20.640  0.00  0.00    +0.000 A 
ATOM     30  C   UNL     1       0.764  10.015  19.765  0.00  0.00    +0.000 A 
ENDBRANCH  23  24
ENDBRANCH  22  23
ENDBRANCH  21  22
ENDBRANCH   9  21
TORSDOF 8
ENDMDL
MODEL 7
REMARK VINA RESULT:      -7.2      2.615      7.454
REMARK  Name = 
REMARK  10 active torsions:
REMARK  status: ('A' for Active; 'I' for Inactive)
REMARK    1  A    between atoms: C_1  and  O_2
REMARK    2  A    between atoms: O_2  and  C_3
REMARK    3  A    between atoms: C_6  and  N_7
REMARK    4  A    between atoms: N_7  and  C_8
REMARK    5  A    between atoms: C_8  and  C_9
REMARK    6  A    between atoms: N_17  and  C_18
REMARK    7  A    between atoms: C_18  and  C_19
REMARK    8  A    between atoms: C_19  and  O_20
REMARK    9  A    between atoms: O_20  and  C_21
REMARK   10  A    between atoms: C_24  and  C_25
REMARK                            x       y       z     vdW  Elec       q    Type
REMARK                         _______ _______ _______ _____ _____    ______ ____
ROOT
ATOM      1  C   UNL     1       2.948   6.542  17.939  0.00  0.00    +0.000 A 
ATOM      2  N   UNL     1       1.853   5.859  18.197  0.00  0.00    +0.000 NA
ATOM      3  C   UNL     1       2.221   4.550  18.151  0.00  0.00    +0.000 A 
ATOM      4  C   UNL     1       1.410   3.430  18.377  0.00  0.00    +0.000 A 
ATOM      5  C   UNL     1       2.003   2.171  18.403  0.00  0.00    +0.000 A 
ATOM      6  C   UNL     1       3.376   2.039  18.198  0.00  0.00    +0.000 A 
ATOM      7  C   UNL     1       4.195   3.147  17.899  0.00  0.00    +0.000 A 
ATOM      8  C   UNL     1       3.585   4.408  17.864  0.00  0.00    +0.000 A 
ATOM      9  N   UNL     1       3.998   5.695  17.591  0.00  0.00    +0.000 N 
ENDROOT
BRANCH   1  10
ATOM     10  C   UNL     1       3.019   8.040  17.966  0.00  0.00    +0.000 C 
BRANCH  10  11
ATOM     11  N   UNL     1       1.717   8.710  17.823  0.00  0.00    +0.000 N 
ATOM     12  H   UNL     1       1.760   9.348  17.024  0.00  0.00    +0.000 HD
BRANCH  11  16
ATOM     13  C   UNL     1       0.404  10.988  21.145  0.00  0.00    +0.000 A 
ATOM     14  C   UNL     1       0.708   9.642  21.308  0.00  0.00    +0.000 A 
ATOM     15  C   UNL     1       1.140   8.874  20.224  0.00  0.00    +0.000 A 
ATOM     16  C   UNL     1       1.246   9.422  18.941  0.00  0.00    +0.000 A 
ATOM     17  C   UNL     1       0.962  10.788  18.796  0.00  0.00    +0.000 A 
ATOM     18  C   UNL     1       0.528  11.566  19.884  0.00  0.00    +0.000 A 
BRANCH  13  20
ATOM     19  C   UNL     1      -0.441  12.964  22.129  0.00  0.00    +0.000 C 
ATOM     20  O   UNL     1      -0.030  11.612  22.280  0.00  0.00    +0.000 OA
ENDBRANCH  13  20
ENDBRANCH  11  16
ENDBRANCH  10  11
ENDBRANCH   1  10
BRANCH   9  21
ATOM     21  C   UNL     1       5.184   6.222  16.949  0.00  0.00    +0.000 C 
BRANCH  21  22
ATOM     22  C   UNL     1       6.614   5.776  17.244  0.00  0.00    +0.000 C 
BRANCH  22  23
ATOM     23  O   UNL     1       7.260   5.842  15.955  0.00  0.00    +0.000 OA
BRANCH  23  24
ATOM     24  C   UNL     1       6.863   5.048  14.924  0.00  0.00    +0.000 A 
ATOM     25  C   UNL     1       7.517   5.294  13.711  0.00  0.00    +0.000 A 
ATOM     26  C   UNL     1       7.241   4.532  12.571  0.00  0.00    +0.000 A 
ATOM     27  C   UNL     1       6.303   3.497  12.630  0.00  0.00    +0.000 A 
ATOM     28  C   UNL     1       6.018   2.641  11.434  0.00  0.00    +0.000 C 
ATOM     29  C   UNL     1       5.656   3.250  13.849  0.00  0.00    +0.000 A 
ATOM     30  C   UNL     1       5.924   4.025  14.994  0.00  0.00    +0.000 A 
ENDBRANCH  23  24
ENDBRANCH  22  23
ENDBRANCH  21  22
ENDBRANCH   9  21
TORSDOF 8
ENDMDL
MODEL 8
REMARK VINA RESULT:      -7.2      3.866      7.726
REMARK  Name = 
REMARK  10 active torsions:
REMARK  status: ('A' for Active; 'I' for Inactive)
REMARK    1  A    between atoms: C_1  and  O_2
REMARK    2  A    between atoms: O_2  and  C_3
REMARK    3  A    between atoms: C_6  and  N_7
REMARK    4  A    between atoms: N_7  and  C_8
REMARK    5  A    between atoms: C_8  and  C_9
REMARK    6  A    between atoms: N_17  and  C_18
REMARK    7  A    between atoms: C_18  and  C_19
REMARK    8  A    between atoms: C_19  and  O_20
REMARK    9  A    between atoms: O_20  and  C_21
REMARK   10  A    between atoms: C_24  and  C_25
REMARK                            x       y       z     vdW  Elec       q    Type
REMARK                         _______ _______ _______ _____ _____    ______ ____
ROOT
ATOM      1  C   UNL     1       1.520   8.918  19.214  0.00  0.00    +0.000 A 
ATOM      2  N   UNL     1       2.106   8.249  18.245  0.00  0.00    +0.000 NA
ATOM      3  C   UNL     1       2.392   7.025  18.769  0.00  0.00    +0.000 A 
ATOM      4  C   UNL     1       3.004   5.945  18.120  0.00  0.00    +0.000 A 
ATOM      5  C   UNL     1       3.100   4.730  18.794  0.00  0.00    +0.000 A 
ATOM      6  C   UNL     1       2.602   4.606  20.090  0.00  0.00    +0.000 A 
ATOM      7  C   UNL     1       2.047   5.703  20.783  0.00  0.00    +0.000 A 
ATOM      8  C   UNL     1       1.967   6.923  20.099  0.00  0.00    +0.000 A 
ATOM      9  N   UNL     1       1.539   8.198  20.406  0.00  0.00    +0.000 N 
ENDROOT
BRANCH   1  10
ATOM     10  C   UNL     1       0.961  10.300  19.049  0.00  0.00    +0.000 C 
BRANCH  10  11
ATOM     11  N   UNL     1       0.208  10.504  17.802  0.00  0.00    +0.000 N 
ATOM     12  H   UNL     1       0.584  11.323  17.318  0.00  0.00    +0.000 HD
BRANCH  11  16
ATOM     13  C   UNL     1      -4.000  10.967  17.989  0.00  0.00    +0.000 A 
ATOM     14  C   UNL     1      -3.186  11.687  18.856  0.00  0.00    +0.000 A 
ATOM     15  C   UNL     1      -1.798  11.546  18.811  0.00  0.00    +0.000 A 
ATOM     16  C   UNL     1      -1.186  10.655  17.922  0.00  0.00    +0.000 A 
ATOM     17  C   UNL     1      -2.016   9.955  17.035  0.00  0.00    +0.000 A 
ATOM     18  C   UNL     1      -3.415  10.093  17.076  0.00  0.00    +0.000 A 
BRANCH  13  20
ATOM     19  C   UNL     1      -5.691  12.278  18.992  0.00  0.00    +0.000 C 
ATOM     20  O   UNL     1      -5.338  11.182  18.159  0.00  0.00    +0.000 OA
ENDBRANCH  13  20
ENDBRANCH  11  16
ENDBRANCH  10  11
ENDBRANCH   1  10
BRANCH   9  21
ATOM     21  C   UNL     1       1.262   8.855  21.666  0.00  0.00    +0.000 C 
BRANCH  21  22
ATOM     22  C   UNL     1      -0.129   9.066  22.259  0.00  0.00    +0.000 C 
BRANCH  22  23
ATOM     23  O   UNL     1       0.003  10.298  22.999  0.00  0.00    +0.000 OA
BRANCH  23  24
ATOM     24  C   UNL     1      -0.708  11.407  22.659  0.00  0.00    +0.000 A 
ATOM     25  C   UNL     1      -2.020  11.431  23.147  0.00  0.00    +0.000 A 
ATOM     26  C   UNL     1      -2.862  12.524  22.909  0.00  0.00    +0.000 A 
ATOM     27  C   UNL     1      -2.395  13.622  22.181  0.00  0.00    +0.000 A 
ATOM     28  C   UNL     1      -3.262  14.821  21.947  0.00  0.00    +0.000 C 
ATOM     29  C   UNL     1      -1.077  13.596  21.701  0.00  0.00    +0.000 A 
ATOM     30  C   UNL     1      -0.235  12.491  21.929  0.00  0.00    +0.000 A 
ENDBRANCH  23  24
ENDBRANCH  22  23
ENDBRANCH  21  22
ENDBRANCH   9  21
TORSDOF 8
ENDMDL
MODEL 9
REMARK VINA RESULT:      -7.2      4.684      7.944
REMARK  Name = 
REMARK  10 active torsions:
REMARK  status: ('A' for Active; 'I' for Inactive)
REMARK    1  A    between atoms: C_1  and  O_2
REMARK    2  A    between atoms: O_2  and  C_3
REMARK    3  A    between atoms: C_6  and  N_7
REMARK    4  A    between atoms: N_7  and  C_8
REMARK    5  A    between atoms: C_8  and  C_9
REMARK    6  A    between atoms: N_17  and  C_18
REMARK    7  A    between atoms: C_18  and  C_19
REMARK    8  A    between atoms: C_19  and  O_20
REMARK    9  A    between atoms: O_20  and  C_21
REMARK   10  A    between atoms: C_24  and  C_25
REMARK                            x       y       z     vdW  Elec       q    Type
REMARK                         _______ _______ _______ _____ _____    ______ ____
ROOT
ATOM      1  C   UNL     1       1.394  11.386  19.387  0.00  0.00    +0.000 A 
ATOM      2  N   UNL     1       0.832  12.075  20.357  0.00  0.00    +0.000 NA
ATOM      3  C   UNL     1       0.251  11.151  21.170  0.00  0.00    +0.000 A 
ATOM      4  C   UNL     1      -0.457  11.387  22.356  0.00  0.00    +0.000 A 
ATOM      5  C   UNL     1      -0.873  10.296  23.113  0.00  0.00    +0.000 A 
ATOM      6  C   UNL     1      -0.592   8.999  22.686  0.00  0.00    +0.000 A 
ATOM      7  C   UNL     1       0.057   8.742  21.461  0.00  0.00    +0.000 A 
ATOM      8  C   UNL     1       0.460   9.848  20.702  0.00  0.00    +0.000 A 
ATOM      9  N   UNL     1       1.073  10.033  19.480  0.00  0.00    +0.000 N 
ENDROOT
BRANCH   1  10
ATOM     10  C   UNL     1       2.220  12.005  18.299  0.00  0.00    +0.000 C 
BRANCH  10  11
ATOM     11  N   UNL     1       1.751  13.328  17.861  0.00  0.00    +0.000 N 
ATOM     12  H   UNL     1       1.692  13.337  16.840  0.00  0.00    +0.000 HD
BRANCH  11  16
ATOM     13  C   UNL     1       4.149  16.559  19.189  0.00  0.00    +0.000 A 
ATOM     14  C   UNL     1       2.766  16.637  19.294  0.00  0.00    +0.000 A 
ATOM     15  C   UNL     1       1.959  15.584  18.860  0.00  0.00    +0.000 A 
ATOM     16  C   UNL     1       2.510  14.438  18.276  0.00  0.00    +0.000 A 
ATOM     17  C   UNL     1       3.909  14.360  18.201  0.00  0.00    +0.000 A 
ATOM     18  C   UNL     1       4.726  15.418  18.638  0.00  0.00    +0.000 A 
BRANCH  13  20
ATOM     19  C   UNL     1       4.468  18.128  20.927  0.00  0.00    +0.000 C 
ATOM     20  O   UNL     1       4.814  17.669  19.628  0.00  0.00    +0.000 OA
ENDBRANCH  13  20
ENDBRANCH  11  16
ENDBRANCH  10  11
ENDBRANCH   1  10
BRANCH   9  21
ATOM     21  C   UNL     1       1.291   9.148  18.355  0.00  0.00    +0.000 C 
BRANCH  21  22
ATOM     22  C   UNL     1       2.597   8.415  18.055  0.00  0.00    +0.000 C 
BRANCH  22  23
ATOM     23  O   UNL     1       2.733   7.501  19.164  0.00  0.00    +0.000 OA
BRANCH  23  24
ATOM     24  C   UNL     1       2.310   6.212  19.074  0.00  0.00    +0.000 A 
ATOM     25  C   UNL     1       1.838   5.666  20.274  0.00  0.00    +0.000 A 
ATOM     26  C   UNL     1       1.336   4.361  20.328  0.00  0.00    +0.000 A 
ATOM     27  C   UNL     1       1.290   3.579  19.170  0.00  0.00    +0.000 A 
ATOM     28  C   UNL     1       0.720   2.194  19.194  0.00  0.00    +0.000 C 
ATOM     29  C   UNL     1       1.756   4.133  17.970  0.00  0.00    +0.000 A 
ATOM     30  C   UNL     1       2.274   5.441  17.917  0.00  0.00    +0.000 A 
ENDBRANCH  23  24
ENDBRANCH  22  23
ENDBRANCH  21  22
ENDBRANCH   9  21
TORSDOF 8
ENDMDL
