MODEL 1
REMARK VINA RESULT:      -8.7      0.000      0.000
REMARK  Name = 
REMARK  6 active torsions:
REMARK  status: ('A' for Active; 'I' for Inactive)
REMARK    1  A    between atoms: C_4  and  C_5
REMARK    2  A    between atoms: C_5  and  N_6
REMARK    3  A    between atoms: N_6  and  C_7
REMARK    4  A    between atoms: C_17  and  C_18
REMARK    5  A    between atoms: C_18  and  C_19
REMARK    6  A    between atoms: C_18  and  C_25
REMARK                            x       y       z     vdW  Elec       q    Type
REMARK                         _______ _______ _______ _____ _____    ______ ____
ROOT
ATOM      1  C   UNL     1       4.272   3.437  17.979  0.00  0.00    +0.000 C 
ATOM      2  C   UNL     1       3.802   3.431  19.643  0.00  0.00    +0.000 C 
ATOM      3  C   UNL     1       2.141   4.034  20.072  0.00  0.00    +0.000 C 
ATOM      4  C   UNL     1       1.390   3.396  21.286  0.00  0.00    +0.000 C 
ATOM      5  C   UNL     1       1.849   2.020  21.722  0.00  0.00    +0.000 C 
ATOM      6  C   UNL     1       3.295   1.812  21.359  0.00  0.00    +0.000 C 
ATOM      7  C   UNL     1       3.560   1.979  19.850  0.00  0.00    +0.000 C 
ATOM      8  C   UNL     1       2.451   1.839  18.714  0.00  0.00    +0.000 C 
ATOM      9  N   UNL     1       2.038   3.278  17.920  0.00  0.00    +0.000 NA
ATOM     10  C   UNL     1       1.183   3.895  18.883  0.00  0.00    +0.000 C 
ATOM     11  C   UNL     1       3.223   4.390  17.601  0.00  0.00    +0.000 C 
ENDROOT
BRANCH   1  12
ATOM     12  N   UNL     1       5.385   3.606  17.028  0.00  0.00    +0.000 NA
ATOM     13  H   UNL     1       5.609   4.608  17.006  0.00  0.00    +0.000 HD
BRANCH  12  14
ATOM     14  C   UNL     1       5.099   3.253  15.639  0.00  0.00    +0.000 C 
BRANCH  14  18
ATOM     15  C   UNL     1       7.692   5.029  12.622  0.00  0.00    +0.000 A 
ATOM     16  C   UNL     1       7.834   5.414  13.958  0.00  0.00    +0.000 A 
ATOM     17  C   UNL     1       7.000   4.885  14.940  0.00  0.00    +0.000 A 
ATOM     18  C   UNL     1       6.013   3.938  14.622  0.00  0.00    +0.000 A 
ATOM     19  C   UNL     1       5.892   3.553  13.276  0.00  0.00    +0.000 A 
ATOM     20  C   UNL     1       6.722   4.076  12.291  0.00  0.00    +0.000 A 
ENDBRANCH  14  18
ENDBRANCH  12  14
ENDBRANCH   1  12
BRANCH  11  21
ATOM     21  C   UNL     1       3.894   5.877  18.366  0.00  0.00    +0.000 C 
BRANCH  21  22
ATOM     22  C   UNL     1       5.378   6.387  17.982  0.00  0.00    +0.000 A 
ATOM     23  C   UNL     1       6.540   5.916  18.622  0.00  0.00    +0.000 A 
ATOM     24  C   UNL     1       7.755   6.629  18.594  0.00  0.00    +0.000 A 
ATOM     25  C   UNL     1       7.886   7.737  17.773  0.00  0.00    +0.000 A 
ATOM     26  C   UNL     1       6.830   8.078  16.941  0.00  0.00    +0.000 A 
ATOM     27  C   UNL     1       5.586   7.407  17.035  0.00  0.00    +0.000 A 
ENDBRANCH  21  22
BRANCH  21  28
ATOM     28  C   UNL     1       3.007   7.120  18.449  0.00  0.00    +0.000 A 
ATOM     29  C   UNL     1       2.359   7.403  19.678  0.00  0.00    +0.000 A 
ATOM     30  C   UNL     1       1.592   8.554  19.846  0.00  0.00    +0.000 A 
ATOM     31  C   UNL     1       1.477   9.456  18.796  0.00  0.00    +0.000 A 
ATOM     32  C   UNL     1       2.159   9.220  17.600  0.00  0.00    +0.000 A 
ATOM     33  C   UNL     1       2.929   8.066  17.428  0.00  0.00    +0.000 A 
ENDBRANCH  21  28
ENDBRANCH  11  21
TORSDOF 6
ENDMDL
MODEL 2
REMARK VINA RESULT:      -8.2      2.305      7.156
REMARK  Name = 
REMARK  6 active torsions:
REMARK  status: ('A' for Active; 'I' for Inactive)
REMARK    1  A    between atoms: C_4  and  C_5
REMARK    2  A    between atoms: C_5  and  N_6
REMARK    3  A    between atoms: N_6  and  C_7
REMARK    4  A    between atoms: C_17  and  C_18
REMARK    5  A    between atoms: C_18  and  C_19
REMARK    6  A    between atoms: C_18  and  C_25
REMARK                            x       y       z     vdW  Elec       q    Type
REMARK                         _______ _______ _______ _____ _____    ______ ____
ROOT
ATOM      1  C   UNL     1       3.474   7.704  18.028  0.00  0.00    +0.000 C 
ATOM      2  C   UNL     1       4.778   6.736  18.621  0.00  0.00    +0.000 C 
ATOM      3  C   UNL     1       4.624   4.927  18.520  0.00  0.00    +0.000 C 
ATOM      4  C   UNL     1       5.910   4.065  18.293  0.00  0.00    +0.000 C 
ATOM      5  C   UNL     1       7.106   4.774  17.693  0.00  0.00    +0.000 C 
ATOM      6  C   UNL     1       7.063   6.242  18.023  0.00  0.00    +0.000 C 
ATOM      7  C   UNL     1       5.772   6.925  17.532  0.00  0.00    +0.000 C 
ATOM      8  C   UNL     1       4.839   6.368  16.367  0.00  0.00    +0.000 C 
ATOM      9  N   UNL     1       3.321   5.799  16.859  0.00  0.00    +0.000 NA
ATOM     10  C   UNL     1       3.661   4.521  17.397  0.00  0.00    +0.000 C 
ATOM     11  C   UNL     1       2.519   6.592  18.073  0.00  0.00    +0.000 C 
ENDROOT
BRANCH   1  12
ATOM     12  N   UNL     1       2.707   8.952  18.200  0.00  0.00    +0.000 NA
ATOM     13  H   UNL     1       2.468   9.020  19.196  0.00  0.00    +0.000 HD
BRANCH  12  14
ATOM     14  C   UNL     1       1.427   9.016  17.498  0.00  0.00    +0.000 C 
BRANCH  14  18
ATOM     15  C   UNL     1      -1.347  11.695  19.524  0.00  0.00    +0.000 A 
ATOM     16  C   UNL     1      -1.842  10.772  18.599  0.00  0.00    +0.000 A 
ATOM     17  C   UNL     1      -0.976   9.922  17.914  0.00  0.00    +0.000 A 
ATOM     18  C   UNL     1       0.408   9.953  18.149  0.00  0.00    +0.000 A 
ATOM     19  C   UNL     1       0.888  10.879  19.091  0.00  0.00    +0.000 A 
ATOM     20  C   UNL     1       0.029  11.729  19.780  0.00  0.00    +0.000 A 
ENDBRANCH  14  18
ENDBRANCH  12  14
ENDBRANCH   1  12
BRANCH  11  21
ATOM     21  C   UNL     1       2.327   6.447  19.859  0.00  0.00    +0.000 C 
BRANCH  21  22
ATOM     22  C   UNL     1       1.487   7.558  20.676  0.00  0.00    +0.000 A 
ATOM     23  C   UNL     1       2.097   8.550  21.468  0.00  0.00    +0.000 A 
ATOM     24  C   UNL     1       1.400   9.235  22.483  0.00  0.00    +0.000 A 
ATOM     25  C   UNL     1       0.029   9.076  22.607  0.00  0.00    +0.000 A 
ATOM     26  C   UNL     1      -0.637   8.290  21.677  0.00  0.00    +0.000 A 
ATOM     27  C   UNL     1       0.081   7.541  20.713  0.00  0.00    +0.000 A 
ENDBRANCH  21  22
BRANCH  21  28
ATOM     28  C   UNL     1       1.947   5.086  20.444  0.00  0.00    +0.000 A 
ATOM     29  C   UNL     1       1.034   4.275  19.724  0.00  0.00    +0.000 A 
ATOM     30  C   UNL     1       0.696   2.997  20.162  0.00  0.00    +0.000 A 
ATOM     31  C   UNL     1       1.285   2.494  21.314  0.00  0.00    +0.000 A 
ATOM     32  C   UNL     1       2.232   3.257  22.001  0.00  0.00    +0.000 A 
ATOM     33  C   UNL     1       2.572   4.541  21.564  0.00  0.00    +0.000 A 
ENDBRANCH  21  28
ENDBRANCH  11  21
TORSDOF 6
ENDMDL
MODEL 3
REMARK VINA RESULT:      -8.1      0.710      1.392
REMARK  Name = 
REMARK  6 active torsions:
REMARK  status: ('A' for Active; 'I' for Inactive)
REMARK    1  A    between atoms: C_4  and  C_5
REMARK    2  A    between atoms: C_5  and  N_6
REMARK    3  A    between atoms: N_6  and  C_7
REMARK    4  A    between atoms: C_17  and  C_18
REMARK    5  A    between atoms: C_18  and  C_19
REMARK    6  A    between atoms: C_18  and  C_25
REMARK                            x       y       z     vdW  Elec       q    Type
REMARK                         _______ _______ _______ _____ _____    ______ ____
ROOT
ATOM      1  C   UNL     1       3.712   3.911  17.631  0.00  0.00    +0.000 C 
ATOM      2  C   UNL     1       3.833   3.586  19.325  0.00  0.00    +0.000 C 
ATOM      3  C   UNL     1       2.372   3.883  20.367  0.00  0.00    +0.000 C 
ATOM      4  C   UNL     1       2.127   2.969  21.612  0.00  0.00    +0.000 C 
ATOM      5  C   UNL     1       2.813   1.619  21.609  0.00  0.00    +0.000 C 
ATOM      6  C   UNL     1       4.064   1.670  20.773  0.00  0.00    +0.000 C 
ATOM      7  C   UNL     1       3.790   2.100  19.319  0.00  0.00    +0.000 C 
ATOM      8  C   UNL     1       2.378   1.984  18.590  0.00  0.00    +0.000 C 
ATOM      9  N   UNL     1       1.609   3.457  18.256  0.00  0.00    +0.000 NA
ATOM     10  C   UNL     1       1.083   3.797  19.540  0.00  0.00    +0.000 C 
ATOM     11  C   UNL     1       2.526   4.758  17.794  0.00  0.00    +0.000 C 
ENDROOT
BRANCH   1  12
ATOM     12  N   UNL     1       4.423   4.375  16.426  0.00  0.00    +0.000 NA
ATOM     13  H   UNL     1       3.798   4.208  15.629  0.00  0.00    +0.000 HD
BRANCH  12  14
ATOM     14  C   UNL     1       5.655   3.661  16.096  0.00  0.00    +0.000 C 
BRANCH  14  18
ATOM     15  C   UNL     1       7.064   4.445  12.049  0.00  0.00    +0.000 A 
ATOM     16  C   UNL     1       5.981   3.582  12.240  0.00  0.00    +0.000 A 
ATOM     17  C   UNL     1       5.527   3.290  13.524  0.00  0.00    +0.000 A 
ATOM     18  C   UNL     1       6.126   3.868  14.656  0.00  0.00    +0.000 A 
ATOM     19  C   UNL     1       7.206   4.742  14.445  0.00  0.00    +0.000 A 
ATOM     20  C   UNL     1       7.664   5.039  13.165  0.00  0.00    +0.000 A 
ENDBRANCH  14  18
ENDBRANCH  12  14
ENDBRANCH   1  12
BRANCH  11  21
ATOM     21  C   UNL     1       3.296   6.188  18.574  0.00  0.00    +0.000 C 
BRANCH  21  22
ATOM     22  C   UNL     1       4.818   6.587  18.211  0.00  0.00    +0.000 A 
ATOM     23  C   UNL     1       5.163   7.344  17.074  0.00  0.00    +0.000 A 
ATOM     24  C   UNL     1       6.464   7.341  16.536  0.00  0.00    +0.000 A 
ATOM     25  C   UNL     1       7.496   6.728  17.229  0.00  0.00    +0.000 A 
ATOM     26  C   UNL     1       7.231   6.186  18.478  0.00  0.00    +0.000 A 
ATOM     27  C   UNL     1       5.905   6.120  18.973  0.00  0.00    +0.000 A 
ENDBRANCH  21  22
BRANCH  21  28
ATOM     28  C   UNL     1       2.503   7.493  18.650  0.00  0.00    +0.000 A 
ATOM     29  C   UNL     1       1.877   7.829  19.876  0.00  0.00    +0.000 A 
ATOM     30  C   UNL     1       1.196   9.034  20.038  0.00  0.00    +0.000 A 
ATOM     31  C   UNL     1       1.150   9.937  18.985  0.00  0.00    +0.000 A 
ATOM     32  C   UNL     1       1.814   9.647  17.791  0.00  0.00    +0.000 A 
ATOM     33  C   UNL     1       2.496   8.438  17.625  0.00  0.00    +0.000 A 
ENDBRANCH  21  28
ENDBRANCH  11  21
TORSDOF 6
ENDMDL
MODEL 4
REMARK VINA RESULT:      -8.0      0.579      1.339
REMARK  Name = 
REMARK  6 active torsions:
REMARK  status: ('A' for Active; 'I' for Inactive)
REMARK    1  A    between atoms: C_4  and  C_5
REMARK    2  A    between atoms: C_5  and  N_6
REMARK    3  A    between atoms: N_6  and  C_7
REMARK    4  A    between atoms: C_17  and  C_18
REMARK    5  A    between atoms: C_18  and  C_19
REMARK    6  A    between atoms: C_18  and  C_25
REMARK                            x       y       z     vdW  Elec       q    Type
REMARK                         _______ _______ _______ _____ _____    ______ ____
ROOT
ATOM      1  C   UNL     1       3.639   3.794  17.612  0.00  0.00    +0.000 C 
ATOM      2  C   UNL     1       3.820   3.482  19.303  0.00  0.00    +0.000 C 
ATOM      3  C   UNL     1       2.443   3.907  20.412  0.00  0.00    +0.000 C 
ATOM      4  C   UNL     1       2.190   3.031  21.683  0.00  0.00    +0.000 C 
ATOM      5  C   UNL     1       2.767   1.631  21.668  0.00  0.00    +0.000 C 
ATOM      6  C   UNL     1       3.973   1.572  20.769  0.00  0.00    +0.000 C 
ATOM      7  C   UNL     1       3.660   2.004  19.324  0.00  0.00    +0.000 C 
ATOM      8  C   UNL     1       2.208   1.992  18.669  0.00  0.00    +0.000 C 
ATOM      9  N   UNL     1       1.541   3.517  18.350  0.00  0.00    +0.000 NA
ATOM     10  C   UNL     1       1.110   3.914  19.652  0.00  0.00    +0.000 C 
ATOM     11  C   UNL     1       2.533   4.735  17.821  0.00  0.00    +0.000 C 
ENDROOT
BRANCH   1  12
ATOM     12  N   UNL     1       4.321   4.186  16.365  0.00  0.00    +0.000 NA
ATOM     13  H   UNL     1       3.648   4.048  15.602  0.00  0.00    +0.000 HD
BRANCH  12  14
ATOM     14  C   UNL     1       5.484   3.381  15.994  0.00  0.00    +0.000 C 
BRANCH  14  18
ATOM     15  C   UNL     1       7.459   4.877  12.411  0.00  0.00    +0.000 A 
ATOM     16  C   UNL     1       6.513   3.854  12.293  0.00  0.00    +0.000 A 
ATOM     17  C   UNL     1       5.887   3.336  13.424  0.00  0.00    +0.000 A 
ATOM     18  C   UNL     1       6.168   3.839  14.705  0.00  0.00    +0.000 A 
ATOM     19  C   UNL     1       7.113   4.875  14.804  0.00  0.00    +0.000 A 
ATOM     20  C   UNL     1       7.740   5.398  13.679  0.00  0.00    +0.000 A 
ENDBRANCH  14  18
ENDBRANCH  12  14
ENDBRANCH   1  12
BRANCH  11  21
ATOM     21  C   UNL     1       3.452   6.109  18.537  0.00  0.00    +0.000 C 
BRANCH  21  22
ATOM     22  C   UNL     1       4.945   6.442  18.020  0.00  0.00    +0.000 A 
ATOM     23  C   UNL     1       6.101   5.894  18.610  0.00  0.00    +0.000 A 
ATOM     24  C   UNL     1       7.373   6.477  18.453  0.00  0.00    +0.000 A 
ATOM     25  C   UNL     1       7.550   7.515  17.551  0.00  0.00    +0.000 A 
ATOM     26  C   UNL     1       6.473   7.911  16.772  0.00  0.00    +0.000 A 
ATOM     27  C   UNL     1       5.180   7.376  16.995  0.00  0.00    +0.000 A 
ENDBRANCH  21  22
BRANCH  21  28
ATOM     28  C   UNL     1       2.738   7.449  18.719  0.00  0.00    +0.000 A 
ATOM     29  C   UNL     1       2.632   8.312  17.600  0.00  0.00    +0.000 A 
ATOM     30  C   UNL     1       1.936   9.517  17.675  0.00  0.00    +0.000 A 
ATOM     31  C   UNL     1       1.311   9.869  18.864  0.00  0.00    +0.000 A 
ATOM     32  C   UNL     1       1.355   9.001  19.957  0.00  0.00    +0.000 A 
ATOM     33  C   UNL     1       2.055   7.792  19.884  0.00  0.00    +0.000 A 
ENDBRANCH  21  28
ENDBRANCH  11  21
TORSDOF 6
ENDMDL
MODEL 5
REMARK VINA RESULT:      -8.0      0.723      1.423
REMARK  Name = 
REMARK  6 active torsions:
REMARK  status: ('A' for Active; 'I' for Inactive)
REMARK    1  A    between atoms: C_4  and  C_5
REMARK    2  A    between atoms: C_5  and  N_6
REMARK    3  A    between atoms: N_6  and  C_7
REMARK    4  A    between atoms: C_17  and  C_18
REMARK    5  A    between atoms: C_18  and  C_19
REMARK    6  A    between atoms: C_18  and  C_25
REMARK                            x       y       z     vdW  Elec       q    Type
REMARK                         _______ _______ _______ _____ _____    ______ ____
ROOT
ATOM      1  C   UNL     1       3.674   3.946  17.672  0.00  0.00    +0.000 C 
ATOM      2  C   UNL     1       3.804   3.584  19.357  0.00  0.00    +0.000 C 
ATOM      3  C   UNL     1       2.366   3.907  20.423  0.00  0.00    +0.000 C 
ATOM      4  C   UNL     1       2.105   2.977  21.653  0.00  0.00    +0.000 C 
ATOM      5  C   UNL     1       2.747   1.606  21.616  0.00  0.00    +0.000 C 
ATOM      6  C   UNL     1       3.989   1.633  20.766  0.00  0.00    +0.000 C 
ATOM      7  C   UNL     1       3.713   2.100  19.324  0.00  0.00    +0.000 C 
ATOM      8  C   UNL     1       2.289   2.045  18.610  0.00  0.00    +0.000 C 
ATOM      9  N   UNL     1       1.565   3.548  18.314  0.00  0.00    +0.000 NA
ATOM     10  C   UNL     1       1.065   3.879  19.610  0.00  0.00    +0.000 C 
ATOM     11  C   UNL     1       2.517   4.827  17.866  0.00  0.00    +0.000 C 
ENDROOT
BRANCH   1  12
ATOM     12  N   UNL     1       4.385   4.410  16.467  0.00  0.00    +0.000 NA
ATOM     13  H   UNL     1       3.741   4.290  15.676  0.00  0.00    +0.000 HD
BRANCH  12  14
ATOM     14  C   UNL     1       5.580   3.654  16.100  0.00  0.00    +0.000 C 
BRANCH  14  18
ATOM     15  C   UNL     1       7.003   4.340  12.039  0.00  0.00    +0.000 A 
ATOM     16  C   UNL     1       7.642   4.980  13.104  0.00  0.00    +0.000 A 
ATOM     17  C   UNL     1       7.192   4.803  14.410  0.00  0.00    +0.000 A 
ATOM     18  C   UNL     1       6.103   3.963  14.696  0.00  0.00    +0.000 A 
ATOM     19  C   UNL     1       5.479   3.317  13.614  0.00  0.00    +0.000 A 
ATOM     20  C   UNL     1       5.925   3.488  12.308  0.00  0.00    +0.000 A 
ENDBRANCH  14  18
ENDBRANCH  12  14
ENDBRANCH   1  12
BRANCH  11  21
ATOM     21  C   UNL     1       3.343   6.216  18.663  0.00  0.00    +0.000 C 
BRANCH  21  22
ATOM     22  C   UNL     1       4.859   6.598  18.259  0.00  0.00    +0.000 A 
ATOM     23  C   UNL     1       5.182   7.337  17.104  0.00  0.00    +0.000 A 
ATOM     24  C   UNL     1       6.470   7.317  16.536  0.00  0.00    +0.000 A 
ATOM     25  C   UNL     1       7.514   6.705  17.213  0.00  0.00    +0.000 A 
ATOM     26  C   UNL     1       7.274   6.183  18.475  0.00  0.00    +0.000 A 
ATOM     27  C   UNL     1       5.959   6.134  19.002  0.00  0.00    +0.000 A 
ENDBRANCH  21  22
BRANCH  21  28
ATOM     28  C   UNL     1       2.578   7.532  18.810  0.00  0.00    +0.000 A 
ATOM     29  C   UNL     1       2.432   8.356  17.665  0.00  0.00    +0.000 A 
ATOM     30  C   UNL     1       1.690   9.535  17.708  0.00  0.00    +0.000 A 
ATOM     31  C   UNL     1       1.059   9.900  18.890  0.00  0.00    +0.000 A 
ATOM     32  C   UNL     1       1.144   9.067  20.009  0.00  0.00    +0.000 A 
ATOM     33  C   UNL     1       1.889   7.885  19.968  0.00  0.00    +0.000 A 
ENDBRANCH  21  28
ENDBRANCH  11  21
TORSDOF 6
ENDMDL
MODEL 6
REMARK VINA RESULT:      -8.0      1.979      6.219
REMARK  Name = 
REMARK  6 active torsions:
REMARK  status: ('A' for Active; 'I' for Inactive)
REMARK    1  A    between atoms: C_4  and  C_5
REMARK    2  A    between atoms: C_5  and  N_6
REMARK    3  A    between atoms: N_6  and  C_7
REMARK    4  A    between atoms: C_17  and  C_18
REMARK    5  A    between atoms: C_18  and  C_19
REMARK    6  A    between atoms: C_18  and  C_25
REMARK                            x       y       z     vdW  Elec       q    Type
REMARK                         _______ _______ _______ _____ _____    ______ ____
ROOT
ATOM      1  C   UNL     1       5.273   3.886  18.706  0.00  0.00    +0.000 C 
ATOM      2  C   UNL     1       4.928   4.235  17.048  0.00  0.00    +0.000 C 
ATOM      3  C   UNL     1       5.057   5.959  16.484  0.00  0.00    +0.000 C 
ATOM      4  C   UNL     1       5.513   6.247  15.016  0.00  0.00    +0.000 C 
ATOM      5  C   UNL     1       6.277   5.145  14.314  0.00  0.00    +0.000 C 
ATOM      6  C   UNL     1       5.901   3.803  14.883  0.00  0.00    +0.000 C 
ATOM      7  C   UNL     1       6.157   3.708  16.400  0.00  0.00    +0.000 C 
ATOM      8  C   UNL     1       7.172   4.632  17.208  0.00  0.00    +0.000 C 
ATOM      9  N   UNL     1       6.458   5.738  18.274  0.00  0.00    +0.000 NA
ATOM     10  C   UNL     1       6.020   6.755  17.373  0.00  0.00    +0.000 C 
ATOM     11  C   UNL     1       5.107   5.284  19.120  0.00  0.00    +0.000 C 
ENDROOT
BRANCH   1  12
ATOM     12  N   UNL     1       4.943   3.041  19.868  0.00  0.00    +0.000 NA
ATOM     13  H   UNL     1       5.793   2.974  20.439  0.00  0.00    +0.000 HD
BRANCH  12  14
ATOM     14  C   UNL     1       4.580   1.657  19.568  0.00  0.00    +0.000 C 
BRANCH  14  18
ATOM     15  C   UNL     1       6.734  -1.123  22.140  0.00  0.00    +0.000 A 
ATOM     16  C   UNL     1       6.361  -1.529  20.855  0.00  0.00    +0.000 A 
ATOM     17  C   UNL     1       5.646  -0.673  20.021  0.00  0.00    +0.000 A 
ATOM     18  C   UNL     1       5.302   0.624  20.435  0.00  0.00    +0.000 A 
ATOM     19  C   UNL     1       5.695   1.021  21.725  0.00  0.00    +0.000 A 
ATOM     20  C   UNL     1       6.410   0.171  22.563  0.00  0.00    +0.000 A 
ENDBRANCH  14  18
ENDBRANCH  12  14
ENDBRANCH   1  12
BRANCH  11  21
ATOM     21  C   UNL     1       3.319   5.426  18.950  0.00  0.00    +0.000 C 
BRANCH  21  22
ATOM     22  C   UNL     1       2.345   4.433  19.770  0.00  0.00    +0.000 A 
ATOM     23  C   UNL     1       2.397   4.293  21.171  0.00  0.00    +0.000 A 
ATOM     24  C   UNL     1       1.868   3.167  21.833  0.00  0.00    +0.000 A 
ATOM     25  C   UNL     1       1.113   2.244  21.128  0.00  0.00    +0.000 A 
ATOM     26  C   UNL     1       0.838   2.489  19.791  0.00  0.00    +0.000 A 
ATOM     27  C   UNL     1       1.441   3.578  19.114  0.00  0.00    +0.000 A 
ENDBRANCH  21  22
BRANCH  21  28
ATOM     28  C   UNL     1       2.689   6.818  19.016  0.00  0.00    +0.000 A 
ATOM     29  C   UNL     1       2.537   7.545  17.808  0.00  0.00    +0.000 A 
ATOM     30  C   UNL     1       1.909   8.788  17.783  0.00  0.00    +0.000 A 
ATOM     31  C   UNL     1       1.398   9.317  18.960  0.00  0.00    +0.000 A 
ATOM     32  C   UNL     1       1.486   8.586  20.147  0.00  0.00    +0.000 A 
ATOM     33  C   UNL     1       2.117   7.338  20.175  0.00  0.00    +0.000 A 
ENDBRANCH  21  28
ENDBRANCH  11  21
TORSDOF 6
ENDMDL
MODEL 7
REMARK VINA RESULT:      -7.9      8.878     10.831
REMARK  Name = 
REMARK  6 active torsions:
REMARK  status: ('A' for Active; 'I' for Inactive)
REMARK    1  A    between atoms: C_4  and  C_5
REMARK    2  A    between atoms: C_5  and  N_6
REMARK    3  A    between atoms: N_6  and  C_7
REMARK    4  A    between atoms: C_17  and  C_18
REMARK    5  A    between atoms: C_18  and  C_19
REMARK    6  A    between atoms: C_18  and  C_25
REMARK                            x       y       z     vdW  Elec       q    Type
REMARK                         _______ _______ _______ _____ _____    ______ ____
ROOT
ATOM      1  C   UNL     1       8.399  12.480  23.366  0.00  0.00    +0.000 C 
ATOM      2  C   UNL     1       7.946  13.461  24.716  0.00  0.00    +0.000 C 
ATOM      3  C   UNL     1       6.334  14.300  24.670  0.00  0.00    +0.000 C 
ATOM      4  C   UNL     1       5.552  14.523  26.007  0.00  0.00    +0.000 C 
ATOM      5  C   UNL     1       5.922  13.624  27.168  0.00  0.00    +0.000 C 
ATOM      6  C   UNL     1       7.348  13.158  27.034  0.00  0.00    +0.000 C 
ATOM      7  C   UNL     1       7.609  12.410  25.713  0.00  0.00    +0.000 C 
ATOM      8  C   UNL     1       6.482  11.710  24.830  0.00  0.00    +0.000 C 
ATOM      9  N   UNL     1       6.159  12.451  23.341  0.00  0.00    +0.000 NA
ATOM     10  C   UNL     1       5.357  13.561  23.748  0.00  0.00    +0.000 C 
ATOM     11  C   UNL     1       7.413  13.103  22.477  0.00  0.00    +0.000 C 
ENDROOT
BRANCH   1  12
ATOM     12  N   UNL     1       9.512  12.004  22.525  0.00  0.00    +0.000 NA
ATOM     13  H   UNL     1      10.009  12.837  22.189  0.00  0.00    +0.000 HD
BRANCH  12  14
ATOM     14  C   UNL     1       9.133  11.275  21.316  0.00  0.00    +0.000 C 
BRANCH  14  18
ATOM     15  C   UNL     1      11.632  11.880  17.799  0.00  0.00    +0.000 A 
ATOM     16  C   UNL     1      12.187  12.053  19.070  0.00  0.00    +0.000 A 
ATOM     17  C   UNL     1      11.406  11.895  20.212  0.00  0.00    +0.000 A 
ATOM     18  C   UNL     1      10.051  11.537  20.121  0.00  0.00    +0.000 A 
ATOM     19  C   UNL     1       9.511  11.355  18.836  0.00  0.00    +0.000 A 
ATOM     20  C   UNL     1      10.286  11.509  17.691  0.00  0.00    +0.000 A 
ENDBRANCH  14  18
ENDBRANCH  12  14
ENDBRANCH   1  12
BRANCH  11  21
ATOM     21  C   UNL     1       8.190  14.716  22.269  0.00  0.00    +0.000 C 
BRANCH  21  22
ATOM     22  C   UNL     1       9.348  14.921  21.162  0.00  0.00    +0.000 A 
ATOM     23  C   UNL     1      10.676  15.251  21.494  0.00  0.00    +0.000 A 
ATOM     24  C   UNL     1      11.562  15.826  20.562  0.00  0.00    +0.000 A 
ATOM     25  C   UNL     1      11.199  15.913  19.228  0.00  0.00    +0.000 A 
ATOM     26  C   UNL     1       9.988  15.366  18.829  0.00  0.00    +0.000 A 
ATOM     27  C   UNL     1       9.069  14.866  19.784  0.00  0.00    +0.000 A 
ENDBRANCH  21  22
BRANCH  21  28
ATOM     28  C   UNL     1       7.295  15.955  22.209  0.00  0.00    +0.000 A 
ATOM     29  C   UNL     1       7.690  17.106  22.936  0.00  0.00    +0.000 A 
ATOM     30  C   UNL     1       6.961  18.291  22.872  0.00  0.00    +0.000 A 
ATOM     31  C   UNL     1       5.837  18.356  22.060  0.00  0.00    +0.000 A 
ATOM     32  C   UNL     1       5.470  17.249  21.291  0.00  0.00    +0.000 A 
ATOM     33  C   UNL     1       6.199  16.058  21.354  0.00  0.00    +0.000 A 
ENDBRANCH  21  28
ENDBRANCH  11  21
TORSDOF 6
ENDMDL
MODEL 8
REMARK VINA RESULT:      -7.7      8.547     10.781
REMARK  Name = 
REMARK  6 active torsions:
REMARK  status: ('A' for Active; 'I' for Inactive)
REMARK    1  A    between atoms: C_4  and  C_5
REMARK    2  A    between atoms: C_5  and  N_6
REMARK    3  A    between atoms: N_6  and  C_7
REMARK    4  A    between atoms: C_17  and  C_18
REMARK    5  A    between atoms: C_18  and  C_19
REMARK    6  A    between atoms: C_18  and  C_25
REMARK                            x       y       z     vdW  Elec       q    Type
REMARK                         _______ _______ _______ _____ _____    ______ ____
ROOT
ATOM      1  C   UNL     1       5.724  15.005  18.071  0.00  0.00    +0.000 C 
ATOM      2  C   UNL     1       4.354  14.450  18.967  0.00  0.00    +0.000 C 
ATOM      3  C   UNL     1       3.451  15.649  19.994  0.00  0.00    +0.000 C 
ATOM      4  C   UNL     1       1.908  15.482  20.181  0.00  0.00    +0.000 C 
ATOM      5  C   UNL     1       1.182  14.657  19.138  0.00  0.00    +0.000 C 
ATOM      6  C   UNL     1       2.120  13.654  18.520  0.00  0.00    +0.000 C 
ATOM      7  C   UNL     1       3.354  14.313  17.875  0.00  0.00    +0.000 C 
ATOM      8  C   UNL     1       3.427  15.832  17.401  0.00  0.00    +0.000 C 
ATOM      9  N   UNL     1       4.449  16.830  18.313  0.00  0.00    +0.000 NA
ATOM     10  C   UNL     1       3.644  17.076  19.467  0.00  0.00    +0.000 C 
ATOM     11  C   UNL     1       5.874  16.213  18.890  0.00  0.00    +0.000 C 
ENDROOT
BRANCH   1  12
ATOM     12  N   UNL     1       7.058  14.660  17.547  0.00  0.00    +0.000 NA
ATOM     13  H   UNL     1       7.145  15.114  16.630  0.00  0.00    +0.000 HD
BRANCH  12  14
ATOM     14  C   UNL     1       7.296  13.240  17.289  0.00  0.00    +0.000 C 
BRANCH  14  18
ATOM     15  C   UNL     1      11.272  11.815  18.354  0.00  0.00    +0.000 A 
ATOM     16  C   UNL     1      11.132  13.080  17.777  0.00  0.00    +0.000 A 
ATOM     17  C   UNL     1       9.877  13.551  17.399  0.00  0.00    +0.000 A 
ATOM     18  C   UNL     1       8.720  12.782  17.608  0.00  0.00    +0.000 A 
ATOM     19  C   UNL     1       8.878  11.517  18.200  0.00  0.00    +0.000 A 
ATOM     20  C   UNL     1      10.128  11.042  18.582  0.00  0.00    +0.000 A 
ENDBRANCH  14  18
ENDBRANCH  12  14
ENDBRANCH   1  12
BRANCH  11  21
ATOM     21  C   UNL     1       6.480  15.459  20.410  0.00  0.00    +0.000 C 
BRANCH  21  22
ATOM     22  C   UNL     1       8.010  14.952  20.509  0.00  0.00    +0.000 A 
ATOM     23  C   UNL     1       8.368  13.692  21.027  0.00  0.00    +0.000 A 
ATOM     24  C   UNL     1       9.668  13.414  21.493  0.00  0.00    +0.000 A 
ATOM     25  C   UNL     1      10.687  14.328  21.283  0.00  0.00    +0.000 A 
ATOM     26  C   UNL     1      10.413  15.475  20.552  0.00  0.00    +0.000 A 
ATOM     27  C   UNL     1       9.088  15.786  20.159  0.00  0.00    +0.000 A 
ENDBRANCH  21  22
BRANCH  21  28
ATOM     28  C   UNL     1       6.151  16.135  21.741  0.00  0.00    +0.000 A 
ATOM     29  C   UNL     1       6.372  17.530  21.860  0.00  0.00    +0.000 A 
ATOM     30  C   UNL     1       6.031  18.224  23.019  0.00  0.00    +0.000 A 
ATOM     31  C   UNL     1       5.439  17.540  24.073  0.00  0.00    +0.000 A 
ATOM     32  C   UNL     1       5.159  16.177  23.947  0.00  0.00    +0.000 A 
ATOM     33  C   UNL     1       5.502  15.479  22.785  0.00  0.00    +0.000 A 
ENDBRANCH  21  28
ENDBRANCH  11  21
TORSDOF 6
ENDMDL
MODEL 9
REMARK VINA RESULT:      -7.7      7.897     10.509
REMARK  Name = 
REMARK  6 active torsions:
REMARK  status: ('A' for Active; 'I' for Inactive)
REMARK    1  A    between atoms: C_4  and  C_5
REMARK    2  A    between atoms: C_5  and  N_6
REMARK    3  A    between atoms: N_6  and  C_7
REMARK    4  A    between atoms: C_17  and  C_18
REMARK    5  A    between atoms: C_18  and  C_19
REMARK    6  A    between atoms: C_18  and  C_25
REMARK                            x       y       z     vdW  Elec       q    Type
REMARK                         _______ _______ _______ _____ _____    ______ ____
ROOT
ATOM      1  C   UNL     1       0.390  12.413  19.265  0.00  0.00    +0.000 C 
ATOM      2  C   UNL     1       0.532  11.884  20.905  0.00  0.00    +0.000 C 
ATOM      3  C   UNL     1      -0.962  11.877  21.942  0.00  0.00    +0.000 C 
ATOM      4  C   UNL     1      -1.113  10.786  23.052  0.00  0.00    +0.000 C 
ATOM      5  C   UNL     1      -0.278   9.533  22.891  0.00  0.00    +0.000 C 
ATOM      6  C   UNL     1       0.966   9.832  22.098  0.00  0.00    +0.000 C 
ATOM      7  C   UNL     1       0.658  10.416  20.706  0.00  0.00    +0.000 C 
ATOM      8  C   UNL     1      -0.726  10.241  19.935  0.00  0.00    +0.000 C 
ATOM      9  N   UNL     1      -1.654  11.650  19.777  0.00  0.00    +0.000 NA
ATOM     10  C   UNL     1      -2.225  11.758  21.081  0.00  0.00    +0.000 C 
ATOM     11  C   UNL     1      -0.886  13.094  19.508  0.00  0.00    +0.000 C 
ENDROOT
BRANCH   1  12
ATOM     12  N   UNL     1       1.054  13.107  18.146  0.00  0.00    +0.000 NA
ATOM     13  H   UNL     1       0.739  12.650  17.283  0.00  0.00    +0.000 HD
BRANCH  12  14
ATOM     14  C   UNL     1       2.512  13.015  18.113  0.00  0.00    +0.000 C 
BRANCH  14  18
ATOM     15  C   UNL     1       4.593  16.675  19.232  0.00  0.00    +0.000 A 
ATOM     16  C   UNL     1       4.531  15.618  20.144  0.00  0.00    +0.000 A 
ATOM     17  C   UNL     1       3.848  14.447  19.825  0.00  0.00    +0.000 A 
ATOM     18  C   UNL     1       3.225  14.286  18.577  0.00  0.00    +0.000 A 
ATOM     19  C   UNL     1       3.306  15.354  17.667  0.00  0.00    +0.000 A 
ATOM     20  C   UNL     1       3.988  16.526  17.978  0.00  0.00    +0.000 A 
ENDBRANCH  14  18
ENDBRANCH  12  14
ENDBRANCH   1  12
BRANCH  11  21
ATOM     21  C   UNL     1      -0.289  14.486  20.484  0.00  0.00    +0.000 C 
BRANCH  21  22
ATOM     22  C   UNL     1       0.213  15.834  19.750  0.00  0.00    +0.000 A 
ATOM     23  C   UNL     1       1.064  16.771  20.367  0.00  0.00    +0.000 A 
ATOM     24  C   UNL     1       1.168  18.102  19.917  0.00  0.00    +0.000 A 
ATOM     25  C   UNL     1       0.563  18.477  18.728  0.00  0.00    +0.000 A 
ATOM     26  C   UNL     1      -0.078  17.507  17.971  0.00  0.00    +0.000 A 
ATOM     27  C   UNL     1      -0.247  16.192  18.470  0.00  0.00    +0.000 A 
ENDBRANCH  21  22
BRANCH  21  28
ATOM     28  C   UNL     1      -1.100  14.923  21.705  0.00  0.00    +0.000 A 
ATOM     29  C   UNL     1      -0.473  14.891  22.976  0.00  0.00    +0.000 A 
ATOM     30  C   UNL     1      -1.128  15.340  24.121  0.00  0.00    +0.000 A 
ATOM     31  C   UNL     1      -2.414  15.852  24.013  0.00  0.00    +0.000 A 
ATOM     32  C   UNL     1      -3.022  15.946  22.759  0.00  0.00    +0.000 A 
ATOM     33  C   UNL     1      -2.367  15.495  21.609  0.00  0.00    +0.000 A 
ENDBRANCH  21  28
ENDBRANCH  11  21
TORSDOF 6
ENDMDL
