MODEL 1
REMARK VINA RESULT:      -7.3      0.000      0.000
REMARK  Name = 
REMARK  6 active torsions:
REMARK  status: ('A' for Active; 'I' for Inactive)
REMARK    1  A    between atoms: C_1  and  C_2
REMARK    2  A    between atoms: C_2  and  C_3
REMARK    3  A    between atoms: C_6  and  S_7
REMARK    4  A    between atoms: S_7  and  N_10
REMARK    5  A    between atoms: N_10  and  N_11
REMARK    6  A    between atoms: C_12  and  C_14
REMARK                            x       y       z     vdW  Elec       q    Type
REMARK                         _______ _______ _______ _____ _____    ______ ____
ROOT
ATOM      1  N   UNL     1       5.679   4.612  17.318  0.00  0.00    +0.000 N 
ATOM      2  C   UNL     1       5.707   4.715  18.750  0.00  0.00    +0.000 C 
ATOM      3  O   UNL     1       6.706   5.067  19.358  0.00  0.00    +0.000 OA
ENDROOT
BRANCH   2   4
ATOM      4  C   UNL     1       4.493   4.234  19.481  0.00  0.00    +0.000 A 
ATOM      5  C   UNL     1       4.434   2.893  19.906  0.00  0.00    +0.000 A 
ATOM      6  C   UNL     1       3.303   2.396  20.556  0.00  0.00    +0.000 A 
ATOM      7  C   UNL     1       2.234   3.244  20.820  0.00  0.00    +0.000 A 
ATOM      8 CL   UNL     1       0.837   2.629  21.612  0.00  0.00    +0.000 Cl
ATOM      9  C   UNL     1       2.287   4.582  20.441  0.00  0.00    +0.000 A 
ATOM     10  C   UNL     1       3.412   5.079  19.764  0.00  0.00    +0.000 A 
ATOM     11 CL   UNL     1       3.344   6.738  19.279  0.00  0.00    +0.000 Cl
ENDBRANCH   2   4
BRANCH   1  12
ATOM     12  S   UNL     1       7.004   5.190  16.380  0.00  0.00    +0.000 S 
ATOM     13  O   UNL     1       8.222   4.606  16.906  0.00  0.00    +0.000 OA
ATOM     14  O   UNL     1       6.870   6.638  16.323  0.00  0.00    +0.000 OA
BRANCH  12  18
ATOM     15  C   UNL     1       6.103   3.540  12.709  0.00  0.00    +0.000 A 
ATOM     16  N   UNL     1       7.065   4.389  12.409  0.00  0.00    +0.000 NA
ATOM     17  C   UNL     1       7.508   5.014  13.559  0.00  0.00    +0.000 A 
ATOM     18  C   UNL     1       6.866   4.646  14.720  0.00  0.00    +0.000 A 
ATOM     19  S   UNL     1       5.706   3.435  14.379  0.00  0.00    +0.000 S 
BRANCH  15  21
ATOM     20  C   UNL     1       4.031   3.324  11.334  0.00  0.00    +0.000 C 
ATOM     21  C   UNL     1       5.376   2.712  11.696  0.00  0.00    +0.000 C 
ENDBRANCH  15  21
ENDBRANCH  12  18
ENDBRANCH   1  12
BRANCH   1  22
ATOM     22  N   UNL     1       4.449   4.810  16.595  0.00  0.00    +0.000 NA
ATOM     23  H   UNL     1       4.478   5.778  16.243  0.00  0.00    +0.000 HD
ATOM     24  H   UNL     1       3.685   4.819  17.284  0.00  0.00    +0.000 HD
ENDBRANCH   1  22
TORSDOF 5
ENDMDL
MODEL 2
REMARK VINA RESULT:      -7.2      1.856      2.265
REMARK  Name = 
REMARK  6 active torsions:
REMARK  status: ('A' for Active; 'I' for Inactive)
REMARK    1  A    between atoms: C_1  and  C_2
REMARK    2  A    between atoms: C_2  and  C_3
REMARK    3  A    between atoms: C_6  and  S_7
REMARK    4  A    between atoms: S_7  and  N_10
REMARK    5  A    between atoms: N_10  and  N_11
REMARK    6  A    between atoms: C_12  and  C_14
REMARK                            x       y       z     vdW  Elec       q    Type
REMARK                         _______ _______ _______ _____ _____    ______ ____
ROOT
ATOM      1  N   UNL     1       5.446   5.005  18.047  0.00  0.00    +0.000 N 
ATOM      2  C   UNL     1       4.016   5.107  17.978  0.00  0.00    +0.000 C 
ATOM      3  O   UNL     1       3.453   5.821  17.163  0.00  0.00    +0.000 OA
ENDROOT
BRANCH   2   4
ATOM      4  C   UNL     1       3.241   4.403  19.047  0.00  0.00    +0.000 A 
ATOM      5  C   UNL     1       2.956   5.082  20.248  0.00  0.00    +0.000 A 
ATOM      6  C   UNL     1       2.269   4.447  21.284  0.00  0.00    +0.000 A 
ATOM      7  C   UNL     1       1.829   3.139  21.117  0.00  0.00    +0.000 A 
ATOM      8 CL   UNL     1       0.991   2.355  22.398  0.00  0.00    +0.000 Cl
ATOM      9  C   UNL     1       2.068   2.463  19.925  0.00  0.00    +0.000 A 
ATOM     10  C   UNL     1       2.781   3.089  18.890  0.00  0.00    +0.000 A 
ATOM     11 CL   UNL     1       3.081   2.135  17.479  0.00  0.00    +0.000 Cl
ENDBRANCH   2   4
BRANCH   1  12
ATOM     12  S   UNL     1       6.428   5.732  16.832  0.00  0.00    +0.000 S 
ATOM     13  O   UNL     1       7.818   5.511  17.179  0.00  0.00    +0.000 OA
ATOM     14  O   UNL     1       5.938   7.092  16.664  0.00  0.00    +0.000 OA
BRANCH  12  18
ATOM     15  C   UNL     1       6.516   4.062  13.061  0.00  0.00    +0.000 A 
ATOM     16  N   UNL     1       5.332   3.695  13.506  0.00  0.00    +0.000 NA
ATOM     17  C   UNL     1       5.130   4.210  14.772  0.00  0.00    +0.000 A 
ATOM     18  C   UNL     1       6.171   4.952  15.284  0.00  0.00    +0.000 A 
ATOM     19  S   UNL     1       7.427   5.060  14.126  0.00  0.00    +0.000 S 
BRANCH  15  21
ATOM     20  C   UNL     1       6.754   2.201  11.415  0.00  0.00    +0.000 C 
ATOM     21  C   UNL     1       7.071   3.655  11.732  0.00  0.00    +0.000 C 
ENDBRANCH  15  21
ENDBRANCH  12  18
ENDBRANCH   1  12
BRANCH   1  22
ATOM     22  N   UNL     1       6.071   3.793  18.516  0.00  0.00    +0.000 NA
ATOM     23  H   UNL     1       6.435   4.007  19.456  0.00  0.00    +0.000 HD
ATOM     24  H   UNL     1       6.916   3.645  17.950  0.00  0.00    +0.000 HD
ENDBRANCH   1  22
TORSDOF 5
ENDMDL
MODEL 3
REMARK VINA RESULT:      -7.1      1.651      2.009
REMARK  Name = 
REMARK  6 active torsions:
REMARK  status: ('A' for Active; 'I' for Inactive)
REMARK    1  A    between atoms: C_1  and  C_2
REMARK    2  A    between atoms: C_2  and  C_3
REMARK    3  A    between atoms: C_6  and  S_7
REMARK    4  A    between atoms: S_7  and  N_10
REMARK    5  A    between atoms: N_10  and  N_11
REMARK    6  A    between atoms: C_12  and  C_14
REMARK                            x       y       z     vdW  Elec       q    Type
REMARK                         _______ _______ _______ _____ _____    ______ ____
ROOT
ATOM      1  N   UNL     1       5.472   5.217  17.982  0.00  0.00    +0.000 N 
ATOM      2  C   UNL     1       4.049   5.403  17.978  0.00  0.00    +0.000 C 
ATOM      3  O   UNL     1       3.504   6.237  17.271  0.00  0.00    +0.000 OA
ENDROOT
BRANCH   2   4
ATOM      4  C   UNL     1       3.267   4.623  18.987  0.00  0.00    +0.000 A 
ATOM      5  C   UNL     1       2.997   5.201  20.243  0.00  0.00    +0.000 A 
ATOM      6  C   UNL     1       2.305   4.491  21.225  0.00  0.00    +0.000 A 
ATOM      7  C   UNL     1       1.843   3.209  20.950  0.00  0.00    +0.000 A 
ATOM      8 CL   UNL     1       0.999   2.331  22.164  0.00  0.00    +0.000 Cl
ATOM      9  C   UNL     1       2.068   2.633  19.703  0.00  0.00    +0.000 A 
ATOM     10  C   UNL     1       2.786   3.334  18.722  0.00  0.00    +0.000 A 
ATOM     11 CL   UNL     1       3.066   2.499  17.234  0.00  0.00    +0.000 Cl
ENDBRANCH   2   4
BRANCH   1  12
ATOM     12  S   UNL     1       6.457   6.026  16.823  0.00  0.00    +0.000 S 
ATOM     13  O   UNL     1       7.825   6.014  17.301  0.00  0.00    +0.000 OA
ATOM     14  O   UNL     1       5.806   7.298  16.544  0.00  0.00    +0.000 OA
BRANCH  12  18
ATOM     15  C   UNL     1       5.731   3.961  13.327  0.00  0.00    +0.000 A 
ATOM     16  N   UNL     1       7.017   4.232  13.234  0.00  0.00    +0.000 NA
ATOM     17  C   UNL     1       7.433   4.908  14.364  0.00  0.00    +0.000 A 
ATOM     18  C   UNL     1       6.454   5.160  15.300  0.00  0.00    +0.000 A 
ATOM     19  S   UNL     1       4.971   4.480  14.781  0.00  0.00    +0.000 S 
BRANCH  15  21
ATOM     20  C   UNL     1       5.771   2.176  11.583  0.00  0.00    +0.000 C 
ATOM     21  C   UNL     1       4.947   3.260  12.262  0.00  0.00    +0.000 C 
ENDBRANCH  15  21
ENDBRANCH  12  18
ENDBRANCH   1  12
BRANCH   1  22
ATOM     22  N   UNL     1       6.040   3.927  18.287  0.00  0.00    +0.000 NA
ATOM     23  H   UNL     1       5.465   3.536  19.047  0.00  0.00    +0.000 HD
ATOM     24  H   UNL     1       6.955   4.091  18.725  0.00  0.00    +0.000 HD
ENDBRANCH   1  22
TORSDOF 5
ENDMDL
MODEL 4
REMARK VINA RESULT:      -7.1      2.978      4.045
REMARK  Name = 
REMARK  6 active torsions:
REMARK  status: ('A' for Active; 'I' for Inactive)
REMARK    1  A    between atoms: C_1  and  C_2
REMARK    2  A    between atoms: C_2  and  C_3
REMARK    3  A    between atoms: C_6  and  S_7
REMARK    4  A    between atoms: S_7  and  N_10
REMARK    5  A    between atoms: N_10  and  N_11
REMARK    6  A    between atoms: C_12  and  C_14
REMARK                            x       y       z     vdW  Elec       q    Type
REMARK                         _______ _______ _______ _____ _____    ______ ____
ROOT
ATOM      1  N   UNL     1       4.332   5.544  18.428  0.00  0.00    +0.000 N 
ATOM      2  C   UNL     1       2.927   5.723  18.198  0.00  0.00    +0.000 C 
ATOM      3  O   UNL     1       2.283   4.968  17.485  0.00  0.00    +0.000 OA
ENDROOT
BRANCH   2   4
ATOM      4  C   UNL     1       2.307   6.962  18.761  0.00  0.00    +0.000 A 
ATOM      5  C   UNL     1       2.249   8.123  17.966  0.00  0.00    +0.000 A 
ATOM      6  C   UNL     1       1.714   9.310  18.469  0.00  0.00    +0.000 A 
ATOM      7  C   UNL     1       1.197   9.340  19.759  0.00  0.00    +0.000 A 
ATOM      8 CL   UNL     1       0.547  10.805  20.381  0.00  0.00    +0.000 Cl
ATOM      9  C   UNL     1       1.211   8.193  20.549  0.00  0.00    +0.000 A 
ATOM     10  C   UNL     1       1.772   7.005  20.056  0.00  0.00    +0.000 A 
ATOM     11 CL   UNL     1       1.799   5.661  21.144  0.00  0.00    +0.000 Cl
ENDBRANCH   2   4
BRANCH   1  12
ATOM     12  S   UNL     1       5.130   4.123  17.869  0.00  0.00    +0.000 S 
ATOM     13  O   UNL     1       4.122   3.153  17.495  0.00  0.00    +0.000 OA
ATOM     14  O   UNL     1       6.117   3.778  18.882  0.00  0.00    +0.000 OA
BRANCH  12  18
ATOM     15  C   UNL     1       6.792   4.548  14.118  0.00  0.00    +0.000 A 
ATOM     16  N   UNL     1       7.546   5.340  14.852  0.00  0.00    +0.000 NA
ATOM     17  C   UNL     1       7.131   5.287  16.169  0.00  0.00    +0.000 A 
ATOM     18  C   UNL     1       6.055   4.465  16.420  0.00  0.00    +0.000 A 
ATOM     19  S   UNL     1       5.573   3.686  14.974  0.00  0.00    +0.000 S 
BRANCH  15  21
ATOM     20  C   UNL     1       6.078   3.257  12.105  0.00  0.00    +0.000 C 
ATOM     21  C   UNL     1       6.947   4.386  12.638  0.00  0.00    +0.000 C 
ENDBRANCH  15  21
ENDBRANCH  12  18
ENDBRANCH   1  12
BRANCH   1  22
ATOM     22  N   UNL     1       4.933   5.986  19.662  0.00  0.00    +0.000 NA
ATOM     23  H   UNL     1       5.952   5.925  19.520  0.00  0.00    +0.000 HD
ATOM     24  H   UNL     1       4.738   5.269  20.372  0.00  0.00    +0.000 HD
ENDBRANCH   1  22
TORSDOF 5
ENDMDL
MODEL 5
REMARK VINA RESULT:      -7.0      3.049      4.297
REMARK  Name = 
REMARK  6 active torsions:
REMARK  status: ('A' for Active; 'I' for Inactive)
REMARK    1  A    between atoms: C_1  and  C_2
REMARK    2  A    between atoms: C_2  and  C_3
REMARK    3  A    between atoms: C_6  and  S_7
REMARK    4  A    between atoms: S_7  and  N_10
REMARK    5  A    between atoms: N_10  and  N_11
REMARK    6  A    between atoms: C_12  and  C_14
REMARK                            x       y       z     vdW  Elec       q    Type
REMARK                         _______ _______ _______ _____ _____    ______ ____
ROOT
ATOM      1  N   UNL     1       3.353   4.961  18.392  0.00  0.00    +0.000 N 
ATOM      2  C   UNL     1       3.868   6.296  18.513  0.00  0.00    +0.000 C 
ATOM      3  O   UNL     1       5.063   6.525  18.614  0.00  0.00    +0.000 OA
ENDROOT
BRANCH   2   4
ATOM      4  C   UNL     1       2.861   7.393  18.650  0.00  0.00    +0.000 A 
ATOM      5  C   UNL     1       2.767   8.369  17.639  0.00  0.00    +0.000 A 
ATOM      6  C   UNL     1       1.867   9.431  17.748  0.00  0.00    +0.000 A 
ATOM      7  C   UNL     1       1.026   9.508  18.853  0.00  0.00    +0.000 A 
ATOM      8 CL   UNL     1      -0.075  10.822  18.992  0.00  0.00    +0.000 Cl
ATOM      9  C   UNL     1       1.078   8.534  19.846  0.00  0.00    +0.000 A 
ATOM     10  C   UNL     1       1.999   7.480  19.752  0.00  0.00    +0.000 A 
ATOM     11 CL   UNL     1       2.024   6.364  21.073  0.00  0.00    +0.000 Cl
ENDBRANCH   2   4
BRANCH   1  12
ATOM     12  S   UNL     1       4.427   3.632  18.172  0.00  0.00    +0.000 S 
ATOM     13  O   UNL     1       3.674   2.525  17.618  0.00  0.00    +0.000 OA
ATOM     14  O   UNL     1       5.135   3.460  19.432  0.00  0.00    +0.000 OA
BRANCH  12  18
ATOM     15  C   UNL     1       6.797   4.575  14.930  0.00  0.00    +0.000 A 
ATOM     16  N   UNL     1       7.640   4.681  15.936  0.00  0.00    +0.000 NA
ATOM     17  C   UNL     1       6.997   4.361  17.117  0.00  0.00    +0.000 A 
ATOM     18  C   UNL     1       5.666   4.030  16.997  0.00  0.00    +0.000 A 
ATOM     19  S   UNL     1       5.208   4.062  15.348  0.00  0.00    +0.000 S 
BRANCH  15  21
ATOM     20  C   UNL     1       6.582   3.836  12.555  0.00  0.00    +0.000 C 
ATOM     21  C   UNL     1       7.154   4.876  13.508  0.00  0.00    +0.000 C 
ENDBRANCH  15  21
ENDBRANCH  12  18
ENDBRANCH   1  12
BRANCH   1  22
ATOM     22  N   UNL     1       2.122   4.713  17.683  0.00  0.00    +0.000 NA
ATOM     23  H   UNL     1       1.373   5.114  18.265  0.00  0.00    +0.000 HD
ATOM     24  H   UNL     1       1.948   3.701  17.715  0.00  0.00    +0.000 HD
ENDBRANCH   1  22
TORSDOF 5
ENDMDL
MODEL 6
REMARK VINA RESULT:      -7.0      3.007      4.190
REMARK  Name = 
REMARK  6 active torsions:
REMARK  status: ('A' for Active; 'I' for Inactive)
REMARK    1  A    between atoms: C_1  and  C_2
REMARK    2  A    between atoms: C_2  and  C_3
REMARK    3  A    between atoms: C_6  and  S_7
REMARK    4  A    between atoms: S_7  and  N_10
REMARK    5  A    between atoms: N_10  and  N_11
REMARK    6  A    between atoms: C_12  and  C_14
REMARK                            x       y       z     vdW  Elec       q    Type
REMARK                         _______ _______ _______ _____ _____    ______ ____
ROOT
ATOM      1  N   UNL     1       3.054   4.645  18.802  0.00  0.00    +0.000 N 
ATOM      2  C   UNL     1       3.572   5.853  19.380  0.00  0.00    +0.000 C 
ATOM      3  O   UNL     1       4.728   5.948  19.762  0.00  0.00    +0.000 OA
ENDROOT
BRANCH   2   4
ATOM      4  C   UNL     1       2.590   6.955  19.623  0.00  0.00    +0.000 A 
ATOM      5  C   UNL     1       1.867   6.975  20.832  0.00  0.00    +0.000 A 
ATOM      6  C   UNL     1       0.914   7.964  21.081  0.00  0.00    +0.000 A 
ATOM      7  C   UNL     1       0.698   8.963  20.139  0.00  0.00    +0.000 A 
ATOM      8 CL   UNL     1      -0.484  10.176  20.441  0.00  0.00    +0.000 Cl
ATOM      9  C   UNL     1       1.428   8.982  18.953  0.00  0.00    +0.000 A 
ATOM     10  C   UNL     1       2.369   7.976  18.689  0.00  0.00    +0.000 A 
ATOM     11 CL   UNL     1       3.169   8.057  17.158  0.00  0.00    +0.000 Cl
ENDBRANCH   2   4
BRANCH   1  12
ATOM     12  S   UNL     1       4.113   3.337  18.430  0.00  0.00    +0.000 S 
ATOM     13  O   UNL     1       3.359   2.336  17.702  0.00  0.00    +0.000 OA
ATOM     14  O   UNL     1       4.774   2.974  19.675  0.00  0.00    +0.000 OA
BRANCH  12  18
ATOM     15  C   UNL     1       6.630   4.551  15.397  0.00  0.00    +0.000 A 
ATOM     16  N   UNL     1       7.377   4.722  16.469  0.00  0.00    +0.000 NA
ATOM     17  C   UNL     1       6.676   4.324  17.591  0.00  0.00    +0.000 A 
ATOM     18  C   UNL     1       5.396   3.869  17.362  0.00  0.00    +0.000 A 
ATOM     19  S   UNL     1       5.071   3.883  15.681  0.00  0.00    +0.000 S 
BRANCH  15  21
ATOM     20  C   UNL     1       6.531   3.922  12.983  0.00  0.00    +0.000 C 
ATOM     21  C   UNL     1       7.069   4.907  14.010  0.00  0.00    +0.000 C 
ENDBRANCH  15  21
ENDBRANCH  12  18
ENDBRANCH   1  12
BRANCH   1  22
ATOM     22  N   UNL     1       1.986   4.696  17.836  0.00  0.00    +0.000 NA
ATOM     23  H   UNL     1       1.900   3.742  17.457  0.00  0.00    +0.000 HD
ATOM     24  H   UNL     1       2.321   5.251  17.038  0.00  0.00    +0.000 HD
ENDBRANCH   1  22
TORSDOF 5
ENDMDL
MODEL 7
REMARK VINA RESULT:      -6.9      3.633      7.069
REMARK  Name = 
REMARK  6 active torsions:
REMARK  status: ('A' for Active; 'I' for Inactive)
REMARK    1  A    between atoms: C_1  and  C_2
REMARK    2  A    between atoms: C_2  and  C_3
REMARK    3  A    between atoms: C_6  and  S_7
REMARK    4  A    between atoms: S_7  and  N_10
REMARK    5  A    between atoms: N_10  and  N_11
REMARK    6  A    between atoms: C_12  and  C_14
REMARK                            x       y       z     vdW  Elec       q    Type
REMARK                         _______ _______ _______ _____ _____    ______ ____
ROOT
ATOM      1  N   UNL     1       6.462   4.957  16.415  0.00  0.00    +0.000 N 
ATOM      2  C   UNL     1       6.020   5.472  15.151  0.00  0.00    +0.000 C 
ATOM      3  O   UNL     1       5.412   6.528  15.054  0.00  0.00    +0.000 OA
ENDROOT
BRANCH   2   4
ATOM      4  C   UNL     1       6.214   4.587  13.961  0.00  0.00    +0.000 A 
ATOM      5  C   UNL     1       5.263   3.584  13.688  0.00  0.00    +0.000 A 
ATOM      6  C   UNL     1       5.428   2.713  12.610  0.00  0.00    +0.000 A 
ATOM      7  C   UNL     1       6.528   2.857  11.773  0.00  0.00    +0.000 A 
ATOM      8 CL   UNL     1       6.736   1.776  10.451  0.00  0.00    +0.000 Cl
ATOM      9  C   UNL     1       7.461   3.864  12.003  0.00  0.00    +0.000 A 
ATOM     10  C   UNL     1       7.312   4.726  13.100  0.00  0.00    +0.000 A 
ATOM     11 CL   UNL     1       8.564   5.896  13.332  0.00  0.00    +0.000 Cl
ENDBRANCH   2   4
BRANCH   1  12
ATOM     12  S   UNL     1       6.335   5.921  17.838  0.00  0.00    +0.000 S 
ATOM     13  O   UNL     1       6.755   7.269  17.513  0.00  0.00    +0.000 OA
ATOM     14  O   UNL     1       7.021   5.191  18.894  0.00  0.00    +0.000 OA
BRANCH  12  18
ATOM     15  C   UNL     1       2.593   5.683  19.558  0.00  0.00    +0.000 A 
ATOM     16  N   UNL     1       2.456   6.691  18.721  0.00  0.00    +0.000 NA
ATOM     17  C   UNL     1       3.636   6.884  18.029  0.00  0.00    +0.000 A 
ATOM     18  C   UNL     1       4.665   6.031  18.360  0.00  0.00    +0.000 A 
ATOM     19  S   UNL     1       4.130   4.909  19.536  0.00  0.00    +0.000 S 
BRANCH  15  21
ATOM     20  C   UNL     1       1.179   3.751  20.263  0.00  0.00    +0.000 C 
ATOM     21  C   UNL     1       1.516   5.217  20.487  0.00  0.00    +0.000 C 
ENDBRANCH  15  21
ENDBRANCH  12  18
ENDBRANCH   1  12
BRANCH   1  22
ATOM     22  N   UNL     1       7.636   4.125  16.496  0.00  0.00    +0.000 NA
ATOM     23  H   UNL     1       7.913   3.929  15.523  0.00  0.00    +0.000 HD
ATOM     24  H   UNL     1       7.339   3.210  16.859  0.00  0.00    +0.000 HD
ENDBRANCH   1  22
TORSDOF 5
ENDMDL
MODEL 8
REMARK VINA RESULT:      -6.9      3.062      4.216
REMARK  Name = 
REMARK  6 active torsions:
REMARK  status: ('A' for Active; 'I' for Inactive)
REMARK    1  A    between atoms: C_1  and  C_2
REMARK    2  A    between atoms: C_2  and  C_3
REMARK    3  A    between atoms: C_6  and  S_7
REMARK    4  A    between atoms: S_7  and  N_10
REMARK    5  A    between atoms: N_10  and  N_11
REMARK    6  A    between atoms: C_12  and  C_14
REMARK                            x       y       z     vdW  Elec       q    Type
REMARK                         _______ _______ _______ _____ _____    ______ ____
ROOT
ATOM      1  N   UNL     1       3.881   5.320  18.877  0.00  0.00    +0.000 N 
ATOM      2  C   UNL     1       2.460   5.477  19.008  0.00  0.00    +0.000 C 
ATOM      3  O   UNL     1       1.672   4.646  18.581  0.00  0.00    +0.000 OA
ENDROOT
BRANCH   2   4
ATOM      4  C   UNL     1       1.977   6.776  19.570  0.00  0.00    +0.000 A 
ATOM      5  C   UNL     1       1.424   6.801  20.865  0.00  0.00    +0.000 A 
ATOM      6  C   UNL     1       0.927   7.986  21.410  0.00  0.00    +0.000 A 
ATOM      7  C   UNL     1       1.009   9.166  20.680  0.00  0.00    +0.000 A 
ATOM      8 CL   UNL     1       0.387  10.623  21.348  0.00  0.00    +0.000 Cl
ATOM      9  C   UNL     1       1.584   9.170  19.412  0.00  0.00    +0.000 A 
ATOM     10  C   UNL     1       2.062   7.976  18.851  0.00  0.00    +0.000 A 
ATOM     11 CL   UNL     1       2.694   8.083  17.245  0.00  0.00    +0.000 Cl
ENDBRANCH   2   4
BRANCH   1  12
ATOM     12  S   UNL     1       4.542   3.840  18.294  0.00  0.00    +0.000 S 
ATOM     13  O   UNL     1       3.480   3.088  17.657  0.00  0.00    +0.000 OA
ATOM     14  O   UNL     1       5.274   3.248  19.404  0.00  0.00    +0.000 OA
BRANCH  12  18
ATOM     15  C   UNL     1       6.814   4.546  14.924  0.00  0.00    +0.000 A 
ATOM     16  N   UNL     1       7.689   4.711  15.895  0.00  0.00    +0.000 NA
ATOM     17  C   UNL     1       7.082   4.476  17.113  0.00  0.00    +0.000 A 
ATOM     18  C   UNL     1       5.745   4.148  17.057  0.00  0.00    +0.000 A 
ATOM     19  S   UNL     1       5.236   4.076  15.424  0.00  0.00    +0.000 S 
BRANCH  15  21
ATOM     20  C   UNL     1       6.449   3.703  12.603  0.00  0.00    +0.000 C 
ATOM     21  C   UNL     1       7.128   4.749  13.475  0.00  0.00    +0.000 C 
ENDBRANCH  15  21
ENDBRANCH  12  18
ENDBRANCH   1  12
BRANCH   1  22
ATOM     22  N   UNL     1       4.773   5.901  19.849  0.00  0.00    +0.000 NA
ATOM     23  H   UNL     1       5.715   5.560  19.610  0.00  0.00    +0.000 HD
ATOM     24  H   UNL     1       4.570   5.459  20.755  0.00  0.00    +0.000 HD
ENDBRANCH   1  22
TORSDOF 5
ENDMDL
MODEL 9
REMARK VINA RESULT:      -6.8      3.536      4.797
REMARK  Name = 
REMARK  6 active torsions:
REMARK  status: ('A' for Active; 'I' for Inactive)
REMARK    1  A    between atoms: C_1  and  C_2
REMARK    2  A    between atoms: C_2  and  C_3
REMARK    3  A    between atoms: C_6  and  S_7
REMARK    4  A    between atoms: S_7  and  N_10
REMARK    5  A    between atoms: N_10  and  N_11
REMARK    6  A    between atoms: C_12  and  C_14
REMARK                            x       y       z     vdW  Elec       q    Type
REMARK                         _______ _______ _______ _____ _____    ______ ____
ROOT
ATOM      1  N   UNL     1       3.586   6.235  18.119  0.00  0.00    +0.000 N 
ATOM      2  C   UNL     1       2.575   6.559  19.086  0.00  0.00    +0.000 C 
ATOM      3  O   UNL     1       2.117   5.726  19.853  0.00  0.00    +0.000 OA
ENDROOT
BRANCH   2   4
ATOM      4  C   UNL     1       2.004   7.940  19.022  0.00  0.00    +0.000 A 
ATOM      5  C   UNL     1       2.044   8.643  17.802  0.00  0.00    +0.000 A 
ATOM      6  C   UNL     1       1.556   9.948  17.710  0.00  0.00    +0.000 A 
ATOM      7  C   UNL     1       0.990  10.550  18.827  0.00  0.00    +0.000 A 
ATOM      8 CL   UNL     1       0.398  12.162  18.716  0.00  0.00    +0.000 Cl
ATOM      9  C   UNL     1       0.908   9.860  20.033  0.00  0.00    +0.000 A 
ATOM     10  C   UNL     1       1.420   8.558  20.136  0.00  0.00    +0.000 A 
ATOM     11 CL   UNL     1       1.327   7.818  21.697  0.00  0.00    +0.000 Cl
ENDBRANCH   2   4
BRANCH   1  12
ATOM     12  S   UNL     1       4.348   4.690  18.144  0.00  0.00    +0.000 S 
ATOM     13  O   UNL     1       3.369   3.694  17.760  0.00  0.00    +0.000 OA
ATOM     14  O   UNL     1       5.016   4.580  19.433  0.00  0.00    +0.000 OA
BRANCH  12  18
ATOM     15  C   UNL     1       6.828   4.569  14.850  0.00  0.00    +0.000 A 
ATOM     16  N   UNL     1       7.686   4.644  15.848  0.00  0.00    +0.000 NA
ATOM     17  C   UNL     1       7.002   4.662  17.048  0.00  0.00    +0.000 A 
ATOM     18  C   UNL     1       5.629   4.616  16.951  0.00  0.00    +0.000 A 
ATOM     19  S   UNL     1       5.171   4.490  15.307  0.00  0.00    +0.000 S 
BRANCH  15  21
ATOM     20  C   UNL     1       6.341   3.628  12.591  0.00  0.00    +0.000 C 
ATOM     21  C   UNL     1       7.226   4.558  13.407  0.00  0.00    +0.000 C 
ENDBRANCH  15  21
ENDBRANCH  12  18
ENDBRANCH   1  12
BRANCH   1  22
ATOM     22  N   UNL     1       4.528   7.235  17.682  0.00  0.00    +0.000 NA
ATOM     23  H   UNL     1       3.965   8.002  17.287  0.00  0.00    +0.000 HD
ATOM     24  H   UNL     1       5.029   6.850  16.872  0.00  0.00    +0.000 HD
ENDBRANCH   1  22
TORSDOF 5
ENDMDL
