MODEL 1
REMARK VINA RESULT:      -8.6      0.000      0.000
REMARK  Name = 
REMARK  2 active torsions:
REMARK  status: ('A' for Active; 'I' for Inactive)
REMARK    1  A    between atoms: C_4  and  C_5
REMARK    2  A    between atoms: C_8  and  C_9
REMARK                            x       y       z     vdW  Elec       q    Type
REMARK                         _______ _______ _______ _____ _____    ______ ____
ROOT
ATOM      1  C   UNL     1       6.762   5.244  16.082  0.00  0.00    +0.000 C 
ATOM      2  N   UNL     1       6.781   6.428  16.603  0.00  0.00    +0.000 NA
ATOM      3  O   UNL     1       6.610   6.217  17.987  0.00  0.00    +0.000 OA
ATOM      4  C   UNL     1       6.369   4.813  18.151  0.00  0.00    +0.000 C 
ATOM      5  O   UNL     1       6.650   4.188  16.914  0.00  0.00    +0.000 OA
ENDROOT
BRANCH   4   6
ATOM      6  C   UNL     1       4.936   4.518  18.566  0.00  0.00    +0.000 A 
ATOM      7  C   UNL     1       4.259   5.403  19.448  0.00  0.00    +0.000 A 
ATOM      8  C   UNL     1       2.930   5.184  19.822  0.00  0.00    +0.000 A 
ATOM      9  C   UNL     1       2.294   4.082  19.302  0.00  0.00    +0.000 A 
ATOM     10  C   UNL     1       2.932   3.217  18.444  0.00  0.00    +0.000 A 
ATOM     11  C   UNL     1       4.242   3.406  18.054  0.00  0.00    +0.000 A 
ATOM     12  O   UNL     1       2.126   2.195  18.049  0.00  0.00    +0.000 OA
ATOM     13  C   UNL     1       0.920   2.502  18.780  0.00  0.00    +0.000 C 
ATOM     14  O   UNL     1       1.009   3.719  19.550  0.00  0.00    +0.000 OA
ENDBRANCH   4   6
BRANCH   1  18
ATOM     15  C   UNL     1       7.076   4.143  12.040  0.00  0.00    +0.000 A 
ATOM     16  C   UNL     1       6.092   3.548  12.821  0.00  0.00    +0.000 A 
ATOM     17  C   UNL     1       5.951   3.929  14.154  0.00  0.00    +0.000 A 
ATOM     18  C   UNL     1       6.811   4.903  14.650  0.00  0.00    +0.000 A 
ATOM     19  N   UNL     1       7.771   5.510  13.901  0.00  0.00    +0.000 NA
ATOM     20  C   UNL     1       7.881   5.113  12.617  0.00  0.00    +0.000 A 
ENDBRANCH   1  18
TORSDOF 2
ENDMDL
MODEL 2
REMARK VINA RESULT:      -8.3      0.945      1.049
REMARK  Name = 
REMARK  2 active torsions:
REMARK  status: ('A' for Active; 'I' for Inactive)
REMARK    1  A    between atoms: C_4  and  C_5
REMARK    2  A    between atoms: C_8  and  C_9
REMARK                            x       y       z     vdW  Elec       q    Type
REMARK                         _______ _______ _______ _____ _____    ______ ____
ROOT
ATOM      1  C   UNL     1       6.671   5.287  16.057  0.00  0.00    +0.000 C 
ATOM      2  N   UNL     1       6.689   6.481  16.554  0.00  0.00    +0.000 NA
ATOM      3  O   UNL     1       6.488   6.300  17.939  0.00  0.00    +0.000 OA
ATOM      4  C   UNL     1       6.233   4.900  18.126  0.00  0.00    +0.000 C 
ATOM      5  O   UNL     1       6.534   4.249  16.908  0.00  0.00    +0.000 OA
ENDROOT
BRANCH   4   6
ATOM      6  C   UNL     1       4.790   4.625  18.518  0.00  0.00    +0.000 A 
ATOM      7  C   UNL     1       3.732   5.270  17.822  0.00  0.00    +0.000 A 
ATOM      8  C   UNL     1       2.393   5.013  18.130  0.00  0.00    +0.000 A 
ATOM      9  C   UNL     1       2.131   4.107  19.130  0.00  0.00    +0.000 A 
ATOM     10  C   UNL     1       3.141   3.470  19.812  0.00  0.00    +0.000 A 
ATOM     11  C   UNL     1       4.473   3.700  19.530  0.00  0.00    +0.000 A 
ATOM     12  O   UNL     1       2.666   2.617  20.759  0.00  0.00    +0.000 OA
ATOM     13  C   UNL     1       1.244   2.815  20.614  0.00  0.00    +0.000 C 
ATOM     14  O   UNL     1       0.897   3.733  19.557  0.00  0.00    +0.000 OA
ENDBRANCH   4   6
BRANCH   1  18
ATOM     15  C   UNL     1       7.058   4.103  12.045  0.00  0.00    +0.000 A 
ATOM     16  C   UNL     1       6.055   3.529  12.818  0.00  0.00    +0.000 A 
ATOM     17  C   UNL     1       5.891   3.937  14.140  0.00  0.00    +0.000 A 
ATOM     18  C   UNL     1       6.746   4.917  14.633  0.00  0.00    +0.000 A 
ATOM     19  N   UNL     1       7.723   5.504  13.891  0.00  0.00    +0.000 NA
ATOM     20  C   UNL     1       7.857   5.080  12.618  0.00  0.00    +0.000 A 
ENDBRANCH   1  18
TORSDOF 2
ENDMDL
MODEL 3
REMARK VINA RESULT:      -8.0      0.865      1.597
REMARK  Name = 
REMARK  2 active torsions:
REMARK  status: ('A' for Active; 'I' for Inactive)
REMARK    1  A    between atoms: C_4  and  C_5
REMARK    2  A    between atoms: C_8  and  C_9
REMARK                            x       y       z     vdW  Elec       q    Type
REMARK                         _______ _______ _______ _____ _____    ______ ____
ROOT
ATOM      1  C   UNL     1       6.789   5.351  16.108  0.00  0.00    +0.000 C 
ATOM      2  N   UNL     1       6.676   6.548  16.584  0.00  0.00    +0.000 NA
ATOM      3  O   UNL     1       6.594   6.376  17.982  0.00  0.00    +0.000 OA
ATOM      4  C   UNL     1       6.547   4.960  18.209  0.00  0.00    +0.000 C 
ATOM      5  O   UNL     1       6.853   4.325  16.983  0.00  0.00    +0.000 OA
ENDROOT
BRANCH   4   6
ATOM      6  C   UNL     1       5.184   4.500  18.704  0.00  0.00    +0.000 A 
ATOM      7  C   UNL     1       4.804   3.139  18.565  0.00  0.00    +0.000 A 
ATOM      8  C   UNL     1       3.575   2.672  19.041  0.00  0.00    +0.000 A 
ATOM      9  C   UNL     1       2.744   3.579  19.656  0.00  0.00    +0.000 A 
ATOM     10  C   UNL     1       3.097   4.900  19.803  0.00  0.00    +0.000 A 
ATOM     11  C   UNL     1       4.304   5.390  19.346  0.00  0.00    +0.000 A 
ATOM     12  O   UNL     1       2.135   5.623  20.436  0.00  0.00    +0.000 OA
ATOM     13  C   UNL     1       1.127   4.612  20.642  0.00  0.00    +0.000 C 
ATOM     14  O   UNL     1       1.522   3.303  20.182  0.00  0.00    +0.000 OA
ENDBRANCH   4   6
BRANCH   1  18
ATOM     15  C   UNL     1       7.049   4.101  12.106  0.00  0.00    +0.000 A 
ATOM     16  C   UNL     1       6.055   3.559  12.913  0.00  0.00    +0.000 A 
ATOM     17  C   UNL     1       5.933   3.990  14.232  0.00  0.00    +0.000 A 
ATOM     18  C   UNL     1       6.821   4.958  14.689  0.00  0.00    +0.000 A 
ATOM     19  N   UNL     1       7.790   5.514  13.913  0.00  0.00    +0.000 NA
ATOM     20  C   UNL     1       7.882   5.070  12.644  0.00  0.00    +0.000 A 
ENDBRANCH   1  18
TORSDOF 2
ENDMDL
MODEL 4
REMARK VINA RESULT:      -8.0      2.097      2.774
REMARK  Name = 
REMARK  2 active torsions:
REMARK  status: ('A' for Active; 'I' for Inactive)
REMARK    1  A    between atoms: C_4  and  C_5
REMARK    2  A    between atoms: C_8  and  C_9
REMARK                            x       y       z     vdW  Elec       q    Type
REMARK                         _______ _______ _______ _____ _____    ______ ____
ROOT
ATOM      1  C   UNL     1       6.620   4.420  16.218  0.00  0.00    +0.000 C 
ATOM      2  N   UNL     1       7.457   4.800  17.128  0.00  0.00    +0.000 NA
ATOM      3  O   UNL     1       6.780   4.597  18.350  0.00  0.00    +0.000 OA
ATOM      4  C   UNL     1       5.449   4.189  18.006  0.00  0.00    +0.000 C 
ATOM      5  O   UNL     1       5.435   3.916  16.619  0.00  0.00    +0.000 OA
ENDROOT
BRANCH   4   6
ATOM      6  C   UNL     1       4.416   5.257  18.334  0.00  0.00    +0.000 A 
ATOM      7  C   UNL     1       3.698   5.194  19.557  0.00  0.00    +0.000 A 
ATOM      8  C   UNL     1       2.768   6.177  19.909  0.00  0.00    +0.000 A 
ATOM      9  C   UNL     1       2.575   7.215  19.029  0.00  0.00    +0.000 A 
ATOM     10  C   UNL     1       3.264   7.295  17.842  0.00  0.00    +0.000 A 
ATOM     11  C   UNL     1       4.189   6.342  17.468  0.00  0.00    +0.000 A 
ATOM     12  O   UNL     1       2.923   8.397  17.121  0.00  0.00    +0.000 OA
ATOM     13  C   UNL     1       1.920   8.982  17.977  0.00  0.00    +0.000 C 
ATOM     14  O   UNL     1       1.720   8.256  19.208  0.00  0.00    +0.000 OA
ENDBRANCH   4   6
BRANCH   1  18
ATOM     15  C   UNL     1       7.299   4.547  12.074  0.00  0.00    +0.000 A 
ATOM     16  C   UNL     1       6.313   3.699  12.565  0.00  0.00    +0.000 A 
ATOM     17  C   UNL     1       6.051   3.672  13.933  0.00  0.00    +0.000 A 
ATOM     18  C   UNL     1       6.795   4.508  14.758  0.00  0.00    +0.000 A 
ATOM     19  N   UNL     1       7.754   5.357  14.299  0.00  0.00    +0.000 NA
ATOM     20  C   UNL     1       7.984   5.353  12.971  0.00  0.00    +0.000 A 
ENDBRANCH   1  18
TORSDOF 2
ENDMDL
MODEL 5
REMARK VINA RESULT:      -8.0      1.049      1.196
REMARK  Name = 
REMARK  2 active torsions:
REMARK  status: ('A' for Active; 'I' for Inactive)
REMARK    1  A    between atoms: C_4  and  C_5
REMARK    2  A    between atoms: C_8  and  C_9
REMARK                            x       y       z     vdW  Elec       q    Type
REMARK                         _______ _______ _______ _____ _____    ______ ____
ROOT
ATOM      1  C   UNL     1       6.091   5.493  15.784  0.00  0.00    +0.000 C 
ATOM      2  N   UNL     1       5.467   6.584  16.088  0.00  0.00    +0.000 NA
ATOM      3  O   UNL     1       5.315   6.535  17.490  0.00  0.00    +0.000 OA
ATOM      4  C   UNL     1       5.806   5.252  17.901  0.00  0.00    +0.000 C 
ATOM      5  O   UNL     1       6.462   4.674  16.789  0.00  0.00    +0.000 OA
ENDROOT
BRANCH   4   6
ATOM      6  C   UNL     1       4.690   4.334  18.378  0.00  0.00    +0.000 A 
ATOM      7  C   UNL     1       4.927   3.430  19.448  0.00  0.00    +0.000 A 
ATOM      8  C   UNL     1       3.915   2.598  19.937  0.00  0.00    +0.000 A 
ATOM      9  C   UNL     1       2.676   2.688  19.349  0.00  0.00    +0.000 A 
ATOM     10  C   UNL     1       2.427   3.560  18.315  0.00  0.00    +0.000 A 
ATOM     11  C   UNL     1       3.404   4.395  17.812  0.00  0.00    +0.000 A 
ATOM     12  O   UNL     1       1.141   3.489  17.879  0.00  0.00    +0.000 OA
ATOM     13  C   UNL     1       0.620   2.452  18.737  0.00  0.00    +0.000 C 
ATOM     14  O   UNL     1       1.580   1.965  19.698  0.00  0.00    +0.000 OA
ENDBRANCH   4   6
BRANCH   1  18
ATOM     15  C   UNL     1       7.185   3.974  12.023  0.00  0.00    +0.000 A 
ATOM     16  C   UNL     1       6.026   3.497  12.626  0.00  0.00    +0.000 A 
ATOM     17  C   UNL     1       5.631   4.017  13.856  0.00  0.00    +0.000 A 
ATOM     18  C   UNL     1       6.421   5.005  14.433  0.00  0.00    +0.000 A 
ATOM     19  N   UNL     1       7.549   5.498  13.855  0.00  0.00    +0.000 NA
ATOM     20  C   UNL     1       7.904   4.969  12.667  0.00  0.00    +0.000 A 
ENDBRANCH   1  18
TORSDOF 2
ENDMDL
MODEL 6
REMARK VINA RESULT:      -7.8      1.938      2.617
REMARK  Name = 
REMARK  2 active torsions:
REMARK  status: ('A' for Active; 'I' for Inactive)
REMARK    1  A    between atoms: C_4  and  C_5
REMARK    2  A    between atoms: C_8  and  C_9
REMARK                            x       y       z     vdW  Elec       q    Type
REMARK                         _______ _______ _______ _____ _____    ______ ____
ROOT
ATOM      1  C   UNL     1       6.595   4.378  16.139  0.00  0.00    +0.000 C 
ATOM      2  N   UNL     1       7.447   4.653  17.071  0.00  0.00    +0.000 NA
ATOM      3  O   UNL     1       6.736   4.475  18.277  0.00  0.00    +0.000 OA
ATOM      4  C   UNL     1       5.379   4.199  17.903  0.00  0.00    +0.000 C 
ATOM      5  O   UNL     1       5.362   3.971  16.508  0.00  0.00    +0.000 OA
ENDROOT
BRANCH   4   6
ATOM      6  C   UNL     1       4.441   5.345  18.252  0.00  0.00    +0.000 A 
ATOM      7  C   UNL     1       4.305   6.443  17.361  0.00  0.00    +0.000 A 
ATOM      8  C   UNL     1       3.425   7.496  17.630  0.00  0.00    +0.000 A 
ATOM      9  C   UNL     1       2.688   7.430  18.789  0.00  0.00    +0.000 A 
ATOM     10  C   UNL     1       2.803   6.373  19.661  0.00  0.00    +0.000 A 
ATOM     11  C   UNL     1       3.661   5.318  19.422  0.00  0.00    +0.000 A 
ATOM     12  O   UNL     1       1.988   6.505  20.742  0.00  0.00    +0.000 OA
ATOM     13  C   UNL     1       1.372   7.780  20.463  0.00  0.00    +0.000 C 
ATOM     14  O   UNL     1       1.785   8.355  19.206  0.00  0.00    +0.000 OA
ENDBRANCH   4   6
BRANCH   1  18
ATOM     15  C   UNL     1       7.362   4.590  12.014  0.00  0.00    +0.000 A 
ATOM     16  C   UNL     1       6.382   3.713  12.469  0.00  0.00    +0.000 A 
ATOM     17  C   UNL     1       6.091   3.658  13.830  0.00  0.00    +0.000 A 
ATOM     18  C   UNL     1       6.800   4.495  14.685  0.00  0.00    +0.000 A 
ATOM     19  N   UNL     1       7.750   5.371  14.262  0.00  0.00    +0.000 NA
ATOM     20  C   UNL     1       8.009   5.395  12.939  0.00  0.00    +0.000 A 
ENDBRANCH   1  18
TORSDOF 2
ENDMDL
MODEL 7
REMARK VINA RESULT:      -7.7      0.644      1.083
REMARK  Name = 
REMARK  2 active torsions:
REMARK  status: ('A' for Active; 'I' for Inactive)
REMARK    1  A    between atoms: C_4  and  C_5
REMARK    2  A    between atoms: C_8  and  C_9
REMARK                            x       y       z     vdW  Elec       q    Type
REMARK                         _______ _______ _______ _____ _____    ______ ____
ROOT
ATOM      1  C   UNL     1       6.843   5.170  15.982  0.00  0.00    +0.000 C 
ATOM      2  N   UNL     1       6.826   6.384  16.428  0.00  0.00    +0.000 NA
ATOM      3  O   UNL     1       6.648   6.254  17.822  0.00  0.00    +0.000 OA
ATOM      4  C   UNL     1       6.443   4.856  18.071  0.00  0.00    +0.000 C 
ATOM      5  O   UNL     1       6.751   4.165  16.877  0.00  0.00    +0.000 OA
ENDROOT
BRANCH   4   6
ATOM      6  C   UNL     1       5.014   4.549  18.493  0.00  0.00    +0.000 A 
ATOM      7  C   UNL     1       4.346   5.409  19.405  0.00  0.00    +0.000 A 
ATOM      8  C   UNL     1       3.021   5.179  19.787  0.00  0.00    +0.000 A 
ATOM      9  C   UNL     1       2.381   4.091  19.244  0.00  0.00    +0.000 A 
ATOM     10  C   UNL     1       3.010   3.250  18.356  0.00  0.00    +0.000 A 
ATOM     11  C   UNL     1       4.316   3.451  17.958  0.00  0.00    +0.000 A 
ATOM     12  O   UNL     1       2.200   2.239  17.941  0.00  0.00    +0.000 OA
ATOM     13  C   UNL     1       1.002   2.524  18.694  0.00  0.00    +0.000 C 
ATOM     14  O   UNL     1       1.098   3.720  19.495  0.00  0.00    +0.000 OA
ENDBRANCH   4   6
BRANCH   1  18
ATOM     15  C   UNL     1       6.860   4.063  11.929  0.00  0.00    +0.000 A 
ATOM     16  C   UNL     1       7.718   5.073  12.351  0.00  0.00    +0.000 A 
ATOM     17  C   UNL     1       7.750   5.427  13.698  0.00  0.00    +0.000 A 
ATOM     18  C   UNL     1       6.914   4.743  14.574  0.00  0.00    +0.000 A 
ATOM     19  N   UNL     1       6.079   3.741  14.188  0.00  0.00    +0.000 NA
ATOM     20  C   UNL     1       6.071   3.429  12.876  0.00  0.00    +0.000 A 
ENDBRANCH   1  18
TORSDOF 2
ENDMDL
MODEL 8
REMARK VINA RESULT:      -7.5      2.416      6.630
REMARK  Name = 
REMARK  2 active torsions:
REMARK  status: ('A' for Active; 'I' for Inactive)
REMARK    1  A    between atoms: C_4  and  C_5
REMARK    2  A    between atoms: C_8  and  C_9
REMARK                            x       y       z     vdW  Elec       q    Type
REMARK                         _______ _______ _______ _____ _____    ______ ____
ROOT
ATOM      1  C   UNL     1       4.422   4.230  19.157  0.00  0.00    +0.000 C 
ATOM      2  N   UNL     1       5.556   3.772  19.576  0.00  0.00    +0.000 NA
ATOM      3  O   UNL     1       6.528   4.547  18.909  0.00  0.00    +0.000 OA
ATOM      4  C   UNL     1       5.811   5.385  17.992  0.00  0.00    +0.000 C 
ATOM      5  O   UNL     1       4.437   5.277  18.306  0.00  0.00    +0.000 OA
ENDROOT
BRANCH   4   6
ATOM      6  C   UNL     1       6.044   4.985  16.543  0.00  0.00    +0.000 A 
ATOM      7  C   UNL     1       5.187   4.035  15.925  0.00  0.00    +0.000 A 
ATOM      8  C   UNL     1       5.347   3.671  14.585  0.00  0.00    +0.000 A 
ATOM      9  C   UNL     1       6.364   4.269  13.879  0.00  0.00    +0.000 A 
ATOM     10  C   UNL     1       7.201   5.193  14.459  0.00  0.00    +0.000 A 
ATOM     11  C   UNL     1       7.067   5.575  15.779  0.00  0.00    +0.000 A 
ATOM     12  O   UNL     1       8.136   5.660  13.589  0.00  0.00    +0.000 OA
ATOM     13  C   UNL     1       7.809   4.900  12.406  0.00  0.00    +0.000 C 
ATOM     14  O   UNL     1       6.662   4.042  12.573  0.00  0.00    +0.000 OA
ENDBRANCH   4   6
BRANCH   1  18
ATOM     15  C   UNL     1       0.522   2.951  20.055  0.00  0.00    +0.000 A 
ATOM     16  C   UNL     1       1.008   2.762  18.766  0.00  0.00    +0.000 A 
ATOM     17  C   UNL     1       2.312   3.148  18.462  0.00  0.00    +0.000 A 
ATOM     18  C   UNL     1       3.081   3.709  19.476  0.00  0.00    +0.000 A 
ATOM     19  N   UNL     1       2.632   3.890  20.747  0.00  0.00    +0.000 NA
ATOM     20  C   UNL     1       1.365   3.509  21.003  0.00  0.00    +0.000 A 
ENDBRANCH   1  18
TORSDOF 2
ENDMDL
MODEL 9
REMARK VINA RESULT:      -7.5      2.364      6.640
REMARK  Name = 
REMARK  2 active torsions:
REMARK  status: ('A' for Active; 'I' for Inactive)
REMARK    1  A    between atoms: C_4  and  C_5
REMARK    2  A    between atoms: C_8  and  C_9
REMARK                            x       y       z     vdW  Elec       q    Type
REMARK                         _______ _______ _______ _____ _____    ______ ____
ROOT
ATOM      1  C   UNL     1       4.402   4.317  19.197  0.00  0.00    +0.000 C 
ATOM      2  N   UNL     1       5.498   3.772  19.615  0.00  0.00    +0.000 NA
ATOM      3  O   UNL     1       6.527   4.477  18.955  0.00  0.00    +0.000 OA
ATOM      4  C   UNL     1       5.877   5.374  18.044  0.00  0.00    +0.000 C 
ATOM      5  O   UNL     1       4.498   5.367  18.355  0.00  0.00    +0.000 OA
ENDROOT
BRANCH   4   6
ATOM      6  C   UNL     1       6.083   4.968  16.592  0.00  0.00    +0.000 A 
ATOM      7  C   UNL     1       5.210   4.021  15.992  0.00  0.00    +0.000 A 
ATOM      8  C   UNL     1       5.346   3.652  14.650  0.00  0.00    +0.000 A 
ATOM      9  C   UNL     1       6.353   4.243  13.925  0.00  0.00    +0.000 A 
ATOM     10  C   UNL     1       7.204   5.165  14.488  0.00  0.00    +0.000 A 
ATOM     11  C   UNL     1       7.095   5.551  15.808  0.00  0.00    +0.000 A 
ATOM     12  O   UNL     1       8.127   5.624  13.600  0.00  0.00    +0.000 OA
ATOM     13  C   UNL     1       7.776   4.863  12.425  0.00  0.00    +0.000 C 
ATOM     14  O   UNL     1       6.627   4.010  12.615  0.00  0.00    +0.000 OA
ENDBRANCH   4   6
BRANCH   1  18
ATOM     15  C   UNL     1       0.540   2.907  20.060  0.00  0.00    +0.000 A 
ATOM     16  C   UNL     1       1.353   3.319  21.111  0.00  0.00    +0.000 A 
ATOM     17  C   UNL     1       2.622   3.822  20.838  0.00  0.00    +0.000 A 
ATOM     18  C   UNL     1       3.026   3.896  19.509  0.00  0.00    +0.000 A 
ATOM     19  N   UNL     1       2.242   3.515  18.464  0.00  0.00    +0.000 NA
ATOM     20  C   UNL     1       1.022   3.028  18.766  0.00  0.00    +0.000 A 
ENDBRANCH   1  18
TORSDOF 2
ENDMDL
