MODEL 1
REMARK VINA RESULT:      -8.7      0.000      0.000
REMARK  Name = 
REMARK  4 active torsions:
REMARK  status: ('A' for Active; 'I' for Inactive)
REMARK    1  A    between atoms: C_2  and  C_3
REMARK    2  A    between atoms: N_5  and  C_6
REMARK    3  A    between atoms: C_9  and  C_10
REMARK    4  A    between atoms: C_15  and  N_16
REMARK                            x       y       z     vdW  Elec       q    Type
REMARK                         _______ _______ _______ _____ _____    ______ ____
ROOT
ATOM      1  C   UNL     1       4.441   3.549  19.286  0.00  0.00    +0.000 C 
ATOM      2  O   UNL     1       4.832   2.520  19.836  0.00  0.00    +0.000 OA
ATOM      3  N   UNL     1       3.327   4.251  19.725  0.00  0.00    +0.000 N 
ATOM      4  C   UNL     1       2.580   3.795  20.879  0.00  0.00    +0.000 C 
ATOM      5  C   UNL     1       1.271   4.562  20.778  0.00  0.00    +0.000 C 
ATOM      6  C   UNL     1       1.656   5.929  20.177  0.00  0.00    +0.000 C 
ATOM      7  C   UNL     1       3.013   5.661  19.491  0.00  0.00    +0.000 C 
ENDROOT
BRANCH   6   8
ATOM      8  N   UNL     1       1.764   6.931  21.217  0.00  0.00    +0.000 N 
ATOM      9  C   UNL     1       1.173   8.170  21.110  0.00  0.00    +0.000 A 
ATOM     10  N   UNL     1       1.298   8.919  22.207  0.00  0.00    +0.000 NA
ATOM     11  C   UNL     1       0.976  10.218  22.095  0.00  0.00    +0.000 A 
ATOM     12  C   UNL     1       0.491  10.795  20.939  0.00  0.00    +0.000 A 
ATOM     13  C   UNL     1       0.248  12.178  20.821  0.00  0.00    +0.000 A 
ATOM     14  C   UNL     1      -0.267  12.686  19.636  0.00  0.00    +0.000 A 
ATOM     15 CL   UNL     1      -0.499  14.379  19.459  0.00  0.00    +0.000 Cl
ATOM     16  C   UNL     1      -0.577  11.820  18.595  0.00  0.00    +0.000 A 
ATOM     17  C   UNL     1      -0.310  10.446  18.728  0.00  0.00    +0.000 A 
ATOM     18  C   UNL     1       0.267   9.907  19.882  0.00  0.00    +0.000 A 
ATOM     19  N   UNL     1       0.617   8.605  19.965  0.00  0.00    +0.000 NA
ATOM     20  H   UNL     1       1.797   6.648  22.187  0.00  0.00    +0.000 HD
ENDBRANCH   6   8
BRANCH   1  24
ATOM     21  C   UNL     1       6.643   4.958  15.846  0.00  0.00    +0.000 A 
ATOM     22  C   UNL     1       5.384   4.372  15.697  0.00  0.00    +0.000 A 
ATOM     23  C   UNL     1       4.694   3.871  16.801  0.00  0.00    +0.000 A 
ATOM     24  C   UNL     1       5.194   4.030  18.090  0.00  0.00    +0.000 A 
ATOM     25  C   UNL     1       6.477   4.578  18.246  0.00  0.00    +0.000 A 
ATOM     26  C   UNL     1       7.201   5.020  17.126  0.00  0.00    +0.000 A 
BRANCH  21  29
ATOM     27  C   UNL     1       7.362   4.899  13.470  0.00  0.00    +0.000 C 
ATOM     28  O   UNL     1       6.618   4.014  13.066  0.00  0.00    +0.000 OA
ATOM     29  N   UNL     1       7.385   5.440  14.743  0.00  0.00    +0.000 N 
ATOM     30  H   UNL     1       7.932   6.276  14.899  0.00  0.00    +0.000 HD
BRANCH  27  32
ATOM     31  C   UNL     1       7.907   6.235  11.497  0.00  0.00    +0.000 C 
ATOM     32  C   UNL     1       8.349   5.529  12.547  0.00  0.00    +0.000 C 
ENDBRANCH  27  32
ENDBRANCH  21  29
ENDBRANCH   1  24
TORSDOF 4
ENDMDL
MODEL 2
REMARK VINA RESULT:      -7.7      5.206      9.384
REMARK  Name = 
REMARK  4 active torsions:
REMARK  status: ('A' for Active; 'I' for Inactive)
REMARK    1  A    between atoms: C_2  and  C_3
REMARK    2  A    between atoms: N_5  and  C_6
REMARK    3  A    between atoms: C_9  and  C_10
REMARK    4  A    between atoms: C_15  and  N_16
REMARK                            x       y       z     vdW  Elec       q    Type
REMARK                         _______ _______ _______ _____ _____    ______ ____
ROOT
ATOM      1  C   UNL     1      -2.151  11.444  19.315  0.00  0.00    +0.000 C 
ATOM      2  O   UNL     1      -2.777  12.255  19.998  0.00  0.00    +0.000 OA
ATOM      3  N   UNL     1      -0.948  10.892  19.731  0.00  0.00    +0.000 N 
ATOM      4  C   UNL     1      -0.383  11.247  21.016  0.00  0.00    +0.000 C 
ATOM      5  C   UNL     1       1.058  10.773  20.911  0.00  0.00    +0.000 C 
ATOM      6  C   UNL     1       0.997   9.501  20.041  0.00  0.00    +0.000 C 
ATOM      7  C   UNL     1      -0.341   9.638  19.282  0.00  0.00    +0.000 C 
ENDROOT
BRANCH   6   8
ATOM      8  N   UNL     1       1.030   8.315  20.870  0.00  0.00    +0.000 N 
ATOM      9  C   UNL     1       1.722   7.181  20.506  0.00  0.00    +0.000 A 
ATOM     10  N   UNL     1       1.718   6.229  21.441  0.00  0.00    +0.000 NA
ATOM     11  C   UNL     1       2.147   5.012  21.069  0.00  0.00    +0.000 A 
ATOM     12  C   UNL     1       2.622   4.714  19.808  0.00  0.00    +0.000 A 
ATOM     13  C   UNL     1       2.979   3.408  19.416  0.00  0.00    +0.000 A 
ATOM     14  C   UNL     1       3.476   3.186  18.139  0.00  0.00    +0.000 A 
ATOM     15 CL   UNL     1       3.847   1.587  17.630  0.00  0.00    +0.000 Cl
ATOM     16  C   UNL     1       3.657   4.259  17.276  0.00  0.00    +0.000 A 
ATOM     17  C   UNL     1       3.276   5.551  17.681  0.00  0.00    +0.000 A 
ATOM     18  C   UNL     1       2.714   5.803  18.936  0.00  0.00    +0.000 A 
ATOM     19  N   UNL     1       2.255   7.026  19.281  0.00  0.00    +0.000 NA
ATOM     20  H   UNL     1       1.021   8.404  21.877  0.00  0.00    +0.000 HD
ENDBRANCH   6   8
BRANCH   1  24
ATOM     21  C   UNL     1      -3.814  10.382  15.471  0.00  0.00    +0.000 A 
ATOM     22  C   UNL     1      -2.622   9.808  15.916  0.00  0.00    +0.000 A 
ATOM     23  C   UNL     1      -2.057  10.188  17.134  0.00  0.00    +0.000 A 
ATOM     24  C   UNL     1      -2.715  11.071  17.984  0.00  0.00    +0.000 A 
ATOM     25  C   UNL     1      -3.892  11.686  17.527  0.00  0.00    +0.000 A 
ATOM     26  C   UNL     1      -4.424  11.355  16.269  0.00  0.00    +0.000 A 
BRANCH  21  29
ATOM     27  C   UNL     1      -3.688   9.815  13.056  0.00  0.00    +0.000 C 
ATOM     28  O   UNL     1      -2.470   9.736  12.942  0.00  0.00    +0.000 OA
ATOM     29  N   UNL     1      -4.392  10.048  14.224  0.00  0.00    +0.000 N 
ATOM     30  H   UNL     1      -5.396   9.925  14.211  0.00  0.00    +0.000 HD
BRANCH  27  32
ATOM     31  C   UNL     1      -5.859   9.312  12.053  0.00  0.00    +0.000 C 
ATOM     32  C   UNL     1      -4.567   9.620  11.869  0.00  0.00    +0.000 C 
ENDBRANCH  27  32
ENDBRANCH  21  29
ENDBRANCH   1  24
TORSDOF 4
ENDMDL
MODEL 3
REMARK VINA RESULT:      -7.6      5.574      8.008
REMARK  Name = 
REMARK  4 active torsions:
REMARK  status: ('A' for Active; 'I' for Inactive)
REMARK    1  A    between atoms: C_2  and  C_3
REMARK    2  A    between atoms: N_5  and  C_6
REMARK    3  A    between atoms: C_9  and  C_10
REMARK    4  A    between atoms: C_15  and  N_16
REMARK                            x       y       z     vdW  Elec       q    Type
REMARK                         _______ _______ _______ _____ _____    ______ ____
ROOT
ATOM      1  C   UNL     1       0.025  10.892  19.584  0.00  0.00    +0.000 C 
ATOM      2  O   UNL     1      -1.082  10.693  20.086  0.00  0.00    +0.000 OA
ATOM      3  N   UNL     1       0.488  12.165  19.284  0.00  0.00    +0.000 N 
ATOM      4  C   UNL     1      -0.325  13.328  19.571  0.00  0.00    +0.000 C 
ATOM      5  C   UNL     1       0.334  14.429  18.755  0.00  0.00    +0.000 C 
ATOM      6  C   UNL     1       1.839  14.096  18.780  0.00  0.00    +0.000 C 
ATOM      7  C   UNL     1       1.879  12.592  19.125  0.00  0.00    +0.000 C 
ENDROOT
BRANCH   6   8
ATOM      8  N   UNL     1       2.523  14.898  19.773  0.00  0.00    +0.000 N 
ATOM      9  C   UNL     1       3.843  15.266  19.640  0.00  0.00    +0.000 A 
ATOM     10  N   UNL     1       4.268  16.085  20.604  0.00  0.00    +0.000 NA
ATOM     11  C   UNL     1       5.594  16.285  20.689  0.00  0.00    +0.000 A 
ATOM     12  C   UNL     1       6.514  15.730  19.823  0.00  0.00    +0.000 A 
ATOM     13  C   UNL     1       7.905  15.880  19.990  0.00  0.00    +0.000 A 
ATOM     14  C   UNL     1       8.773  15.318  19.063  0.00  0.00    +0.000 A 
ATOM     15 CL   UNL     1      10.471  15.435  19.298  0.00  0.00    +0.000 Cl
ATOM     16  C   UNL     1       8.259  14.651  17.958  0.00  0.00    +0.000 A 
ATOM     17  C   UNL     1       6.868  14.498  17.821  0.00  0.00    +0.000 A 
ATOM     18  C   UNL     1       5.966  14.996  18.767  0.00  0.00    +0.000 A 
ATOM     19  N   UNL     1       4.640  14.756  18.684  0.00  0.00    +0.000 NA
ATOM     20  H   UNL     1       2.015  15.611  20.280  0.00  0.00    +0.000 HD
ENDBRANCH   6   8
BRANCH   1  24
ATOM     21  C   UNL     1       2.487   7.447  18.722  0.00  0.00    +0.000 A 
ATOM     22  C   UNL     1       2.130   8.341  17.710  0.00  0.00    +0.000 A 
ATOM     23  C   UNL     1       1.293   9.425  17.977  0.00  0.00    +0.000 A 
ATOM     24  C   UNL     1       0.874   9.703  19.275  0.00  0.00    +0.000 A 
ATOM     25  C   UNL     1       1.191   8.787  20.290  0.00  0.00    +0.000 A 
ATOM     26  C   UNL     1       1.977   7.657  20.007  0.00  0.00    +0.000 A 
BRANCH  21  29
ATOM     27  C   UNL     1       2.840   5.074  18.082  0.00  0.00    +0.000 C 
ATOM     28  O   UNL     1       1.691   4.788  17.766  0.00  0.00    +0.000 OA
ATOM     29  N   UNL     1       3.301   6.317  18.476  0.00  0.00    +0.000 N 
ATOM     30  H   UNL     1       4.300   6.457  18.549  0.00  0.00    +0.000 HD
BRANCH  27  32
ATOM     31  C   UNL     1       3.594   2.782  17.692  0.00  0.00    +0.000 C 
ATOM     32  C   UNL     1       3.912   4.039  18.032  0.00  0.00    +0.000 C 
ENDBRANCH  27  32
ENDBRANCH  21  29
ENDBRANCH   1  24
TORSDOF 4
ENDMDL
MODEL 4
REMARK VINA RESULT:      -7.4      6.693      8.463
REMARK  Name = 
REMARK  4 active torsions:
REMARK  status: ('A' for Active; 'I' for Inactive)
REMARK    1  A    between atoms: C_2  and  C_3
REMARK    2  A    between atoms: N_5  and  C_6
REMARK    3  A    between atoms: C_9  and  C_10
REMARK    4  A    between atoms: C_15  and  N_16
REMARK                            x       y       z     vdW  Elec       q    Type
REMARK                         _______ _______ _______ _____ _____    ______ ____
ROOT
ATOM      1  C   UNL     1       9.864  13.781  18.029  0.00  0.00    +0.000 C 
ATOM      2  O   UNL     1      10.853  14.034  17.342  0.00  0.00    +0.000 OA
ATOM      3  N   UNL     1       9.075  14.773  18.594  0.00  0.00    +0.000 N 
ATOM      4  C   UNL     1       9.386  16.171  18.375  0.00  0.00    +0.000 C 
ATOM      5  C   UNL     1       8.574  16.884  19.445  0.00  0.00    +0.000 C 
ATOM      6  C   UNL     1       7.289  16.046  19.594  0.00  0.00    +0.000 C 
ATOM      7  C   UNL     1       7.681  14.665  19.025  0.00  0.00    +0.000 C 
ENDROOT
BRANCH   6   8
ATOM      8  N   UNL     1       6.199  16.647  18.855  0.00  0.00    +0.000 N 
ATOM      9  C   UNL     1       4.885  16.292  19.061  0.00  0.00    +0.000 A 
ATOM     10  N   UNL     1       4.017  17.023  18.359  0.00  0.00    +0.000 NA
ATOM     11  C   UNL     1       2.750  16.579  18.309  0.00  0.00    +0.000 A 
ATOM     12  C   UNL     1       2.302  15.452  18.968  0.00  0.00    +0.000 A 
ATOM     13  C   UNL     1       0.990  14.956  18.824  0.00  0.00    +0.000 A 
ATOM     14  C   UNL     1       0.599  13.832  19.539  0.00  0.00    +0.000 A 
ATOM     15 CL   UNL     1      -0.974  13.179  19.316  0.00  0.00    +0.000 Cl
ATOM     16  C   UNL     1       1.490  13.235  20.421  0.00  0.00    +0.000 A 
ATOM     17  C   UNL     1       2.800  13.736  20.535  0.00  0.00    +0.000 A 
ATOM     18  C   UNL     1       3.249  14.827  19.784  0.00  0.00    +0.000 A 
ATOM     19  N   UNL     1       4.535  15.238  19.820  0.00  0.00    +0.000 NA
ATOM     20  H   UNL     1       6.254  17.618  18.578  0.00  0.00    +0.000 HD
ENDBRANCH   6   8
BRANCH   1  24
ATOM     21  C   UNL     1       8.934   9.623  18.749  0.00  0.00    +0.000 A 
ATOM     22  C   UNL     1       8.257  10.346  17.764  0.00  0.00    +0.000 A 
ATOM     23  C   UNL     1       8.520  11.702  17.565  0.00  0.00    +0.000 A 
ATOM     24  C   UNL     1       9.532  12.345  18.271  0.00  0.00    +0.000 A 
ATOM     25  C   UNL     1      10.188  11.640  19.292  0.00  0.00    +0.000 A 
ATOM     26  C   UNL     1       9.873  10.292  19.539  0.00  0.00    +0.000 A 
BRANCH  21  29
ATOM     27  C   UNL     1       7.947   7.419  18.166  0.00  0.00    +0.000 C 
ATOM     28  O   UNL     1       7.550   7.680  17.037  0.00  0.00    +0.000 OA
ATOM     29  N   UNL     1       8.662   8.258  19.002  0.00  0.00    +0.000 N 
ATOM     30  H   UNL     1       9.072   7.866  19.840  0.00  0.00    +0.000 HD
BRANCH  27  32
ATOM     31  C   UNL     1       7.542   5.020  17.942  0.00  0.00    +0.000 C 
ATOM     32  C   UNL     1       7.702   6.072  18.756  0.00  0.00    +0.000 C 
ENDBRANCH  27  32
ENDBRANCH  21  29
ENDBRANCH   1  24
TORSDOF 4
ENDMDL
MODEL 5
REMARK VINA RESULT:      -7.3      2.435      3.203
REMARK  Name = 
REMARK  4 active torsions:
REMARK  status: ('A' for Active; 'I' for Inactive)
REMARK    1  A    between atoms: C_2  and  C_3
REMARK    2  A    between atoms: N_5  and  C_6
REMARK    3  A    between atoms: C_9  and  C_10
REMARK    4  A    between atoms: C_15  and  N_16
REMARK                            x       y       z     vdW  Elec       q    Type
REMARK                         _______ _______ _______ _____ _____    ______ ____
ROOT
ATOM      1  C   UNL     1       3.773   6.014  18.633  0.00  0.00    +0.000 C 
ATOM      2  O   UNL     1       4.000   5.480  19.719  0.00  0.00    +0.000 OA
ATOM      3  N   UNL     1       2.911   7.092  18.499  0.00  0.00    +0.000 N 
ATOM      4  C   UNL     1       2.246   7.649  19.659  0.00  0.00    +0.000 C 
ATOM      5  C   UNL     1       1.136   8.496  19.057  0.00  0.00    +0.000 C 
ATOM      6  C   UNL     1       1.727   9.052  17.746  0.00  0.00    +0.000 C 
ATOM      7  C   UNL     1       2.886   8.084  17.423  0.00  0.00    +0.000 C 
ENDROOT
BRANCH   6   8
ATOM      8  N   UNL     1       2.192  10.410  17.932  0.00  0.00    +0.000 N 
ATOM      9  C   UNL     1       1.488  11.336  18.669  0.00  0.00    +0.000 A 
ATOM     10  N   UNL     1       2.122  12.501  18.811  0.00  0.00    +0.000 NA
ATOM     11  C   UNL     1       1.403  13.529  19.293  0.00  0.00    +0.000 A 
ATOM     12  C   UNL     1       0.082  13.430  19.681  0.00  0.00    +0.000 A 
ATOM     13  C   UNL     1      -0.676  14.543  20.096  0.00  0.00    +0.000 A 
ATOM     14  C   UNL     1      -1.992  14.366  20.499  0.00  0.00    +0.000 A 
ATOM     15 CL   UNL     1      -2.944  15.727  20.939  0.00  0.00    +0.000 Cl
ATOM     16  C   UNL     1      -2.534  13.088  20.531  0.00  0.00    +0.000 A 
ATOM     17  C   UNL     1      -1.766  11.993  20.095  0.00  0.00    +0.000 A 
ATOM     18  C   UNL     1      -0.458  12.142  19.623  0.00  0.00    +0.000 A 
ATOM     19  N   UNL     1       0.237  11.104  19.109  0.00  0.00    +0.000 NA
ATOM     20  H   UNL     1       3.183  10.598  18.000  0.00  0.00    +0.000 HD
ENDBRANCH   6   8
BRANCH   1  24
ATOM     21  C   UNL     1       5.710   4.345  15.150  0.00  0.00    +0.000 A 
ATOM     22  C   UNL     1       5.796   5.710  15.429  0.00  0.00    +0.000 A 
ATOM     23  C   UNL     1       5.129   6.259  16.524  0.00  0.00    +0.000 A 
ATOM     24  C   UNL     1       4.444   5.448  17.425  0.00  0.00    +0.000 A 
ATOM     25  C   UNL     1       4.316   4.082  17.130  0.00  0.00    +0.000 A 
ATOM     26  C   UNL     1       4.931   3.541  15.988  0.00  0.00    +0.000 A 
BRANCH  21  29
ATOM     27  C   UNL     1       5.723   3.486  12.820  0.00  0.00    +0.000 C 
ATOM     28  O   UNL     1       4.586   3.804  12.492  0.00  0.00    +0.000 OA
ATOM     29  N   UNL     1       6.342   3.765  14.025  0.00  0.00    +0.000 N 
ATOM     30  H   UNL     1       7.335   3.592  14.106  0.00  0.00    +0.000 HD
BRANCH  27  32
ATOM     31  C   UNL     1       6.160   1.613  11.311  0.00  0.00    +0.000 C 
ATOM     32  C   UNL     1       6.602   2.750  11.866  0.00  0.00    +0.000 C 
ENDBRANCH  27  32
ENDBRANCH  21  29
ENDBRANCH   1  24
TORSDOF 4
ENDMDL
MODEL 6
REMARK VINA RESULT:      -7.3      2.380      3.338
REMARK  Name = 
REMARK  4 active torsions:
REMARK  status: ('A' for Active; 'I' for Inactive)
REMARK    1  A    between atoms: C_2  and  C_3
REMARK    2  A    between atoms: N_5  and  C_6
REMARK    3  A    between atoms: C_9  and  C_10
REMARK    4  A    between atoms: C_15  and  N_16
REMARK                            x       y       z     vdW  Elec       q    Type
REMARK                         _______ _______ _______ _____ _____    ______ ____
ROOT
ATOM      1  C   UNL     1       3.312   6.367  19.090  0.00  0.00    +0.000 C 
ATOM      2  O   UNL     1       3.605   5.777  20.130  0.00  0.00    +0.000 OA
ATOM      3  N   UNL     1       2.430   7.438  19.064  0.00  0.00    +0.000 N 
ATOM      4  C   UNL     1       1.824   7.919  20.289  0.00  0.00    +0.000 C 
ATOM      5  C   UNL     1       0.672   8.781  19.797  0.00  0.00    +0.000 C 
ATOM      6  C   UNL     1       1.181   9.418  18.488  0.00  0.00    +0.000 C 
ATOM      7  C   UNL     1       2.332   8.487  18.049  0.00  0.00    +0.000 C 
ENDROOT
BRANCH   6   8
ATOM      8  N   UNL     1       1.639  10.771  18.725  0.00  0.00    +0.000 N 
ATOM      9  C   UNL     1       1.225  11.510  19.810  0.00  0.00    +0.000 A 
ATOM     10  N   UNL     1       1.830  12.695  19.912  0.00  0.00    +0.000 NA
ATOM     11  C   UNL     1       1.305  13.571  20.786  0.00  0.00    +0.000 A 
ATOM     12  C   UNL     1       0.221  13.296  21.595  0.00  0.00    +0.000 A 
ATOM     13  C   UNL     1      -0.367  14.264  22.435  0.00  0.00    +0.000 A 
ATOM     14  C   UNL     1      -1.439  13.910  23.243  0.00  0.00    +0.000 A 
ATOM     15 CL   UNL     1      -2.207  15.099  24.217  0.00  0.00    +0.000 Cl
ATOM     16  C   UNL     1      -1.891  12.597  23.248  0.00  0.00    +0.000 A 
ATOM     17  C   UNL     1      -1.302  11.653  22.389  0.00  0.00    +0.000 A 
ATOM     18  C   UNL     1      -0.262  11.987  21.515  0.00  0.00    +0.000 A 
ATOM     19  N   UNL     1       0.230  11.104  20.619  0.00  0.00    +0.000 NA
ATOM     20  H   UNL     1       2.580  11.036  18.467  0.00  0.00    +0.000 HD
ENDBRANCH   6   8
BRANCH   1  24
ATOM     21  C   UNL     1       5.072   4.924  15.417  0.00  0.00    +0.000 A 
ATOM     22  C   UNL     1       5.145   6.276  15.760  0.00  0.00    +0.000 A 
ATOM     23  C   UNL     1       4.533   6.752  16.921  0.00  0.00    +0.000 A 
ATOM     24  C   UNL     1       3.921   5.880  17.817  0.00  0.00    +0.000 A 
ATOM     25  C   UNL     1       3.805   4.528  17.459  0.00  0.00    +0.000 A 
ATOM     26  C   UNL     1       4.361   4.061  16.256  0.00  0.00    +0.000 A 
BRANCH  21  29
ATOM     27  C   UNL     1       6.930   4.685  13.786  0.00  0.00    +0.000 C 
ATOM     28  O   UNL     1       7.802   5.288  14.400  0.00  0.00    +0.000 OA
ATOM     29  N   UNL     1       5.647   4.417  14.228  0.00  0.00    +0.000 N 
ATOM     30  H   UNL     1       5.081   3.769  13.695  0.00  0.00    +0.000 HD
BRANCH  27  32
ATOM     31  C   UNL     1       6.411   3.175  11.936  0.00  0.00    +0.000 C 
ATOM     32  C   UNL     1       7.214   4.125  12.434  0.00  0.00    +0.000 C 
ENDBRANCH  27  32
ENDBRANCH  21  29
ENDBRANCH   1  24
TORSDOF 4
ENDMDL
MODEL 7
REMARK VINA RESULT:      -7.2      2.397      3.499
REMARK  Name = 
REMARK  4 active torsions:
REMARK  status: ('A' for Active; 'I' for Inactive)
REMARK    1  A    between atoms: C_2  and  C_3
REMARK    2  A    between atoms: N_5  and  C_6
REMARK    3  A    between atoms: C_9  and  C_10
REMARK    4  A    between atoms: C_15  and  N_16
REMARK                            x       y       z     vdW  Elec       q    Type
REMARK                         _______ _______ _______ _____ _____    ______ ____
ROOT
ATOM      1  C   UNL     1       3.202   6.554  19.008  0.00  0.00    +0.000 C 
ATOM      2  O   UNL     1       3.440   6.031  20.096  0.00  0.00    +0.000 OA
ATOM      3  N   UNL     1       2.357   7.647  18.875  0.00  0.00    +0.000 N 
ATOM      4  C   UNL     1       1.726   8.231  20.040  0.00  0.00    +0.000 C 
ATOM      5  C   UNL     1       0.620   9.091  19.448  0.00  0.00    +0.000 C 
ATOM      6  C   UNL     1       1.195   9.618  18.118  0.00  0.00    +0.000 C 
ATOM      7  C   UNL     1       2.329   8.624  17.786  0.00  0.00    +0.000 C 
ENDROOT
BRANCH   6   8
ATOM      8  N   UNL     1       1.688  10.970  18.276  0.00  0.00    +0.000 N 
ATOM      9  C   UNL     1       1.003  11.925  18.992  0.00  0.00    +0.000 A 
ATOM     10  N   UNL     1       1.661  13.080  19.110  0.00  0.00    +0.000 NA
ATOM     11  C   UNL     1       0.964  14.133  19.568  0.00  0.00    +0.000 A 
ATOM     12  C   UNL     1      -0.359  14.070  19.956  0.00  0.00    +0.000 A 
ATOM     13  C   UNL     1      -1.094  15.208  20.346  0.00  0.00    +0.000 A 
ATOM     14  C   UNL     1      -2.414  15.067  20.750  0.00  0.00    +0.000 A 
ATOM     15 CL   UNL     1      -3.338  16.457  21.159  0.00  0.00    +0.000 Cl
ATOM     16  C   UNL     1      -2.984  13.802  20.808  0.00  0.00    +0.000 A 
ATOM     17  C   UNL     1      -2.238  12.682  20.397  0.00  0.00    +0.000 A 
ATOM     18  C   UNL     1      -0.927  12.793  19.924  0.00  0.00    +0.000 A 
ATOM     19  N   UNL     1      -0.253  11.730  19.434  0.00  0.00    +0.000 NA
ATOM     20  H   UNL     1       2.683  11.138  18.342  0.00  0.00    +0.000 HD
ENDBRANCH   6   8
BRANCH   1  24
ATOM     21  C   UNL     1       5.037   4.802  15.510  0.00  0.00    +0.000 A 
ATOM     22  C   UNL     1       5.214   6.155  15.807  0.00  0.00    +0.000 A 
ATOM     23  C   UNL     1       4.581   6.734  16.907  0.00  0.00    +0.000 A 
ATOM     24  C   UNL     1       3.839   5.960  17.795  0.00  0.00    +0.000 A 
ATOM     25  C   UNL     1       3.619   4.610  17.481  0.00  0.00    +0.000 A 
ATOM     26  C   UNL     1       4.200   4.043  16.334  0.00  0.00    +0.000 A 
BRANCH  21  29
ATOM     27  C   UNL     1       6.845   4.560  13.825  0.00  0.00    +0.000 C 
ATOM     28  O   UNL     1       7.645   5.366  14.286  0.00  0.00    +0.000 OA
ATOM     29  N   UNL     1       5.632   4.195  14.380  0.00  0.00    +0.000 N 
ATOM     30  H   UNL     1       5.145   3.400  13.987  0.00  0.00    +0.000 HD
BRANCH  27  32
ATOM     31  C   UNL     1       6.178   3.166  11.932  0.00  0.00    +0.000 C 
ATOM     32  C   UNL     1       7.154   3.836  12.559  0.00  0.00    +0.000 C 
ENDBRANCH  27  32
ENDBRANCH  21  29
ENDBRANCH   1  24
TORSDOF 4
ENDMDL
MODEL 8
REMARK VINA RESULT:      -7.1      5.844      8.107
REMARK  Name = 
REMARK  4 active torsions:
REMARK  status: ('A' for Active; 'I' for Inactive)
REMARK    1  A    between atoms: C_2  and  C_3
REMARK    2  A    between atoms: N_5  and  C_6
REMARK    3  A    between atoms: C_9  and  C_10
REMARK    4  A    between atoms: C_15  and  N_16
REMARK                            x       y       z     vdW  Elec       q    Type
REMARK                         _______ _______ _______ _____ _____    ______ ____
ROOT
ATOM      1  C   UNL     1       0.197  11.291  19.642  0.00  0.00    +0.000 C 
ATOM      2  O   UNL     1      -0.911  11.220  20.174  0.00  0.00    +0.000 OA
ATOM      3  N   UNL     1       0.779  12.501  19.292  0.00  0.00    +0.000 N 
ATOM      4  C   UNL     1       0.096  13.749  19.561  0.00  0.00    +0.000 C 
ATOM      5  C   UNL     1       0.842  14.753  18.697  0.00  0.00    +0.000 C 
ATOM      6  C   UNL     1       2.306  14.269  18.698  0.00  0.00    +0.000 C 
ATOM      7  C   UNL     1       2.201  12.779  19.089  0.00  0.00    +0.000 C 
ENDROOT
BRANCH   6   8
ATOM      8  N   UNL     1       3.092  15.024  19.650  0.00  0.00    +0.000 N 
ATOM      9  C   UNL     1       4.447  15.214  19.500  0.00  0.00    +0.000 A 
ATOM     10  N   UNL     1       4.980  16.019  20.421  0.00  0.00    +0.000 NA
ATOM     11  C   UNL     1       6.321  16.051  20.497  0.00  0.00    +0.000 A 
ATOM     12  C   UNL     1       7.157  15.342  19.659  0.00  0.00    +0.000 A 
ATOM     13  C   UNL     1       8.558  15.321  19.818  0.00  0.00    +0.000 A 
ATOM     14  C   UNL     1       9.340  14.608  18.921  0.00  0.00    +0.000 A 
ATOM     15 CL   UNL     1      11.041  14.519  19.149  0.00  0.00    +0.000 Cl
ATOM     16  C   UNL     1       8.739  13.959  17.850  0.00  0.00    +0.000 A 
ATOM     17  C   UNL     1       7.339  13.978  17.720  0.00  0.00    +0.000 A 
ATOM     18  C   UNL     1       6.514  14.633  18.640  0.00  0.00    +0.000 A 
ATOM     19  N   UNL     1       5.167  14.560  18.570  0.00  0.00    +0.000 NA
ATOM     20  H   UNL     1       2.683  15.820  20.121  0.00  0.00    +0.000 HD
ENDBRANCH   6   8
BRANCH   1  24
ATOM     21  C   UNL     1       2.275   7.590  18.832  0.00  0.00    +0.000 A 
ATOM     22  C   UNL     1       1.960   8.473  17.797  0.00  0.00    +0.000 A 
ATOM     23  C   UNL     1       1.245   9.644  18.050  0.00  0.00    +0.000 A 
ATOM     24  C   UNL     1       0.913  10.013  19.350  0.00  0.00    +0.000 A 
ATOM     25  C   UNL     1       1.185   9.112  20.391  0.00  0.00    +0.000 A 
ATOM     26  C   UNL     1       1.845   7.899  20.126  0.00  0.00    +0.000 A 
BRANCH  21  29
ATOM     27  C   UNL     1       4.085   6.234  17.806  0.00  0.00    +0.000 C 
ATOM     28  O   UNL     1       4.727   7.137  17.282  0.00  0.00    +0.000 OA
ATOM     29  N   UNL     1       2.964   6.376  18.603  0.00  0.00    +0.000 N 
ATOM     30  H   UNL     1       2.628   5.566  19.108  0.00  0.00    +0.000 HD
BRANCH  27  32
ATOM     31  C   UNL     1       5.095   4.435  16.496  0.00  0.00    +0.000 C 
ATOM     32  C   UNL     1       4.513   4.816  17.641  0.00  0.00    +0.000 C 
ENDBRANCH  27  32
ENDBRANCH  21  29
ENDBRANCH   1  24
TORSDOF 4
ENDMDL
MODEL 9
REMARK VINA RESULT:      -7.1      6.946      8.689
REMARK  Name = 
REMARK  4 active torsions:
REMARK  status: ('A' for Active; 'I' for Inactive)
REMARK    1  A    between atoms: C_2  and  C_3
REMARK    2  A    between atoms: N_5  and  C_6
REMARK    3  A    between atoms: C_9  and  C_10
REMARK    4  A    between atoms: C_15  and  N_16
REMARK                            x       y       z     vdW  Elec       q    Type
REMARK                         _______ _______ _______ _____ _____    ______ ____
ROOT
ATOM      1  C   UNL     1       9.981  14.357  19.586  0.00  0.00    +0.000 C 
ATOM      2  O   UNL     1      11.065  14.784  19.188  0.00  0.00    +0.000 OA
ATOM      3  N   UNL     1       9.019  15.180  20.154  0.00  0.00    +0.000 N 
ATOM      4  C   UNL     1       9.257  16.602  20.286  0.00  0.00    +0.000 C 
ATOM      5  C   UNL     1       8.193  17.046  21.278  0.00  0.00    +0.000 C 
ATOM      6  C   UNL     1       6.974  16.149  20.983  0.00  0.00    +0.000 C 
ATOM      7  C   UNL     1       7.580  14.933  20.250  0.00  0.00    +0.000 C 
ENDROOT
BRANCH   6   8
ATOM      8  N   UNL     1       6.011  16.852  20.163  0.00  0.00    +0.000 N 
ATOM      9  C   UNL     1       4.708  16.426  20.028  0.00  0.00    +0.000 A 
ATOM     10  N   UNL     1       3.946  17.255  19.313  0.00  0.00    +0.000 NA
ATOM     11  C   UNL     1       2.745  16.793  18.925  0.00  0.00    +0.000 A 
ATOM     12  C   UNL     1       2.255  15.547  19.258  0.00  0.00    +0.000 A 
ATOM     13  C   UNL     1       1.033  15.051  18.761  0.00  0.00    +0.000 A 
ATOM     14  C   UNL     1       0.587  13.799  19.160  0.00  0.00    +0.000 A 
ATOM     15 CL   UNL     1      -0.866  13.157  18.505  0.00  0.00    +0.000 Cl
ATOM     16  C   UNL     1       1.328  13.066  20.078  0.00  0.00    +0.000 A 
ATOM     17  C   UNL     1       2.554  13.572  20.547  0.00  0.00    +0.000 A 
ATOM     18  C   UNL     1       3.066  14.802  20.119  0.00  0.00    +0.000 A 
ATOM     19  N   UNL     1       4.290  15.234  20.491  0.00  0.00    +0.000 NA
ATOM     20  H   UNL     1       6.053  17.859  20.088  0.00  0.00    +0.000 HD
ENDBRANCH   6   8
BRANCH   1  24
ATOM     21  C   UNL     1       9.226  10.120  19.199  0.00  0.00    +0.000 A 
ATOM     22  C   UNL     1       9.290  10.721  20.458  0.00  0.00    +0.000 A 
ATOM     23  C   UNL     1       9.585  12.079  20.586  0.00  0.00    +0.000 A 
ATOM     24  C   UNL     1       9.723  12.891  19.464  0.00  0.00    +0.000 A 
ATOM     25  C   UNL     1       9.703  12.288  18.197  0.00  0.00    +0.000 A 
ATOM     26  C   UNL     1       9.475  10.907  18.071  0.00  0.00    +0.000 A 
BRANCH  21  29
ATOM     27  C   UNL     1       8.039   8.197  18.169  0.00  0.00    +0.000 C 
ATOM     28  O   UNL     1       7.388   8.803  17.326  0.00  0.00    +0.000 OA
ATOM     29  N   UNL     1       8.969   8.738  19.037  0.00  0.00    +0.000 N 
ATOM     30  H   UNL     1       9.555   8.106  19.568  0.00  0.00    +0.000 HD
BRANCH  27  32
ATOM     31  C   UNL     1       7.260   6.029  17.354  0.00  0.00    +0.000 C 
ATOM     32  C   UNL     1       7.891   6.720  18.312  0.00  0.00    +0.000 C 
ENDBRANCH  27  32
ENDBRANCH  21  29
ENDBRANCH   1  24
TORSDOF 4
ENDMDL
