MODEL 1
REMARK VINA RESULT:      -9.0      0.000      0.000
REMARK  Name = 
REMARK  6 active torsions:
REMARK  status: ('A' for Active; 'I' for Inactive)
REMARK    1  A    between atoms: C_2  and  C_26
REMARK    2  A    between atoms: C_7  and  C_8
REMARK    3  A    between atoms: C_8  and  O_9
REMARK    4  A    between atoms: C_8  and  C_19
REMARK    5  A    between atoms: O_9  and  C_10
REMARK    6  A    between atoms: C_10  and  C_11
REMARK                            x       y       z     vdW  Elec       q    Type
REMARK                         _______ _______ _______ _____ _____    ______ ____
ROOT
ATOM      1  C   UNL     1       3.006   5.953  18.466  0.00  0.00    +0.000 C 
ENDROOT
BRANCH   1   8
ATOM      2  O   UNL     1      -0.443  11.255  18.798  0.00  0.00    +0.000 OA
ATOM      3  C   UNL     1      -0.363  10.974  19.992  0.00  0.00    +0.000 C 
ATOM      4  N   UNL     1       0.432   9.964  20.512  0.00  0.00    +0.000 N 
ATOM      5  C   UNL     1       1.203   9.197  19.681  0.00  0.00    +0.000 A 
ATOM      6  N   UNL     1       1.494   9.431  18.431  0.00  0.00    +0.000 NA
ATOM      7  C   UNL     1       2.146   8.349  17.900  0.00  0.00    +0.000 A 
ATOM      8  C   UNL     1       2.398   7.299  18.765  0.00  0.00    +0.000 A 
ATOM      9  S   UNL     1       1.821   7.742  20.335  0.00  0.00    +0.000 S 
ATOM     10  H   UNL     1       0.344   9.696  21.479  0.00  0.00    +0.000 HD
BRANCH   3  11
ATOM     11  C   UNL     1      -1.195  11.689  20.955  0.00  0.00    +0.000 A 
ATOM     12  C   UNL     1      -1.041  11.651  22.331  0.00  0.00    +0.000 A 
ATOM     13  C   UNL     1      -2.023  12.415  23.020  0.00  0.00    +0.000 A 
ATOM     14  C   UNL     1      -2.903  13.013  22.148  0.00  0.00    +0.000 A 
ATOM     15  S   UNL     1      -2.524  12.671  20.512  0.00  0.00    +0.000 S 
ENDBRANCH   3  11
ENDBRANCH   1   8
BRANCH   1  16
ATOM     16  C   UNL     1       2.190   4.780  19.003  0.00  0.00    +0.000 A 
ATOM     17  C   UNL     1       1.581   3.876  18.120  0.00  0.00    +0.000 A 
ATOM     18  C   UNL     1       0.927   2.740  18.607  0.00  0.00    +0.000 A 
ATOM     19  C   UNL     1       0.854   2.505  19.978  0.00  0.00    +0.000 A 
ATOM     20  C   UNL     1       1.448   3.396  20.865  0.00  0.00    +0.000 A 
ATOM     21  C   UNL     1       2.122   4.515  20.382  0.00  0.00    +0.000 A 
ENDBRANCH   1  16
BRANCH   1  22
ATOM     22  O   UNL     1       4.312   5.975  19.075  0.00  0.00    +0.000 OA
BRANCH  22  23
ATOM     23  C   UNL     1       5.084   4.806  18.784  0.00  0.00    +0.000 C 
BRANCH  23  24
ATOM     24  C   UNL     1       5.581   4.826  17.361  0.00  0.00    +0.000 A 
ATOM     25  C   UNL     1       4.897   4.181  16.321  0.00  0.00    +0.000 A 
ATOM     26  C   UNL     1       5.437   4.162  15.032  0.00  0.00    +0.000 A 
ATOM     27  C   UNL     1       6.656   4.783  14.782  0.00  0.00    +0.000 A 
ATOM     28  F   UNL     1       7.176   4.746  13.550  0.00  0.00    +0.000 F 
ATOM     29  C   UNL     1       7.348   5.431  15.795  0.00  0.00    +0.000 A 
ATOM     30  C   UNL     1       6.807   5.442  17.075  0.00  0.00    +0.000 A 
ATOM     31  F   UNL     1       7.490   6.054  18.054  0.00  0.00    +0.000 F 
ENDBRANCH  23  24
ENDBRANCH  22  23
ENDBRANCH   1  22
TORSDOF 6
ENDMDL
MODEL 2
REMARK VINA RESULT:      -8.9      1.045      1.445
REMARK  Name = 
REMARK  6 active torsions:
REMARK  status: ('A' for Active; 'I' for Inactive)
REMARK    1  A    between atoms: C_2  and  C_26
REMARK    2  A    between atoms: C_7  and  C_8
REMARK    3  A    between atoms: C_8  and  O_9
REMARK    4  A    between atoms: C_8  and  C_19
REMARK    5  A    between atoms: O_9  and  C_10
REMARK    6  A    between atoms: C_10  and  C_11
REMARK                            x       y       z     vdW  Elec       q    Type
REMARK                         _______ _______ _______ _____ _____    ______ ____
ROOT
ATOM      1  C   UNL     1       3.030   5.974  18.668  0.00  0.00    +0.000 C 
ENDROOT
BRANCH   1   8
ATOM      2  O   UNL     1      -0.460  11.258  18.568  0.00  0.00    +0.000 OA
ATOM      3  C   UNL     1      -0.452  11.027  19.775  0.00  0.00    +0.000 C 
ATOM      4  N   UNL     1       0.314  10.046  20.384  0.00  0.00    +0.000 N 
ATOM      5  C   UNL     1       1.139   9.251  19.634  0.00  0.00    +0.000 A 
ATOM      6  N   UNL     1       1.506   9.436  18.396  0.00  0.00    +0.000 NA
ATOM      7  C   UNL     1       2.195   8.337  17.952  0.00  0.00    +0.000 A 
ATOM      8  C   UNL     1       2.398   7.326  18.873  0.00  0.00    +0.000 A 
ATOM      9  S   UNL     1       1.723   7.829  20.385  0.00  0.00    +0.000 S 
ATOM     10  H   UNL     1       0.168   9.817  21.354  0.00  0.00    +0.000 HD
BRANCH   3  11
ATOM     11  C   UNL     1      -1.346  11.774  20.655  0.00  0.00    +0.000 A 
ATOM     12  C   UNL     1      -2.426  12.535  20.240  0.00  0.00    +0.000 A 
ATOM     13  C   UNL     1      -3.093  13.184  21.314  0.00  0.00    +0.000 A 
ATOM     14  C   UNL     1      -2.500  12.900  22.523  0.00  0.00    +0.000 A 
ATOM     15  S   UNL     1      -1.165  11.839  22.355  0.00  0.00    +0.000 S 
ENDBRANCH   3  11
ENDBRANCH   1   8
BRANCH   1  16
ATOM     16  C   UNL     1       2.148   4.811  19.114  0.00  0.00    +0.000 A 
ATOM     17  C   UNL     1       1.557   3.964  18.164  0.00  0.00    +0.000 A 
ATOM     18  C   UNL     1       0.839   2.835  18.570  0.00  0.00    +0.000 A 
ATOM     19  C   UNL     1       0.684   2.551  19.925  0.00  0.00    +0.000 A 
ATOM     20  C   UNL     1       1.259   3.385  20.877  0.00  0.00    +0.000 A 
ATOM     21  C   UNL     1       1.996   4.497  20.476  0.00  0.00    +0.000 A 
ENDBRANCH   1  16
BRANCH   1  22
ATOM     22  O   UNL     1       4.251   5.997  19.435  0.00  0.00    +0.000 OA
BRANCH  22  23
ATOM     23  C   UNL     1       5.067   4.842  19.222  0.00  0.00    +0.000 C 
BRANCH  23  24
ATOM     24  C   UNL     1       5.707   4.875  17.858  0.00  0.00    +0.000 A 
ATOM     25  C   UNL     1       6.632   5.863  17.490  0.00  0.00    +0.000 A 
ATOM     26  C   UNL     1       7.141   5.897  16.189  0.00  0.00    +0.000 A 
ATOM     27  C   UNL     1       6.727   4.952  15.257  0.00  0.00    +0.000 A 
ATOM     28  F   UNL     1       7.204   5.001  14.008  0.00  0.00    +0.000 F 
ATOM     29  C   UNL     1       5.815   3.963  15.600  0.00  0.00    +0.000 A 
ATOM     30  C   UNL     1       5.310   3.938  16.894  0.00  0.00    +0.000 A 
ATOM     31  F   UNL     1       4.415   2.992  17.215  0.00  0.00    +0.000 F 
ENDBRANCH  23  24
ENDBRANCH  22  23
ENDBRANCH   1  22
TORSDOF 6
ENDMDL
MODEL 3
REMARK VINA RESULT:      -8.9      2.501      5.189
REMARK  Name = 
REMARK  6 active torsions:
REMARK  status: ('A' for Active; 'I' for Inactive)
REMARK    1  A    between atoms: C_2  and  C_26
REMARK    2  A    between atoms: C_7  and  C_8
REMARK    3  A    between atoms: C_8  and  O_9
REMARK    4  A    between atoms: C_8  and  C_19
REMARK    5  A    between atoms: O_9  and  C_10
REMARK    6  A    between atoms: C_10  and  C_11
REMARK                            x       y       z     vdW  Elec       q    Type
REMARK                         _______ _______ _______ _____ _____    ______ ____
ROOT
ATOM      1  C   UNL     1       4.259   4.232  17.441  0.00  0.00    +0.000 C 
ENDROOT
BRANCH   1   8
ATOM      2  O   UNL     1       1.036   9.511  18.801  0.00  0.00    +0.000 OA
ATOM      3  C   UNL     1       1.204   9.063  19.934  0.00  0.00    +0.000 C 
ATOM      4  N   UNL     1       2.003   7.972  20.238  0.00  0.00    +0.000 N 
ATOM      5  C   UNL     1       2.676   7.312  19.245  0.00  0.00    +0.000 A 
ATOM      6  N   UNL     1       2.872   7.714  18.020  0.00  0.00    +0.000 NA
ATOM      7  C   UNL     1       3.440   6.702  17.290  0.00  0.00    +0.000 A 
ATOM      8  C   UNL     1       3.725   5.535  17.975  0.00  0.00    +0.000 A 
ATOM      9  S   UNL     1       3.294   5.765  19.635  0.00  0.00    +0.000 S 
ATOM     10  H   UNL     1       1.985   7.572  21.162  0.00  0.00    +0.000 HD
BRANCH   3  11
ATOM     11  C   UNL     1       0.478   9.654  21.055  0.00  0.00    +0.000 A 
ATOM     12  C   UNL     1       0.010   8.962  22.159  0.00  0.00    +0.000 A 
ATOM     13  C   UNL     1      -0.696   9.790  23.074  0.00  0.00    +0.000 A 
ATOM     14  C   UNL     1      -0.750  11.095  22.638  0.00  0.00    +0.000 A 
ATOM     15  S   UNL     1       0.070  11.313  21.150  0.00  0.00    +0.000 S 
ENDBRANCH   3  11
ENDBRANCH   1   8
BRANCH   1  16
ATOM     16  C   UNL     1       5.330   4.403  16.368  0.00  0.00    +0.000 A 
ATOM     17  C   UNL     1       5.059   4.061  15.034  0.00  0.00    +0.000 A 
ATOM     18  C   UNL     1       5.999   4.318  14.031  0.00  0.00    +0.000 A 
ATOM     19  C   UNL     1       7.225   4.899  14.349  0.00  0.00    +0.000 A 
ATOM     20  C   UNL     1       7.509   5.237  15.667  0.00  0.00    +0.000 A 
ATOM     21  C   UNL     1       6.565   5.005  16.665  0.00  0.00    +0.000 A 
ENDBRANCH   1  16
BRANCH   1  22
ATOM     22  O   UNL     1       3.116   3.537  16.902  0.00  0.00    +0.000 OA
BRANCH  22  23
ATOM     23  C   UNL     1       2.930   2.240  17.474  0.00  0.00    +0.000 C 
BRANCH  23  24
ATOM     24  C   UNL     1       2.369   2.339  18.869  0.00  0.00    +0.000 A 
ATOM     25  C   UNL     1       1.034   2.692  19.115  0.00  0.00    +0.000 A 
ATOM     26  C   UNL     1       0.579   2.846  20.427  0.00  0.00    +0.000 A 
ATOM     27  C   UNL     1       1.453   2.652  21.492  0.00  0.00    +0.000 A 
ATOM     28  F   UNL     1       1.017   2.818  22.745  0.00  0.00    +0.000 F 
ATOM     29  C   UNL     1       2.778   2.299  21.272  0.00  0.00    +0.000 A 
ATOM     30  C   UNL     1       3.224   2.151  19.965  0.00  0.00    +0.000 A 
ATOM     31  F   UNL     1       4.509   1.828  19.758  0.00  0.00    +0.000 F 
ENDBRANCH  23  24
ENDBRANCH  22  23
ENDBRANCH   1  22
TORSDOF 6
ENDMDL
MODEL 4
REMARK VINA RESULT:      -8.9      1.878      2.165
REMARK  Name = 
REMARK  6 active torsions:
REMARK  status: ('A' for Active; 'I' for Inactive)
REMARK    1  A    between atoms: C_2  and  C_26
REMARK    2  A    between atoms: C_7  and  C_8
REMARK    3  A    between atoms: C_8  and  O_9
REMARK    4  A    between atoms: C_8  and  C_19
REMARK    5  A    between atoms: O_9  and  C_10
REMARK    6  A    between atoms: C_10  and  C_11
REMARK                            x       y       z     vdW  Elec       q    Type
REMARK                         _______ _______ _______ _____ _____    ______ ____
ROOT
ATOM      1  C   UNL     1       2.871   6.075  18.801  0.00  0.00    +0.000 C 
ENDROOT
BRANCH   1   8
ATOM      2  O   UNL     1       1.028  11.552  21.390  0.00  0.00    +0.000 OA
ATOM      3  C   UNL     1       0.960  11.843  20.198  0.00  0.00    +0.000 C 
ATOM      4  N   UNL     1       1.112  10.941  19.157  0.00  0.00    +0.000 N 
ATOM      5  C   UNL     1       1.355   9.620  19.421  0.00  0.00    +0.000 A 
ATOM      6  N   UNL     1       1.233   9.005  20.565  0.00  0.00    +0.000 NA
ATOM      7  C   UNL     1       1.730   7.732  20.459  0.00  0.00    +0.000 A 
ATOM      8  C   UNL     1       2.193   7.356  19.211  0.00  0.00    +0.000 A 
ATOM      9  S   UNL     1       1.928   8.671  18.118  0.00  0.00    +0.000 S 
ATOM     10  H   UNL     1       1.185  11.269  18.208  0.00  0.00    +0.000 HD
BRANCH   3  11
ATOM     11  C   UNL     1       0.770  13.238  19.809  0.00  0.00    +0.000 A 
ATOM     12  C   UNL     1      -0.163  13.694  18.893  0.00  0.00    +0.000 A 
ATOM     13  C   UNL     1      -0.093  15.099  18.683  0.00  0.00    +0.000 A 
ATOM     14  C   UNL     1       0.897  15.676  19.445  0.00  0.00    +0.000 A 
ATOM     15  S   UNL     1       1.712  14.528  20.422  0.00  0.00    +0.000 S 
ENDBRANCH   3  11
ENDBRANCH   1   8
BRANCH   1  16
ATOM     16  C   UNL     1       2.093   4.819  19.186  0.00  0.00    +0.000 A 
ATOM     17  C   UNL     1       1.626   3.942  18.196  0.00  0.00    +0.000 A 
ATOM     18  C   UNL     1       1.009   2.738  18.550  0.00  0.00    +0.000 A 
ATOM     19  C   UNL     1       0.833   2.406  19.891  0.00  0.00    +0.000 A 
ATOM     20  C   UNL     1       1.285   3.269  20.882  0.00  0.00    +0.000 A 
ATOM     21  C   UNL     1       1.922   4.458  20.534  0.00  0.00    +0.000 A 
ENDBRANCH   1  16
BRANCH   1  22
ATOM     22  O   UNL     1       4.154   6.089  19.457  0.00  0.00    +0.000 OA
BRANCH  22  23
ATOM     23  C   UNL     1       4.928   4.915  19.196  0.00  0.00    +0.000 C 
BRANCH  23  24
ATOM     24  C   UNL     1       5.502   4.944  17.803  0.00  0.00    +0.000 A 
ATOM     25  C   UNL     1       5.006   4.132  16.773  0.00  0.00    +0.000 A 
ATOM     26  C   UNL     1       5.621   4.138  15.517  0.00  0.00    +0.000 A 
ATOM     27  C   UNL     1       6.727   4.949  15.290  0.00  0.00    +0.000 A 
ATOM     28  F   UNL     1       7.322   4.938  14.092  0.00  0.00    +0.000 F 
ATOM     29  C   UNL     1       7.233   5.764  16.294  0.00  0.00    +0.000 A 
ATOM     30  C   UNL     1       6.619   5.750  17.541  0.00  0.00    +0.000 A 
ATOM     31  F   UNL     1       7.124   6.525  18.512  0.00  0.00    +0.000 F 
ENDBRANCH  23  24
ENDBRANCH  22  23
ENDBRANCH   1  22
TORSDOF 6
ENDMDL
MODEL 5
REMARK VINA RESULT:      -8.9      2.106      2.508
REMARK  Name = 
REMARK  6 active torsions:
REMARK  status: ('A' for Active; 'I' for Inactive)
REMARK    1  A    between atoms: C_2  and  C_26
REMARK    2  A    between atoms: C_7  and  C_8
REMARK    3  A    between atoms: C_8  and  O_9
REMARK    4  A    between atoms: C_8  and  C_19
REMARK    5  A    between atoms: O_9  and  C_10
REMARK    6  A    between atoms: C_10  and  C_11
REMARK                            x       y       z     vdW  Elec       q    Type
REMARK                         _______ _______ _______ _____ _____    ______ ____
ROOT
ATOM      1  C   UNL     1       2.896   6.061  18.759  0.00  0.00    +0.000 C 
ENDROOT
BRANCH   1   8
ATOM      2  O   UNL     1       1.039  11.601  21.203  0.00  0.00    +0.000 OA
ATOM      3  C   UNL     1       1.035  11.880  20.006  0.00  0.00    +0.000 C 
ATOM      4  N   UNL     1       1.220  10.964  18.983  0.00  0.00    +0.000 N 
ATOM      5  C   UNL     1       1.423   9.642  19.271  0.00  0.00    +0.000 A 
ATOM      6  N   UNL     1       1.233   9.041  20.413  0.00  0.00    +0.000 NA
ATOM      7  C   UNL     1       1.710   7.758  20.343  0.00  0.00    +0.000 A 
ATOM      8  C   UNL     1       2.224   7.359  19.123  0.00  0.00    +0.000 A 
ATOM      9  S   UNL     1       2.040   8.668  18.006  0.00  0.00    +0.000 S 
ATOM     10  H   UNL     1       1.346  11.280  18.035  0.00  0.00    +0.000 HD
BRANCH   3  11
ATOM     11  C   UNL     1       0.892  13.274  19.595  0.00  0.00    +0.000 A 
ATOM     12  C   UNL     1      -0.291  13.993  19.599  0.00  0.00    +0.000 A 
ATOM     13  C   UNL     1      -0.136  15.319  19.108  0.00  0.00    +0.000 A 
ATOM     14  C   UNL     1       1.165  15.574  18.740  0.00  0.00    +0.000 A 
ATOM     15  S   UNL     1       2.189  14.227  19.012  0.00  0.00    +0.000 S 
ENDBRANCH   3  11
ENDBRANCH   1   8
BRANCH   1  16
ATOM     16  C   UNL     1       2.102   4.824  19.171  0.00  0.00    +0.000 A 
ATOM     17  C   UNL     1       1.576   3.962  18.198  0.00  0.00    +0.000 A 
ATOM     18  C   UNL     1       0.943   2.773  18.572  0.00  0.00    +0.000 A 
ATOM     19  C   UNL     1       0.810   2.440  19.918  0.00  0.00    +0.000 A 
ATOM     20  C   UNL     1       1.321   3.288  20.893  0.00  0.00    +0.000 A 
ATOM     21  C   UNL     1       1.974   4.462  20.524  0.00  0.00    +0.000 A 
ENDBRANCH   1  16
BRANCH   1  22
ATOM     22  O   UNL     1       4.172   6.083  19.431  0.00  0.00    +0.000 OA
BRANCH  22  23
ATOM     23  C   UNL     1       4.929   4.887  19.230  0.00  0.00    +0.000 C 
BRANCH  23  24
ATOM     24  C   UNL     1       5.649   4.918  17.906  0.00  0.00    +0.000 A 
ATOM     25  C   UNL     1       6.590   5.907  17.590  0.00  0.00    +0.000 A 
ATOM     26  C   UNL     1       7.174   5.939  16.320  0.00  0.00    +0.000 A 
ATOM     27  C   UNL     1       6.819   4.989  15.369  0.00  0.00    +0.000 A 
ATOM     28  F   UNL     1       7.369   5.034  14.150  0.00  0.00    +0.000 F 
ATOM     29  C   UNL     1       5.892   3.997  15.662  0.00  0.00    +0.000 A 
ATOM     30  C   UNL     1       5.313   3.975  16.925  0.00  0.00    +0.000 A 
ATOM     31  F   UNL     1       4.404   3.026  17.196  0.00  0.00    +0.000 F 
ENDBRANCH  23  24
ENDBRANCH  22  23
ENDBRANCH   1  22
TORSDOF 6
ENDMDL
MODEL 6
REMARK VINA RESULT:      -8.8      2.632      5.001
REMARK  Name = 
REMARK  6 active torsions:
REMARK  status: ('A' for Active; 'I' for Inactive)
REMARK    1  A    between atoms: C_2  and  C_26
REMARK    2  A    between atoms: C_7  and  C_8
REMARK    3  A    between atoms: C_8  and  O_9
REMARK    4  A    between atoms: C_8  and  C_19
REMARK    5  A    between atoms: O_9  and  C_10
REMARK    6  A    between atoms: C_10  and  C_11
REMARK                            x       y       z     vdW  Elec       q    Type
REMARK                         _______ _______ _______ _____ _____    ______ ____
ROOT
ATOM      1  C   UNL     1       3.937   5.482  18.467  0.00  0.00    +0.000 C 
ENDROOT
BRANCH   1   8
ATOM      2  O   UNL     1       0.887  10.487  20.868  0.00  0.00    +0.000 OA
ATOM      3  C   UNL     1       1.002  10.845  19.697  0.00  0.00    +0.000 C 
ATOM      4  N   UNL     1       1.472  10.041  18.671  0.00  0.00    +0.000 N 
ATOM      5  C   UNL     1       1.846   8.749  18.924  0.00  0.00    +0.000 A 
ATOM      6  N   UNL     1       1.602   8.049  19.997  0.00  0.00    +0.000 NA
ATOM      7  C   UNL     1       2.285   6.863  19.938  0.00  0.00    +0.000 A 
ATOM      8  C   UNL     1       3.020   6.633  18.789  0.00  0.00    +0.000 A 
ATOM      9  S   UNL     1       2.780   7.972  17.719  0.00  0.00    +0.000 S 
ATOM     10  H   UNL     1       1.673  10.438  17.767  0.00  0.00    +0.000 HD
BRANCH   3  11
ATOM     11  C   UNL     1       0.692  12.225  19.335  0.00  0.00    +0.000 A 
ATOM     12  C   UNL     1       1.613  13.166  18.905  0.00  0.00    +0.000 A 
ATOM     13  C   UNL     1       1.031  14.440  18.661  0.00  0.00    +0.000 A 
ATOM     14  C   UNL     1      -0.322  14.436  18.916  0.00  0.00    +0.000 A 
ATOM     15  S   UNL     1      -0.879  12.896  19.420  0.00  0.00    +0.000 S 
ENDBRANCH   3  11
ENDBRANCH   1   8
BRANCH   1  16
ATOM     16  C   UNL     1       5.406   5.882  18.358  0.00  0.00    +0.000 A 
ATOM     17  C   UNL     1       5.827   6.771  17.358  0.00  0.00    +0.000 A 
ATOM     18  C   UNL     1       7.150   7.224  17.323  0.00  0.00    +0.000 A 
ATOM     19  C   UNL     1       8.070   6.780  18.270  0.00  0.00    +0.000 A 
ATOM     20  C   UNL     1       7.668   5.894  19.262  0.00  0.00    +0.000 A 
ATOM     21  C   UNL     1       6.346   5.460  19.316  0.00  0.00    +0.000 A 
ENDBRANCH   1  16
BRANCH   1  22
ATOM     22  O   UNL     1       3.468   4.953  17.211  0.00  0.00    +0.000 OA
BRANCH  22  23
ATOM     23  C   UNL     1       3.151   3.560  17.276  0.00  0.00    +0.000 C 
BRANCH  23  24
ATOM     24  C   UNL     1       2.539   3.206  18.607  0.00  0.00    +0.000 A 
ATOM     25  C   UNL     1       1.179   3.406  18.882  0.00  0.00    +0.000 A 
ATOM     26  C   UNL     1       0.674   3.134  20.156  0.00  0.00    +0.000 A 
ATOM     27  C   UNL     1       1.522   2.666  21.154  0.00  0.00    +0.000 A 
ATOM     28  F   UNL     1       1.036   2.424  22.377  0.00  0.00    +0.000 F 
ATOM     29  C   UNL     1       2.872   2.457  20.903  0.00  0.00    +0.000 A 
ATOM     30  C   UNL     1       3.367   2.733  19.635  0.00  0.00    +0.000 A 
ATOM     31  F   UNL     1       4.676   2.547  19.403  0.00  0.00    +0.000 F 
ENDBRANCH  23  24
ENDBRANCH  22  23
ENDBRANCH   1  22
TORSDOF 6
ENDMDL
MODEL 7
REMARK VINA RESULT:      -8.8      1.950      2.561
REMARK  Name = 
REMARK  6 active torsions:
REMARK  status: ('A' for Active; 'I' for Inactive)
REMARK    1  A    between atoms: C_2  and  C_26
REMARK    2  A    between atoms: C_7  and  C_8
REMARK    3  A    between atoms: C_8  and  O_9
REMARK    4  A    between atoms: C_8  and  C_19
REMARK    5  A    between atoms: O_9  and  C_10
REMARK    6  A    between atoms: C_10  and  C_11
REMARK                            x       y       z     vdW  Elec       q    Type
REMARK                         _______ _______ _______ _____ _____    ______ ____
ROOT
ATOM      1  C   UNL     1       3.006   5.958  18.773  0.00  0.00    +0.000 C 
ENDROOT
BRANCH   1   8
ATOM      2  O   UNL     1       1.041  11.463  21.213  0.00  0.00    +0.000 OA
ATOM      3  C   UNL     1       0.999  11.731  20.014  0.00  0.00    +0.000 C 
ATOM      4  N   UNL     1       1.187  10.811  18.995  0.00  0.00    +0.000 N 
ATOM      5  C   UNL     1       1.438   9.498  19.289  0.00  0.00    +0.000 A 
ATOM      6  N   UNL     1       1.294   8.903  20.441  0.00  0.00    +0.000 NA
ATOM      7  C   UNL     1       1.807   7.634  20.371  0.00  0.00    +0.000 A 
ATOM      8  C   UNL     1       2.304   7.240  19.142  0.00  0.00    +0.000 A 
ATOM      9  S   UNL     1       2.053   8.531  18.018  0.00  0.00    +0.000 S 
ATOM     10  H   UNL     1       1.280  11.122  18.041  0.00  0.00    +0.000 HD
BRANCH   3  11
ATOM     11  C   UNL     1       0.805  13.116  19.594  0.00  0.00    +0.000 A 
ATOM     12  C   UNL     1       1.795  13.952  19.107  0.00  0.00    +0.000 A 
ATOM     13  C   UNL     1       1.322  15.261  18.815  0.00  0.00    +0.000 A 
ATOM     14  C   UNL     1      -0.020  15.387  19.091  0.00  0.00    +0.000 A 
ATOM     15  S   UNL     1      -0.700  13.926  19.673  0.00  0.00    +0.000 S 
ENDBRANCH   3  11
ENDBRANCH   1   8
BRANCH   1  16
ATOM     16  C   UNL     1       2.244   4.702  19.186  0.00  0.00    +0.000 A 
ATOM     17  C   UNL     1       2.089   4.380  20.542  0.00  0.00    +0.000 A 
ATOM     18  C   UNL     1       1.300   3.291  20.927  0.00  0.00    +0.000 A 
ATOM     19  C   UNL     1       0.675   2.502  19.964  0.00  0.00    +0.000 A 
ATOM     20  C   UNL     1       0.825   2.806  18.617  0.00  0.00    +0.000 A 
ATOM     21  C   UNL     1       1.590   3.904  18.231  0.00  0.00    +0.000 A 
ENDBRANCH   1  16
BRANCH   1  22
ATOM     22  O   UNL     1       4.283   6.011  19.441  0.00  0.00    +0.000 OA
BRANCH  22  23
ATOM     23  C   UNL     1       5.078   4.843  19.217  0.00  0.00    +0.000 C 
BRANCH  23  24
ATOM     24  C   UNL     1       5.722   4.880  17.855  0.00  0.00    +0.000 A 
ATOM     25  C   UNL     1       6.653   5.864  17.494  0.00  0.00    +0.000 A 
ATOM     26  C   UNL     1       7.165   5.902  16.194  0.00  0.00    +0.000 A 
ATOM     27  C   UNL     1       6.748   4.964  15.256  0.00  0.00    +0.000 A 
ATOM     28  F   UNL     1       7.228   5.016  14.008  0.00  0.00    +0.000 F 
ATOM     29  C   UNL     1       5.829   3.978  15.592  0.00  0.00    +0.000 A 
ATOM     30  C   UNL     1       5.322   3.949  16.885  0.00  0.00    +0.000 A 
ATOM     31  F   UNL     1       4.421   3.006  17.199  0.00  0.00    +0.000 F 
ENDBRANCH  23  24
ENDBRANCH  22  23
ENDBRANCH   1  22
TORSDOF 6
ENDMDL
MODEL 8
REMARK VINA RESULT:      -8.8      2.250      4.661
REMARK  Name = 
REMARK  6 active torsions:
REMARK  status: ('A' for Active; 'I' for Inactive)
REMARK    1  A    between atoms: C_2  and  C_26
REMARK    2  A    between atoms: C_7  and  C_8
REMARK    3  A    between atoms: C_8  and  O_9
REMARK    4  A    between atoms: C_8  and  C_19
REMARK    5  A    between atoms: O_9  and  C_10
REMARK    6  A    between atoms: C_10  and  C_11
REMARK                            x       y       z     vdW  Elec       q    Type
REMARK                         _______ _______ _______ _____ _____    ______ ____
ROOT
ATOM      1  C   UNL     1       3.609   5.799  18.442  0.00  0.00    +0.000 C 
ENDROOT
BRANCH   1   8
ATOM      2  O   UNL     1      -0.438  10.645  17.952  0.00  0.00    +0.000 OA
ATOM      3  C   UNL     1      -0.332  10.575  19.175  0.00  0.00    +0.000 C 
ATOM      4  N   UNL     1       0.573   9.764  19.841  0.00  0.00    +0.000 N 
ATOM      5  C   UNL     1       1.433   8.966  19.136  0.00  0.00    +0.000 A 
ATOM      6  N   UNL     1       1.701   9.024  17.860  0.00  0.00    +0.000 NA
ATOM      7  C   UNL     1       2.478   7.952  17.505  0.00  0.00    +0.000 A 
ATOM      8  C   UNL     1       2.846   7.095  18.526  0.00  0.00    +0.000 A 
ATOM      9  S   UNL     1       2.213   7.720  20.010  0.00  0.00    +0.000 S 
ATOM     10  H   UNL     1       0.512   9.650  20.840  0.00  0.00    +0.000 HD
BRANCH   3  11
ATOM     11  C   UNL     1      -1.247  11.337  20.020  0.00  0.00    +0.000 A 
ATOM     12  C   UNL     1      -2.358  12.033  19.573  0.00  0.00    +0.000 A 
ATOM     13  C   UNL     1      -3.042  12.715  20.616  0.00  0.00    +0.000 A 
ATOM     14  C   UNL     1      -2.430  12.521  21.834  0.00  0.00    +0.000 A 
ATOM     15  S   UNL     1      -1.058  11.502  21.712  0.00  0.00    +0.000 S 
ENDBRANCH   3  11
ENDBRANCH   1   8
BRANCH   1  16
ATOM     16  C   UNL     1       5.121   5.983  18.344  0.00  0.00    +0.000 A 
ATOM     17  C   UNL     1       5.673   6.794  17.341  0.00  0.00    +0.000 A 
ATOM     18  C   UNL     1       7.047   7.053  17.314  0.00  0.00    +0.000 A 
ATOM     19  C   UNL     1       7.887   6.491  18.273  0.00  0.00    +0.000 A 
ATOM     20  C   UNL     1       7.354   5.681  19.269  0.00  0.00    +0.000 A 
ATOM     21  C   UNL     1       5.983   5.441  19.313  0.00  0.00    +0.000 A 
ENDBRANCH   1  16
BRANCH   1  22
ATOM     22  O   UNL     1       3.109   5.130  17.267  0.00  0.00    +0.000 OA
BRANCH  22  23
ATOM     23  C   UNL     1       3.068   3.708  17.409  0.00  0.00    +0.000 C 
BRANCH  23  24
ATOM     24  C   UNL     1       2.476   3.313  18.737  0.00  0.00    +0.000 A 
ATOM     25  C   UNL     1       1.131   3.550  19.057  0.00  0.00    +0.000 A 
ATOM     26  C   UNL     1       0.647   3.237  20.330  0.00  0.00    +0.000 A 
ATOM     27  C   UNL     1       1.501   2.691  21.282  0.00  0.00    +0.000 A 
ATOM     28  F   UNL     1       1.036   2.409  22.504  0.00  0.00    +0.000 F 
ATOM     29  C   UNL     1       2.835   2.444  20.986  0.00  0.00    +0.000 A 
ATOM     30  C   UNL     1       3.310   2.762  19.720  0.00  0.00    +0.000 A 
ATOM     31  F   UNL     1       4.604   2.539  19.446  0.00  0.00    +0.000 F 
ENDBRANCH  23  24
ENDBRANCH  22  23
ENDBRANCH   1  22
TORSDOF 6
ENDMDL
MODEL 9
REMARK VINA RESULT:      -8.8      1.779      2.178
REMARK  Name = 
REMARK  6 active torsions:
REMARK  status: ('A' for Active; 'I' for Inactive)
REMARK    1  A    between atoms: C_2  and  C_26
REMARK    2  A    between atoms: C_7  and  C_8
REMARK    3  A    between atoms: C_8  and  O_9
REMARK    4  A    between atoms: C_8  and  C_19
REMARK    5  A    between atoms: O_9  and  C_10
REMARK    6  A    between atoms: C_10  and  C_11
REMARK                            x       y       z     vdW  Elec       q    Type
REMARK                         _______ _______ _______ _____ _____    ______ ____
ROOT
ATOM      1  C   UNL     1       2.934   6.046  18.648  0.00  0.00    +0.000 C 
ENDROOT
BRANCH   1   8
ATOM      2  O   UNL     1       1.045  11.446  21.365  0.00  0.00    +0.000 OA
ATOM      3  C   UNL     1       0.972  11.764  20.180  0.00  0.00    +0.000 C 
ATOM      4  N   UNL     1       1.131  10.887  19.119  0.00  0.00    +0.000 N 
ATOM      5  C   UNL     1       1.387   9.562  19.351  0.00  0.00    +0.000 A 
ATOM      6  N   UNL     1       1.272   8.921  20.481  0.00  0.00    +0.000 NA
ATOM      7  C   UNL     1       1.781   7.655  20.345  0.00  0.00    +0.000 A 
ATOM      8  C   UNL     1       2.245   7.311  19.088  0.00  0.00    +0.000 A 
ATOM      9  S   UNL     1       1.966   8.649  18.026  0.00  0.00    +0.000 S 
ATOM     10  H   UNL     1       1.200  11.237  18.177  0.00  0.00    +0.000 HD
BRANCH   3  11
ATOM     11  C   UNL     1       0.769  13.165  19.823  0.00  0.00    +0.000 A 
ATOM     12  C   UNL     1       1.380  14.245  20.438  0.00  0.00    +0.000 A 
ATOM     13  C   UNL     1       0.962  15.496  19.907  0.00  0.00    +0.000 A 
ATOM     14  C   UNL     1       0.037  15.334  18.901  0.00  0.00    +0.000 A 
ATOM     15  S   UNL     1      -0.297  13.683  18.589  0.00  0.00    +0.000 S 
ENDBRANCH   3  11
ENDBRANCH   1   8
BRANCH   1  16
ATOM     16  C   UNL     1       2.211   4.773  19.078  0.00  0.00    +0.000 A 
ATOM     17  C   UNL     1       1.954   4.528  20.436  0.00  0.00    +0.000 A 
ATOM     18  C   UNL     1       1.197   3.419  20.825  0.00  0.00    +0.000 A 
ATOM     19  C   UNL     1       0.706   2.532  19.868  0.00  0.00    +0.000 A 
ATOM     20  C   UNL     1       0.959   2.760  18.521  0.00  0.00    +0.000 A 
ATOM     21  C   UNL     1       1.691   3.877  18.128  0.00  0.00    +0.000 A 
ENDBRANCH   1  16
BRANCH   1  22
ATOM     22  O   UNL     1       4.250   6.098  19.235  0.00  0.00    +0.000 OA
BRANCH  22  23
ATOM     23  C   UNL     1       5.025   4.924  18.974  0.00  0.00    +0.000 C 
BRANCH  23  24
ATOM     24  C   UNL     1       5.555   4.929  17.563  0.00  0.00    +0.000 A 
ATOM     25  C   UNL     1       4.994   4.137  16.551  0.00  0.00    +0.000 A 
ATOM     26  C   UNL     1       5.569   4.118  15.277  0.00  0.00    +0.000 A 
ATOM     27  C   UNL     1       6.699   4.883  15.013  0.00  0.00    +0.000 A 
ATOM     28  F   UNL     1       7.255   4.847  13.797  0.00  0.00    +0.000 F 
ATOM     29  C   UNL     1       7.268   5.678  15.999  0.00  0.00    +0.000 A 
ATOM     30  C   UNL     1       6.694   5.690  17.264  0.00  0.00    +0.000 A 
ATOM     31  F   UNL     1       7.260   6.445  18.218  0.00  0.00    +0.000 F 
ENDBRANCH  23  24
ENDBRANCH  22  23
ENDBRANCH   1  22
TORSDOF 6
ENDMDL
