MODEL 1
REMARK VINA RESULT:      -7.2      0.000      0.000
REMARK  Name = 
REMARK  13 active torsions:
REMARK  status: ('A' for Active; 'I' for Inactive)
REMARK    1  A    between atoms: C_1  and  O_2
REMARK    2  A    between atoms: O_2  and  C_3
REMARK    3  A    between atoms: C_3  and  C_5
REMARK    4  A    between atoms: C_5  and  N_6
REMARK    5  A    between atoms: N_6  and  C_7
REMARK    6  A    between atoms: C_10  and  C_11
REMARK    7  A    between atoms: C_11  and  C_12
REMARK    8  A    between atoms: C_12  and  C_13
REMARK    9  A    between atoms: C_13  and  C_15
REMARK   10  A    between atoms: C_19  and  O_20
REMARK   11  A    between atoms: O_20  and  C_21
REMARK   12  A    between atoms: C_22  and  O_23
REMARK   13  A    between atoms: O_23  and  C_24
REMARK                            x       y       z     vdW  Elec       q    Type
REMARK                         _______ _______ _______ _____ _____    ______ ____
ROOT
ATOM      1  C   UNL     1       7.883   8.012  18.007  0.00  0.00    +0.000 C 
ATOM      2  O   UNL     1       8.616   7.485  18.856  0.00  0.00    +0.000 OA
ENDROOT
BRANCH   1   3
ATOM      3  C   UNL     1       6.988   7.123  17.163  0.00  0.00    +0.000 C 
ATOM      4  C   UNL     1       5.507   7.425  17.401  0.00  0.00    +0.000 C 
ATOM      5  C   UNL     1       4.778   6.123  17.527  0.00  0.00    +0.000 A 
ATOM      6  C   UNL     1       3.430   6.012  17.829  0.00  0.00    +0.000 A 
ATOM      7  C   UNL     1       2.860   4.738  17.939  0.00  0.00    +0.000 A 
ATOM      8  C   UNL     1       3.594   3.592  17.563  0.00  0.00    +0.000 A 
ATOM      9  C   UNL     1       4.958   3.721  17.270  0.00  0.00    +0.000 A 
ATOM     10  C   UNL     1       5.546   4.978  17.340  0.00  0.00    +0.000 A 
ATOM     11  S   UNL     1       7.281   5.341  17.336  0.00  0.00    +0.000 S 
BRANCH   7  12
ATOM     12  O   UNL     1       1.583   4.562  18.415  0.00  0.00    +0.000 OA
ATOM     13  C   UNL     1       1.511   4.464  19.838  0.00  0.00    +0.000 C 
ENDBRANCH   7  12
BRANCH   8  14
ATOM     14  O   UNL     1       2.910   2.403  17.578  0.00  0.00    +0.000 OA
ATOM     15  C   UNL     1       3.334   1.406  18.499  0.00  0.00    +0.000 C 
ENDBRANCH   8  14
ENDBRANCH   1   3
BRANCH   1  16
ATOM     16  C   UNL     1       7.968   9.523  17.768  0.00  0.00    +0.000 C 
BRANCH  16  17
ATOM     17  C   UNL     1       9.055  10.130  18.682  0.00  0.00    +0.000 C 
BRANCH  17  22
ATOM     18  N   UNL     1      10.290  13.274  20.120  0.00  0.00    +0.000 N 
ATOM     19  C   UNL     1      11.298  14.363  19.739  0.00  0.00    +0.000 C 
ATOM     20  C   UNL     1      11.016  11.925  20.255  0.00  0.00    +0.000 C 
ATOM     21  C   UNL     1      11.311  11.282  18.902  0.00  0.00    +0.000 C 
ATOM     22  C   UNL     1      10.050  11.121  18.036  0.00  0.00    +0.000 C 
ATOM     23  C   UNL     1       9.480  12.521  17.813  0.00  0.00    +0.000 C 
ATOM     24  C   UNL     1       9.125  13.237  19.114  0.00  0.00    +0.000 C 
BRANCH  18  25
ATOM     25  C   UNL     1       9.691  13.618  21.560  0.00  0.00    +0.000 C 
BRANCH  25  26
ATOM     26  C   UNL     1       8.256  13.161  21.836  0.00  0.00    +0.000 C 
ATOM     27  O   UNL     1       7.260  13.850  21.643  0.00  0.00    +0.000 OA
BRANCH  26  29
ATOM     28  C   UNL     1       7.333  11.692  23.417  0.00  0.00    +0.000 C 
ATOM     29  O   UNL     1       8.254  11.900  22.329  0.00  0.00    +0.000 OA
ENDBRANCH  26  29
ENDBRANCH  25  26
ENDBRANCH  18  25
ENDBRANCH  17  22
ENDBRANCH  16  17
ENDBRANCH   1  16
TORSDOF 9
ENDMDL
MODEL 2
REMARK VINA RESULT:      -7.0      1.618      2.266
REMARK  Name = 
REMARK  13 active torsions:
REMARK  status: ('A' for Active; 'I' for Inactive)
REMARK    1  A    between atoms: C_1  and  O_2
REMARK    2  A    between atoms: O_2  and  C_3
REMARK    3  A    between atoms: C_3  and  C_5
REMARK    4  A    between atoms: C_5  and  N_6
REMARK    5  A    between atoms: N_6  and  C_7
REMARK    6  A    between atoms: C_10  and  C_11
REMARK    7  A    between atoms: C_11  and  C_12
REMARK    8  A    between atoms: C_12  and  C_13
REMARK    9  A    between atoms: C_13  and  C_15
REMARK   10  A    between atoms: C_19  and  O_20
REMARK   11  A    between atoms: O_20  and  C_21
REMARK   12  A    between atoms: C_22  and  O_23
REMARK   13  A    between atoms: O_23  and  C_24
REMARK                            x       y       z     vdW  Elec       q    Type
REMARK                         _______ _______ _______ _____ _____    ______ ____
ROOT
ATOM      1  C   UNL     1       7.850   7.787  17.840  0.00  0.00    +0.000 C 
ATOM      2  O   UNL     1       8.373   7.249  18.825  0.00  0.00    +0.000 OA
ENDROOT
BRANCH   1   3
ATOM      3  C   UNL     1       6.837   6.998  17.030  0.00  0.00    +0.000 C 
ATOM      4  C   UNL     1       5.403   7.325  17.450  0.00  0.00    +0.000 C 
ATOM      5  C   UNL     1       4.641   6.039  17.552  0.00  0.00    +0.000 A 
ATOM      6  C   UNL     1       3.328   5.944  17.988  0.00  0.00    +0.000 A 
ATOM      7  C   UNL     1       2.724   4.683  18.059  0.00  0.00    +0.000 A 
ATOM      8  C   UNL     1       3.369   3.550  17.517  0.00  0.00    +0.000 A 
ATOM      9  C   UNL     1       4.698   3.662  17.088  0.00  0.00    +0.000 A 
ATOM     10  C   UNL     1       5.339   4.890  17.193  0.00  0.00    +0.000 A 
ATOM     11  S   UNL     1       7.077   5.200  17.029  0.00  0.00    +0.000 S 
BRANCH   7  12
ATOM     12  O   UNL     1       1.499   4.507  18.656  0.00  0.00    +0.000 OA
ATOM     13  C   UNL     1       1.532   4.623  20.079  0.00  0.00    +0.000 C 
ENDBRANCH   7  12
BRANCH   8  14
ATOM     14  O   UNL     1       2.645   2.385  17.512  0.00  0.00    +0.000 OA
ATOM     15  C   UNL     1       2.957   1.407  18.495  0.00  0.00    +0.000 C 
ENDBRANCH   8  14
ENDBRANCH   1   3
BRANCH   1  16
ATOM     16  C   UNL     1       8.304   9.186  17.412  0.00  0.00    +0.000 C 
BRANCH  16  17
ATOM     17  C   UNL     1       8.352  10.113  18.646  0.00  0.00    +0.000 C 
BRANCH  17  22
ATOM     18  N   UNL     1       9.842  13.465  18.796  0.00  0.00    +0.000 N 
ATOM     19  C   UNL     1      11.126  14.100  19.341  0.00  0.00    +0.000 C 
ATOM     20  C   UNL     1       9.055  12.824  19.951  0.00  0.00    +0.000 C 
ATOM     21  C   UNL     1       9.632  11.474  20.372  0.00  0.00    +0.000 C 
ATOM     22  C   UNL     1       9.747  10.488  19.197  0.00  0.00    +0.000 C 
ATOM     23  C   UNL     1      10.674  11.130  18.165  0.00  0.00    +0.000 C 
ATOM     24  C   UNL     1      10.165  12.477  17.660  0.00  0.00    +0.000 C 
BRANCH  18  25
ATOM     25  C   UNL     1       8.917  14.623  18.199  0.00  0.00    +0.000 C 
BRANCH  25  26
ATOM     26  C   UNL     1       7.514  14.216  17.744  0.00  0.00    +0.000 C 
ATOM     27  O   UNL     1       7.244  13.153  17.194  0.00  0.00    +0.000 OA
BRANCH  26  29
ATOM     28  C   UNL     1       5.256  14.763  18.080  0.00  0.00    +0.000 C 
ATOM     29  O   UNL     1       6.627  15.200  18.027  0.00  0.00    +0.000 OA
ENDBRANCH  26  29
ENDBRANCH  25  26
ENDBRANCH  18  25
ENDBRANCH  17  22
ENDBRANCH  16  17
ENDBRANCH   1  16
TORSDOF 9
ENDMDL
MODEL 3
REMARK VINA RESULT:      -6.9      1.879      2.379
REMARK  Name = 
REMARK  13 active torsions:
REMARK  status: ('A' for Active; 'I' for Inactive)
REMARK    1  A    between atoms: C_1  and  O_2
REMARK    2  A    between atoms: O_2  and  C_3
REMARK    3  A    between atoms: C_3  and  C_5
REMARK    4  A    between atoms: C_5  and  N_6
REMARK    5  A    between atoms: N_6  and  C_7
REMARK    6  A    between atoms: C_10  and  C_11
REMARK    7  A    between atoms: C_11  and  C_12
REMARK    8  A    between atoms: C_12  and  C_13
REMARK    9  A    between atoms: C_13  and  C_15
REMARK   10  A    between atoms: C_19  and  O_20
REMARK   11  A    between atoms: O_20  and  C_21
REMARK   12  A    between atoms: C_22  and  O_23
REMARK   13  A    between atoms: O_23  and  C_24
REMARK                            x       y       z     vdW  Elec       q    Type
REMARK                         _______ _______ _______ _____ _____    ______ ____
ROOT
ATOM      1  C   UNL     1       7.859   8.279  17.798  0.00  0.00    +0.000 C 
ATOM      2  O   UNL     1       7.194   9.050  17.092  0.00  0.00    +0.000 OA
ENDROOT
BRANCH   1   3
ATOM      3  C   UNL     1       7.617   6.786  17.673  0.00  0.00    +0.000 C 
ATOM      4  C   UNL     1       6.437   6.481  16.747  0.00  0.00    +0.000 C 
ATOM      5  C   UNL     1       5.597   5.423  17.393  0.00  0.00    +0.000 A 
ATOM      6  C   UNL     1       4.399   4.957  16.874  0.00  0.00    +0.000 A 
ATOM      7  C   UNL     1       3.690   3.975  17.577  0.00  0.00    +0.000 A 
ATOM      8  C   UNL     1       4.272   3.333  18.691  0.00  0.00    +0.000 A 
ATOM      9  C   UNL     1       5.479   3.822  19.208  0.00  0.00    +0.000 A 
ATOM     10  C   UNL     1       6.078   4.917  18.596  0.00  0.00    +0.000 A 
ATOM     11  S   UNL     1       7.403   5.902  19.243  0.00  0.00    +0.000 S 
BRANCH   7  12
ATOM     12  O   UNL     1       2.415   3.611  17.213  0.00  0.00    +0.000 OA
ATOM     13  C   UNL     1       1.402   4.469  17.739  0.00  0.00    +0.000 C 
ENDBRANCH   7  12
BRANCH   8  14
ATOM     14  O   UNL     1       3.558   2.294  19.233  0.00  0.00    +0.000 OA
ATOM     15  C   UNL     1       2.948   2.499  20.501  0.00  0.00    +0.000 C 
ENDBRANCH   8  14
ENDBRANCH   1   3
BRANCH   1  16
ATOM     16  C   UNL     1       8.830   8.851  18.835  0.00  0.00    +0.000 C 
BRANCH  16  17
ATOM     17  C   UNL     1       9.055  10.353  18.559  0.00  0.00    +0.000 C 
BRANCH  17  22
ATOM     18  N   UNL     1       9.944  13.914  18.676  0.00  0.00    +0.000 N 
ATOM     19  C   UNL     1      11.136  14.758  19.137  0.00  0.00    +0.000 C 
ATOM     20  C   UNL     1       9.375  13.132  19.872  0.00  0.00    +0.000 C 
ATOM     21  C   UNL     1      10.210  11.900  20.215  0.00  0.00    +0.000 C 
ATOM     22  C   UNL     1      10.403  10.962  19.010  0.00  0.00    +0.000 C 
ATOM     23  C   UNL     1      11.118  11.768  17.927  0.00  0.00    +0.000 C 
ATOM     24  C   UNL     1      10.343  13.010  17.495  0.00  0.00    +0.000 C 
BRANCH  18  25
ATOM     25  C   UNL     1       8.786  14.896  18.179  0.00  0.00    +0.000 C 
BRANCH  25  26
ATOM     26  C   UNL     1       7.872  15.484  19.257  0.00  0.00    +0.000 C 
ATOM     27  O   UNL     1       8.230  16.299  20.101  0.00  0.00    +0.000 OA
BRANCH  26  29
ATOM     28  C   UNL     1       6.259  14.592  17.804  0.00  0.00    +0.000 C 
ATOM     29  O   UNL     1       6.626  14.966  19.146  0.00  0.00    +0.000 OA
ENDBRANCH  26  29
ENDBRANCH  25  26
ENDBRANCH  18  25
ENDBRANCH  17  22
ENDBRANCH  16  17
ENDBRANCH   1  16
TORSDOF 9
ENDMDL
MODEL 4
REMARK VINA RESULT:      -6.8      1.444      2.245
REMARK  Name = 
REMARK  13 active torsions:
REMARK  status: ('A' for Active; 'I' for Inactive)
REMARK    1  A    between atoms: C_1  and  O_2
REMARK    2  A    between atoms: O_2  and  C_3
REMARK    3  A    between atoms: C_3  and  C_5
REMARK    4  A    between atoms: C_5  and  N_6
REMARK    5  A    between atoms: N_6  and  C_7
REMARK    6  A    between atoms: C_10  and  C_11
REMARK    7  A    between atoms: C_11  and  C_12
REMARK    8  A    between atoms: C_12  and  C_13
REMARK    9  A    between atoms: C_13  and  C_15
REMARK   10  A    between atoms: C_19  and  O_20
REMARK   11  A    between atoms: O_20  and  C_21
REMARK   12  A    between atoms: C_22  and  O_23
REMARK   13  A    between atoms: O_23  and  C_24
REMARK                            x       y       z     vdW  Elec       q    Type
REMARK                         _______ _______ _______ _____ _____    ______ ____
ROOT
ATOM      1  C   UNL     1       7.878   7.779  17.887  0.00  0.00    +0.000 C 
ATOM      2  O   UNL     1       8.442   7.215  18.835  0.00  0.00    +0.000 OA
ENDROOT
BRANCH   1   3
ATOM      3  C   UNL     1       6.863   6.997  17.073  0.00  0.00    +0.000 C 
ATOM      4  C   UNL     1       5.429   7.325  17.496  0.00  0.00    +0.000 C 
ATOM      5  C   UNL     1       4.664   6.041  17.591  0.00  0.00    +0.000 A 
ATOM      6  C   UNL     1       3.352   5.947  18.028  0.00  0.00    +0.000 A 
ATOM      7  C   UNL     1       2.744   4.688  18.091  0.00  0.00    +0.000 A 
ATOM      8  C   UNL     1       3.386   3.556  17.542  0.00  0.00    +0.000 A 
ATOM      9  C   UNL     1       4.715   3.666  17.114  0.00  0.00    +0.000 A 
ATOM     10  C   UNL     1       5.359   4.892  17.225  0.00  0.00    +0.000 A 
ATOM     11  S   UNL     1       7.098   5.199  17.062  0.00  0.00    +0.000 S 
BRANCH   7  12
ATOM     12  O   UNL     1       1.519   4.511  18.688  0.00  0.00    +0.000 OA
ATOM     13  C   UNL     1       1.543   4.676  20.106  0.00  0.00    +0.000 C 
ENDBRANCH   7  12
BRANCH   8  14
ATOM     14  O   UNL     1       2.658   2.393  17.532  0.00  0.00    +0.000 OA
ATOM     15  C   UNL     1       3.035   1.367  18.441  0.00  0.00    +0.000 C 
ENDBRANCH   8  14
ENDBRANCH   1   3
BRANCH   1  16
ATOM     16  C   UNL     1       8.286   9.205  17.504  0.00  0.00    +0.000 C 
BRANCH  16  17
ATOM     17  C   UNL     1       8.596  10.013  18.783  0.00  0.00    +0.000 C 
BRANCH  17  22
ATOM     18  N   UNL     1       9.368  13.599  18.945  0.00  0.00    +0.000 N 
ATOM     19  C   UNL     1      10.614  14.473  19.122  0.00  0.00    +0.000 C 
ATOM     20  C   UNL     1       9.186  12.705  20.182  0.00  0.00    +0.000 C 
ATOM     21  C   UNL     1      10.122  11.499  20.173  0.00  0.00    +0.000 C 
ATOM     22  C   UNL     1       9.996  10.660  18.889  0.00  0.00    +0.000 C 
ATOM     23  C   UNL     1      10.350  11.579  17.721  0.00  0.00    +0.000 C 
ATOM     24  C   UNL     1       9.445  12.805  17.627  0.00  0.00    +0.000 C 
BRANCH  18  25
ATOM     25  C   UNL     1       8.086  14.551  18.875  0.00  0.00    +0.000 C 
BRANCH  25  26
ATOM     26  C   UNL     1       8.153  15.855  19.673  0.00  0.00    +0.000 C 
ATOM     27  O   UNL     1       8.416  15.922  20.870  0.00  0.00    +0.000 OA
BRANCH  26  29
ATOM     28  C   UNL     1       9.027  17.512  18.260  0.00  0.00    +0.000 C 
ATOM     29  O   UNL     1       7.871  16.909  18.872  0.00  0.00    +0.000 OA
ENDBRANCH  26  29
ENDBRANCH  25  26
ENDBRANCH  18  25
ENDBRANCH  17  22
ENDBRANCH  16  17
ENDBRANCH   1  16
TORSDOF 9
ENDMDL
MODEL 5
REMARK VINA RESULT:      -6.8      6.192      9.942
REMARK  Name = 
REMARK  13 active torsions:
REMARK  status: ('A' for Active; 'I' for Inactive)
REMARK    1  A    between atoms: C_1  and  O_2
REMARK    2  A    between atoms: O_2  and  C_3
REMARK    3  A    between atoms: C_3  and  C_5
REMARK    4  A    between atoms: C_5  and  N_6
REMARK    5  A    between atoms: N_6  and  C_7
REMARK    6  A    between atoms: C_10  and  C_11
REMARK    7  A    between atoms: C_11  and  C_12
REMARK    8  A    between atoms: C_12  and  C_13
REMARK    9  A    between atoms: C_13  and  C_15
REMARK   10  A    between atoms: C_19  and  O_20
REMARK   11  A    between atoms: O_20  and  C_21
REMARK   12  A    between atoms: C_22  and  O_23
REMARK   13  A    between atoms: O_23  and  C_24
REMARK                            x       y       z     vdW  Elec       q    Type
REMARK                         _______ _______ _______ _____ _____    ______ ____
ROOT
ATOM      1  C   UNL     1       2.013   6.492  19.401  0.00  0.00    +0.000 C 
ATOM      2  O   UNL     1       2.039   6.082  18.232  0.00  0.00    +0.000 OA
ENDROOT
BRANCH   1   3
ATOM      3  C   UNL     1       2.138   7.985  19.652  0.00  0.00    +0.000 C 
ATOM      4  C   UNL     1       1.329   8.419  20.876  0.00  0.00    +0.000 C 
ATOM      5  C   UNL     1       0.599   9.680  20.530  0.00  0.00    +0.000 A 
ATOM      6  C   UNL     1      -0.297  10.318  21.375  0.00  0.00    +0.000 A 
ATOM      7  C   UNL     1      -0.934  11.484  20.935  0.00  0.00    +0.000 A 
ATOM      8  C   UNL     1      -0.534  12.108  19.734  0.00  0.00    +0.000 A 
ATOM      9  C   UNL     1       0.366  11.447  18.888  0.00  0.00    +0.000 A 
ATOM     10  C   UNL     1       0.853  10.200  19.265  0.00  0.00    +0.000 A 
ATOM     11  S   UNL     1       1.723   9.045  18.240  0.00  0.00    +0.000 S 
BRANCH   7  12
ATOM     12  O   UNL     1      -1.964  12.051  21.647  0.00  0.00    +0.000 OA
ATOM     13  C   UNL     1      -1.589  12.475  22.958  0.00  0.00    +0.000 C 
ENDBRANCH   7  12
BRANCH   8  14
ATOM     14  O   UNL     1      -1.122  13.315  19.453  0.00  0.00    +0.000 OA
ATOM     15  C   UNL     1      -0.307  14.334  18.886  0.00  0.00    +0.000 C 
ENDBRANCH   8  14
ENDBRANCH   1   3
BRANCH   1  16
ATOM     16  C   UNL     1       1.953   5.487  20.555  0.00  0.00    +0.000 C 
BRANCH  16  17
ATOM     17  C   UNL     1       0.830   4.461  20.287  0.00  0.00    +0.000 C 
BRANCH  17  22
ATOM     18  N   UNL     1       3.475   2.697  18.450  0.00  0.00    +0.000 N 
ATOM     19  C   UNL     1       4.077   1.288  18.425  0.00  0.00    +0.000 C 
ATOM     20  C   UNL     1       3.665   3.314  19.845  0.00  0.00    +0.000 C 
ATOM     21  C   UNL     1       2.655   2.784  20.860  0.00  0.00    +0.000 C 
ATOM     22  C   UNL     1       1.199   2.964  20.395  0.00  0.00    +0.000 C 
ATOM     23  C   UNL     1       1.051   2.188  19.087  0.00  0.00    +0.000 C 
ATOM     24  C   UNL     1       2.003   2.666  17.995  0.00  0.00    +0.000 C 
BRANCH  18  25
ATOM     25  C   UNL     1       4.290   3.615  17.427  0.00  0.00    +0.000 C 
BRANCH  25  26
ATOM     26  C   UNL     1       5.339   4.552  18.030  0.00  0.00    +0.000 C 
ATOM     27  O   UNL     1       5.131   5.723  18.331  0.00  0.00    +0.000 OA
BRANCH  26  29
ATOM     28  C   UNL     1       7.676   4.714  17.879  0.00  0.00    +0.000 C 
ATOM     29  O   UNL     1       6.520   3.904  18.168  0.00  0.00    +0.000 OA
ENDBRANCH  26  29
ENDBRANCH  25  26
ENDBRANCH  18  25
ENDBRANCH  17  22
ENDBRANCH  16  17
ENDBRANCH   1  16
TORSDOF 9
ENDMDL
MODEL 6
REMARK VINA RESULT:      -6.8      6.071      9.390
REMARK  Name = 
REMARK  13 active torsions:
REMARK  status: ('A' for Active; 'I' for Inactive)
REMARK    1  A    between atoms: C_1  and  O_2
REMARK    2  A    between atoms: O_2  and  C_3
REMARK    3  A    between atoms: C_3  and  C_5
REMARK    4  A    between atoms: C_5  and  N_6
REMARK    5  A    between atoms: N_6  and  C_7
REMARK    6  A    between atoms: C_10  and  C_11
REMARK    7  A    between atoms: C_11  and  C_12
REMARK    8  A    between atoms: C_12  and  C_13
REMARK    9  A    between atoms: C_13  and  C_15
REMARK   10  A    between atoms: C_19  and  O_20
REMARK   11  A    between atoms: O_20  and  C_21
REMARK   12  A    between atoms: C_22  and  O_23
REMARK   13  A    between atoms: O_23  and  C_24
REMARK                            x       y       z     vdW  Elec       q    Type
REMARK                         _______ _______ _______ _____ _____    ______ ____
ROOT
ATOM      1  C   UNL     1       1.295   9.137  21.203  0.00  0.00    +0.000 C 
ATOM      2  O   UNL     1       1.715   9.560  22.288  0.00  0.00    +0.000 OA
ENDROOT
BRANCH   1   3
ATOM      3  C   UNL     1       0.879  10.139  20.141  0.00  0.00    +0.000 C 
ATOM      4  C   UNL     1      -0.361  10.928  20.565  0.00  0.00    +0.000 C 
ATOM      5  C   UNL     1      -1.292  11.001  19.394  0.00  0.00    +0.000 A 
ATOM      6  C   UNL     1      -2.554  11.573  19.437  0.00  0.00    +0.000 A 
ATOM      7  C   UNL     1      -3.344  11.567  18.281  0.00  0.00    +0.000 A 
ATOM      8  C   UNL     1      -2.797  11.161  17.044  0.00  0.00    +0.000 A 
ATOM      9  C   UNL     1      -1.523  10.578  17.019  0.00  0.00    +0.000 A 
ATOM     10  C   UNL     1      -0.827  10.431  18.213  0.00  0.00    +0.000 A 
ATOM     11  S   UNL     1       0.625   9.450  18.482  0.00  0.00    +0.000 S 
BRANCH   7  12
ATOM     12  O   UNL     1      -4.664  11.947  18.311  0.00  0.00    +0.000 OA
ATOM     13  C   UNL     1      -5.047  12.594  19.525  0.00  0.00    +0.000 C 
ENDBRANCH   7  12
BRANCH   8  14
ATOM     14  O   UNL     1      -3.604  11.316  15.945  0.00  0.00    +0.000 OA
ATOM     15  C   UNL     1      -3.608  10.277  14.974  0.00  0.00    +0.000 C 
ENDBRANCH   8  14
ENDBRANCH   1   3
BRANCH   1  16
ATOM     16  C   UNL     1       1.117   7.630  20.996  0.00  0.00    +0.000 C 
BRANCH  16  17
ATOM     17  C   UNL     1       2.312   7.075  20.191  0.00  0.00    +0.000 C 
BRANCH  17  22
ATOM     18  N   UNL     1       4.740   5.318  18.070  0.00  0.00    +0.000 N 
ATOM     19  C   UNL     1       4.838   3.963  17.362  0.00  0.00    +0.000 C 
ATOM     20  C   UNL     1       4.608   5.097  19.586  0.00  0.00    +0.000 C 
ATOM     21  C   UNL     1       3.193   4.697  19.997  0.00  0.00    +0.000 C 
ATOM     22  C   UNL     1       2.130   5.698  19.512  0.00  0.00    +0.000 C 
ATOM     23  C   UNL     1       2.218   5.737  17.987  0.00  0.00    +0.000 C 
ATOM     24  C   UNL     1       3.593   6.158  17.477  0.00  0.00    +0.000 C 
BRANCH  18  25
ATOM     25  C   UNL     1       6.107   6.112  17.840  0.00  0.00    +0.000 C 
BRANCH  25  26
ATOM     26  C   UNL     1       7.212   5.375  17.079  0.00  0.00    +0.000 C 
ATOM     27  O   UNL     1       7.905   4.482  17.556  0.00  0.00    +0.000 OA
BRANCH  26  29
ATOM     28  C   UNL     1       7.063   4.882  14.789  0.00  0.00    +0.000 C 
ATOM     29  O   UNL     1       7.314   5.858  15.818  0.00  0.00    +0.000 OA
ENDBRANCH  26  29
ENDBRANCH  25  26
ENDBRANCH  18  25
ENDBRANCH  17  22
ENDBRANCH  16  17
ENDBRANCH   1  16
TORSDOF 9
ENDMDL
MODEL 7
REMARK VINA RESULT:      -6.7      1.924      2.539
REMARK  Name = 
REMARK  13 active torsions:
REMARK  status: ('A' for Active; 'I' for Inactive)
REMARK    1  A    between atoms: C_1  and  O_2
REMARK    2  A    between atoms: O_2  and  C_3
REMARK    3  A    between atoms: C_3  and  C_5
REMARK    4  A    between atoms: C_5  and  N_6
REMARK    5  A    between atoms: N_6  and  C_7
REMARK    6  A    between atoms: C_10  and  C_11
REMARK    7  A    between atoms: C_11  and  C_12
REMARK    8  A    between atoms: C_12  and  C_13
REMARK    9  A    between atoms: C_13  and  C_15
REMARK   10  A    between atoms: C_19  and  O_20
REMARK   11  A    between atoms: O_20  and  C_21
REMARK   12  A    between atoms: C_22  and  O_23
REMARK   13  A    between atoms: O_23  and  C_24
REMARK                            x       y       z     vdW  Elec       q    Type
REMARK                         _______ _______ _______ _____ _____    ______ ____
ROOT
ATOM      1  C   UNL     1       7.817   8.641  17.742  0.00  0.00    +0.000 C 
ATOM      2  O   UNL     1       7.223   9.570  17.178  0.00  0.00    +0.000 OA
ENDROOT
BRANCH   1   3
ATOM      3  C   UNL     1       7.364   7.217  17.474  0.00  0.00    +0.000 C 
ATOM      4  C   UNL     1       5.881   7.158  17.105  0.00  0.00    +0.000 C 
ATOM      5  C   UNL     1       5.258   6.019  17.852  0.00  0.00    +0.000 A 
ATOM      6  C   UNL     1       3.906   5.716  17.824  0.00  0.00    +0.000 A 
ATOM      7  C   UNL     1       3.435   4.635  18.579  0.00  0.00    +0.000 A 
ATOM      8  C   UNL     1       4.340   3.752  19.205  0.00  0.00    +0.000 A 
ATOM      9  C   UNL     1       5.703   4.077  19.232  0.00  0.00    +0.000 A 
ATOM     10  C   UNL     1       6.126   5.253  18.625  0.00  0.00    +0.000 A 
ATOM     11  S   UNL     1       7.709   6.031  18.803  0.00  0.00    +0.000 S 
BRANCH   7  12
ATOM     12  O   UNL     1       2.089   4.402  18.738  0.00  0.00    +0.000 OA
ATOM     13  C   UNL     1       1.391   4.212  17.508  0.00  0.00    +0.000 C 
ENDBRANCH   7  12
BRANCH   8  14
ATOM     14  O   UNL     1       3.792   2.648  19.810  0.00  0.00    +0.000 OA
ATOM     15  C   UNL     1       3.659   1.465  19.033  0.00  0.00    +0.000 C 
ENDBRANCH   8  14
ENDBRANCH   1   3
BRANCH   1  16
ATOM     16  C   UNL     1       8.919   8.954  18.758  0.00  0.00    +0.000 C 
BRANCH  16  17
ATOM     17  C   UNL     1       9.103  10.484  18.865  0.00  0.00    +0.000 C 
BRANCH  17  22
ATOM     18  N   UNL     1      10.359  13.932  18.756  0.00  0.00    +0.000 N 
ATOM     19  C   UNL     1      11.586  14.697  19.262  0.00  0.00    +0.000 C 
ATOM     20  C   UNL     1       9.596  13.335  19.950  0.00  0.00    +0.000 C 
ATOM     21  C   UNL     1      10.255  12.067  20.488  0.00  0.00    +0.000 C 
ATOM     22  C   UNL     1      10.459  10.998  19.401  0.00  0.00    +0.000 C 
ATOM     23  C   UNL     1      11.359  11.617  18.331  0.00  0.00    +0.000 C 
ATOM     24  C   UNL     1      10.769  12.879  17.709  0.00  0.00    +0.000 C 
BRANCH  18  25
ATOM     25  C   UNL     1       9.369  14.970  18.052  0.00  0.00    +0.000 C 
BRANCH  25  26
ATOM     26  C   UNL     1       7.884  14.599  18.032  0.00  0.00    +0.000 C 
ATOM     27  O   UNL     1       7.428  13.593  17.498  0.00  0.00    +0.000 OA
BRANCH  26  29
ATOM     28  C   UNL     1       7.735  16.863  18.635  0.00  0.00    +0.000 C 
ATOM     29  O   UNL     1       7.158  15.544  18.675  0.00  0.00    +0.000 OA
ENDBRANCH  26  29
ENDBRANCH  25  26
ENDBRANCH  18  25
ENDBRANCH  17  22
ENDBRANCH  16  17
ENDBRANCH   1  16
TORSDOF 9
ENDMDL
MODEL 8
REMARK VINA RESULT:      -6.6      2.833      9.970
REMARK  Name = 
REMARK  13 active torsions:
REMARK  status: ('A' for Active; 'I' for Inactive)
REMARK    1  A    between atoms: C_1  and  O_2
REMARK    2  A    between atoms: O_2  and  C_3
REMARK    3  A    between atoms: C_3  and  C_5
REMARK    4  A    between atoms: C_5  and  N_6
REMARK    5  A    between atoms: N_6  and  C_7
REMARK    6  A    between atoms: C_10  and  C_11
REMARK    7  A    between atoms: C_11  and  C_12
REMARK    8  A    between atoms: C_12  and  C_13
REMARK    9  A    between atoms: C_13  and  C_15
REMARK   10  A    between atoms: C_19  and  O_20
REMARK   11  A    between atoms: O_20  and  C_21
REMARK   12  A    between atoms: C_22  and  O_23
REMARK   13  A    between atoms: O_23  and  C_24
REMARK                            x       y       z     vdW  Elec       q    Type
REMARK                         _______ _______ _______ _____ _____    ______ ____
ROOT
ATOM      1  C   UNL     1       8.309   9.364  18.130  0.00  0.00    +0.000 C 
ATOM      2  O   UNL     1       7.406   9.661  17.335  0.00  0.00    +0.000 OA
ENDROOT
BRANCH   1   3
ATOM      3  C   UNL     1       9.300  10.439  18.541  0.00  0.00    +0.000 C 
ATOM      4  C   UNL     1       9.414  10.547  20.063  0.00  0.00    +0.000 C 
ATOM      5  C   UNL     1       9.406  11.999  20.431  0.00  0.00    +0.000 A 
ATOM      6  C   UNL     1       9.414  12.472  21.734  0.00  0.00    +0.000 A 
ATOM      7  C   UNL     1       9.387  13.854  21.956  0.00  0.00    +0.000 A 
ATOM      8  C   UNL     1       9.544  14.754  20.880  0.00  0.00    +0.000 A 
ATOM      9  C   UNL     1       9.527  14.260  19.569  0.00  0.00    +0.000 A 
ATOM     10  C   UNL     1       9.372  12.894  19.366  0.00  0.00    +0.000 A 
ATOM     11  S   UNL     1       8.998  12.082  17.835  0.00  0.00    +0.000 S 
BRANCH   7  12
ATOM     12  O   UNL     1       9.205  14.375  23.214  0.00  0.00    +0.000 OA
ATOM     13  C   UNL     1       7.985  13.966  23.833  0.00  0.00    +0.000 C 
ENDBRANCH   7  12
BRANCH   8  14
ATOM     14  O   UNL     1       9.639  16.082  21.209  0.00  0.00    +0.000 OA
ATOM     15  C   UNL     1       8.995  17.024  20.361  0.00  0.00    +0.000 C 
ENDBRANCH   8  14
ENDBRANCH   1   3
BRANCH   1  16
ATOM     16  C   UNL     1       8.459   7.914  18.598  0.00  0.00    +0.000 C 
BRANCH  16  17
ATOM     17  C   UNL     1       7.583   6.995  17.720  0.00  0.00    +0.000 C 
BRANCH  17  22
ATOM     18  N   UNL     1       4.639   4.817  17.996  0.00  0.00    +0.000 N 
ATOM     19  C   UNL     1       4.362   3.330  18.241  0.00  0.00    +0.000 C 
ATOM     20  C   UNL     1       5.468   4.981  16.711  0.00  0.00    +0.000 C 
ATOM     21  C   UNL     1       6.946   4.664  16.925  0.00  0.00    +0.000 C 
ATOM     22  C   UNL     1       7.569   5.488  18.065  0.00  0.00    +0.000 C 
ATOM     23  C   UNL     1       6.793   5.146  19.337  0.00  0.00    +0.000 C 
ATOM     24  C   UNL     1       5.302   5.456  19.230  0.00  0.00    +0.000 C 
BRANCH  18  25
ATOM     25  C   UNL     1       3.247   5.558  17.741  0.00  0.00    +0.000 C 
BRANCH  25  26
ATOM     26  C   UNL     1       1.980   4.799  18.141  0.00  0.00    +0.000 C 
ATOM     27  O   UNL     1       1.308   4.119  17.372  0.00  0.00    +0.000 OA
BRANCH  26  29
ATOM     28  C   UNL     1       1.131   3.859  20.117  0.00  0.00    +0.000 C 
ATOM     29  O   UNL     1       1.710   4.999  19.452  0.00  0.00    +0.000 OA
ENDBRANCH  26  29
ENDBRANCH  25  26
ENDBRANCH  18  25
ENDBRANCH  17  22
ENDBRANCH  16  17
ENDBRANCH   1  16
TORSDOF 9
ENDMDL
MODEL 9
REMARK VINA RESULT:      -6.6      2.296      3.132
REMARK  Name = 
REMARK  13 active torsions:
REMARK  status: ('A' for Active; 'I' for Inactive)
REMARK    1  A    between atoms: C_1  and  O_2
REMARK    2  A    between atoms: O_2  and  C_3
REMARK    3  A    between atoms: C_3  and  C_5
REMARK    4  A    between atoms: C_5  and  N_6
REMARK    5  A    between atoms: N_6  and  C_7
REMARK    6  A    between atoms: C_10  and  C_11
REMARK    7  A    between atoms: C_11  and  C_12
REMARK    8  A    between atoms: C_12  and  C_13
REMARK    9  A    between atoms: C_13  and  C_15
REMARK   10  A    between atoms: C_19  and  O_20
REMARK   11  A    between atoms: O_20  and  C_21
REMARK   12  A    between atoms: C_22  and  O_23
REMARK   13  A    between atoms: O_23  and  C_24
REMARK                            x       y       z     vdW  Elec       q    Type
REMARK                         _______ _______ _______ _____ _____    ______ ____
ROOT
ATOM      1  C   UNL     1       7.792   8.413  17.709  0.00  0.00    +0.000 C 
ATOM      2  O   UNL     1       7.148   9.288  17.114  0.00  0.00    +0.000 OA
ENDROOT
BRANCH   1   3
ATOM      3  C   UNL     1       7.445   6.956  17.459  0.00  0.00    +0.000 C 
ATOM      4  C   UNL     1       6.069   6.809  16.807  0.00  0.00    +0.000 C 
ATOM      5  C   UNL     1       5.342   5.694  17.495  0.00  0.00    +0.000 A 
ATOM      6  C   UNL     1       4.033   5.331  17.220  0.00  0.00    +0.000 A 
ATOM      7  C   UNL     1       3.452   4.282  17.941  0.00  0.00    +0.000 A 
ATOM      8  C   UNL     1       4.238   3.481  18.797  0.00  0.00    +0.000 A 
ATOM      9  C   UNL     1       5.557   3.866  19.071  0.00  0.00    +0.000 A 
ATOM     10  C   UNL     1       6.059   5.019  18.478  0.00  0.00    +0.000 A 
ATOM     11  S   UNL     1       7.550   5.875  18.911  0.00  0.00    +0.000 S 
BRANCH   7  12
ATOM     12  O   UNL     1       2.109   4.002  17.846  0.00  0.00    +0.000 OA
ATOM     13  C   UNL     1       1.310   4.690  18.809  0.00  0.00    +0.000 C 
ENDBRANCH   7  12
BRANCH   8  14
ATOM     14  O   UNL     1       3.612   2.396  19.358  0.00  0.00    +0.000 OA
ATOM     15  C   UNL     1       3.291   2.458  20.741  0.00  0.00    +0.000 C 
ENDBRANCH   8  14
ENDBRANCH   1   3
BRANCH   1  16
ATOM     16  C   UNL     1       8.846   8.821  18.742  0.00  0.00    +0.000 C 
BRANCH  16  17
ATOM     17  C   UNL     1       9.064  10.348  18.683  0.00  0.00    +0.000 C 
BRANCH  17  22
ATOM     18  N   UNL     1      10.034  13.878  18.960  0.00  0.00    +0.000 N 
ATOM     19  C   UNL     1      11.018  14.711  19.789  0.00  0.00    +0.000 C 
ATOM     20  C   UNL     1       9.027  13.190  19.896  0.00  0.00    +0.000 C 
ATOM     21  C   UNL     1       9.612  11.955  20.577  0.00  0.00    +0.000 C 
ATOM     22  C   UNL     1      10.182  10.939  19.571  0.00  0.00    +0.000 C 
ATOM     23  C   UNL     1      11.286  11.654  18.793  0.00  0.00    +0.000 C 
ATOM     24  C   UNL     1      10.790  12.892  18.051  0.00  0.00    +0.000 C 
BRANCH  18  25
ATOM     25  C   UNL     1       9.192  14.866  18.028  0.00  0.00    +0.000 C 
BRANCH  25  26
ATOM     26  C   UNL     1       9.935  16.080  17.463  0.00  0.00    +0.000 C 
ATOM     27  O   UNL     1      10.812  16.019  16.608  0.00  0.00    +0.000 OA
BRANCH  26  29
ATOM     28  C   UNL     1      10.101  18.419  17.550  0.00  0.00    +0.000 C 
ATOM     29  O   UNL     1       9.490  17.215  18.052  0.00  0.00    +0.000 OA
ENDBRANCH  26  29
ENDBRANCH  25  26
ENDBRANCH  18  25
ENDBRANCH  17  22
ENDBRANCH  16  17
ENDBRANCH   1  16
TORSDOF 9
ENDMDL
