MODEL 1
REMARK VINA RESULT:      -7.2      0.000      0.000
REMARK  Name = 
REMARK  15 active torsions:
REMARK  status: ('A' for Active; 'I' for Inactive)
REMARK    1  A    between atoms: C_1  and  C_2
REMARK    2  A    between atoms: C_2  and  C_3
REMARK    3  A    between atoms: C_3  and  C_4
REMARK    4  A    between atoms: C_4  and  C_5
REMARK    5  A    between atoms: C_5  and  C_6
REMARK    6  A    between atoms: C_8  and  C_9
REMARK    7  A    between atoms: C_9  and  C_10
REMARK    8  A    between atoms: C_10  and  N_11
REMARK    9  A    between atoms: C_12  and  C_14
REMARK   10  A    between atoms: C_14  and  O_15
REMARK   11  A    between atoms: C_14  and  C_16
REMARK   12  A    between atoms: C_16  and  C_17
REMARK   13  A    between atoms: C_16  and  C_18
REMARK   14  A    between atoms: C_16  and  C_19
REMARK   15  A    between atoms: C_19  and  O_20
REMARK                            x       y       z     vdW  Elec       q    Type
REMARK                         _______ _______ _______ _____ _____    ______ ____
ROOT
ATOM      1  N   UNL     1       5.093   4.685  18.572  0.00  0.00    +0.000 N 
ATOM      2  C   UNL     1       4.638   3.526  19.157  0.00  0.00    +0.000 C 
ATOM      3  O   UNL     1       5.268   2.903  20.011  0.00  0.00    +0.000 OA
ATOM      4  H   UNL     1       4.467   5.231  17.992  0.00  0.00    +0.000 HD
ENDROOT
BRANCH   1   5
ATOM      5  C   UNL     1       6.428   5.191  18.818  0.00  0.00    +0.000 C 
BRANCH   5   6
ATOM      6  C   UNL     1       7.473   4.597  17.871  0.00  0.00    +0.000 C 
BRANCH   6   9
ATOM      7  C   UNL     1       6.147   4.458  14.445  0.00  0.00    +0.000 A 
ATOM      8  C   UNL     1       6.095   3.902  15.744  0.00  0.00    +0.000 A 
ATOM      9  C   UNL     1       7.023   4.621  16.457  0.00  0.00    +0.000 A 
ATOM     10  O   UNL     1       7.615   5.525  15.632  0.00  0.00    +0.000 OA
ATOM     11  N   UNL     1       7.055   5.439  14.373  0.00  0.00    +0.000 NA
BRANCH   7  12
ATOM     12  C   UNL     1       5.338   4.089  13.254  0.00  0.00    +0.000 C 
BRANCH  12  13
ATOM     13  C   UNL     1       6.098   3.183  12.284  0.00  0.00    +0.000 C 
BRANCH  13  14
ATOM     14  C   UNL     1       5.169   2.637  11.201  0.00  0.00    +0.000 C 
BRANCH  14  16
ATOM     15  C   UNL     1       3.291   3.767   9.972  0.00  0.00    +0.000 C 
ATOM     16  C   UNL     1       3.770   3.237  11.314  0.00  0.00    +0.000 C 
ENDBRANCH  14  16
ENDBRANCH  13  14
ENDBRANCH  12  13
ENDBRANCH   7  12
ENDBRANCH   6   9
ENDBRANCH   5   6
ENDBRANCH   1   5
BRANCH   2  17
ATOM     17  C   UNL     1       3.259   3.043  18.670  0.00  0.00    +0.000 C 
BRANCH  17  18
ATOM     18  C   UNL     1       2.069   3.848  19.266  0.00  0.00    +0.000 C 
ATOM     19  C   UNL     1       0.901   2.913  19.641  0.00  0.00    +0.000 C 
ATOM     20  C   UNL     1       2.494   4.634  20.524  0.00  0.00    +0.000 C 
BRANCH  18  21
ATOM     21  C   UNL     1       1.570   4.872  18.222  0.00  0.00    +0.000 C 
BRANCH  21  22
ATOM     22  O   UNL     1       2.554   5.870  17.970  0.00  0.00    +0.000 OA
ATOM     23  H   UNL     1       2.071   6.688  17.749  0.00  0.00    +0.000 HD
ENDBRANCH  21  22
ENDBRANCH  18  21
ENDBRANCH  17  18
BRANCH  17  24
ATOM     24  O   UNL     1       3.233   3.115  17.240  0.00  0.00    +0.000 OA
ATOM     25  H   UNL     1       4.079   2.724  16.938  0.00  0.00    +0.000 HD
ENDBRANCH  17  24
ENDBRANCH   2  17
TORSDOF 12
ENDMDL
MODEL 2
REMARK VINA RESULT:      -6.9      1.129      2.106
REMARK  Name = 
REMARK  15 active torsions:
REMARK  status: ('A' for Active; 'I' for Inactive)
REMARK    1  A    between atoms: C_1  and  C_2
REMARK    2  A    between atoms: C_2  and  C_3
REMARK    3  A    between atoms: C_3  and  C_4
REMARK    4  A    between atoms: C_4  and  C_5
REMARK    5  A    between atoms: C_5  and  C_6
REMARK    6  A    between atoms: C_8  and  C_9
REMARK    7  A    between atoms: C_9  and  C_10
REMARK    8  A    between atoms: C_10  and  N_11
REMARK    9  A    between atoms: C_12  and  C_14
REMARK   10  A    between atoms: C_14  and  O_15
REMARK   11  A    between atoms: C_14  and  C_16
REMARK   12  A    between atoms: C_16  and  C_17
REMARK   13  A    between atoms: C_16  and  C_18
REMARK   14  A    between atoms: C_16  and  C_19
REMARK   15  A    between atoms: C_19  and  O_20
REMARK                            x       y       z     vdW  Elec       q    Type
REMARK                         _______ _______ _______ _____ _____    ______ ____
ROOT
ATOM      1  N   UNL     1       5.600   4.390  19.241  0.00  0.00    +0.000 N 
ATOM      2  C   UNL     1       4.323   4.809  19.531  0.00  0.00    +0.000 C 
ATOM      3  O   UNL     1       3.910   5.944  19.296  0.00  0.00    +0.000 OA
ATOM      4  H   UNL     1       5.833   3.407  19.318  0.00  0.00    +0.000 HD
ENDROOT
BRANCH   1   5
ATOM      5  C   UNL     1       6.613   5.305  18.756  0.00  0.00    +0.000 C 
BRANCH   5   6
ATOM      6  C   UNL     1       7.624   4.635  17.826  0.00  0.00    +0.000 C 
BRANCH   6   9
ATOM      7  C   UNL     1       6.145   4.139  14.496  0.00  0.00    +0.000 A 
ATOM      8  C   UNL     1       6.154   3.723  15.848  0.00  0.00    +0.000 A 
ATOM      9  C   UNL     1       7.111   4.510  16.439  0.00  0.00    +0.000 A 
ATOM     10  O   UNL     1       7.663   5.321  15.497  0.00  0.00    +0.000 OA
ATOM     11  N   UNL     1       7.047   5.104  14.281  0.00  0.00    +0.000 NA
BRANCH   7  12
ATOM     12  C   UNL     1       5.284   3.648  13.389  0.00  0.00    +0.000 C 
BRANCH  12  13
ATOM     13  C   UNL     1       6.083   3.295  12.134  0.00  0.00    +0.000 C 
BRANCH  13  14
ATOM     14  C   UNL     1       5.405   2.174  11.349  0.00  0.00    +0.000 C 
BRANCH  14  16
ATOM     15  C   UNL     1       5.759  -0.306  11.153  0.00  0.00    +0.000 C 
ATOM     16  C   UNL     1       6.393   1.066  10.995  0.00  0.00    +0.000 C 
ENDBRANCH  14  16
ENDBRANCH  13  14
ENDBRANCH  12  13
ENDBRANCH   7  12
ENDBRANCH   6   9
ENDBRANCH   5   6
ENDBRANCH   1   5
BRANCH   2  17
ATOM     17  C   UNL     1       3.418   3.749  20.186  0.00  0.00    +0.000 C 
BRANCH  17  18
ATOM     18  C   UNL     1       2.187   3.358  19.318  0.00  0.00    +0.000 C 
ATOM     19  C   UNL     1       0.897   3.346  20.161  0.00  0.00    +0.000 C 
ATOM     20  C   UNL     1       1.997   4.332  18.138  0.00  0.00    +0.000 C 
BRANCH  18  21
ATOM     21  C   UNL     1       2.407   1.946  18.727  0.00  0.00    +0.000 C 
BRANCH  21  22
ATOM     22  O   UNL     1       3.339   1.980  17.651  0.00  0.00    +0.000 OA
ATOM     23  H   UNL     1       2.869   1.646  16.864  0.00  0.00    +0.000 HD
ENDBRANCH  21  22
ENDBRANCH  18  21
ENDBRANCH  17  18
BRANCH  17  24
ATOM     24  O   UNL     1       4.208   2.589  20.468  0.00  0.00    +0.000 OA
ATOM     25  H   UNL     1       5.140   2.863  20.339  0.00  0.00    +0.000 HD
ENDBRANCH  17  24
ENDBRANCH   2  17
TORSDOF 12
ENDMDL
MODEL 3
REMARK VINA RESULT:      -6.8      1.238      1.548
REMARK  Name = 
REMARK  15 active torsions:
REMARK  status: ('A' for Active; 'I' for Inactive)
REMARK    1  A    between atoms: C_1  and  C_2
REMARK    2  A    between atoms: C_2  and  C_3
REMARK    3  A    between atoms: C_3  and  C_4
REMARK    4  A    between atoms: C_4  and  C_5
REMARK    5  A    between atoms: C_5  and  C_6
REMARK    6  A    between atoms: C_8  and  C_9
REMARK    7  A    between atoms: C_9  and  C_10
REMARK    8  A    between atoms: C_10  and  N_11
REMARK    9  A    between atoms: C_12  and  C_14
REMARK   10  A    between atoms: C_14  and  O_15
REMARK   11  A    between atoms: C_14  and  C_16
REMARK   12  A    between atoms: C_16  and  C_17
REMARK   13  A    between atoms: C_16  and  C_18
REMARK   14  A    between atoms: C_16  and  C_19
REMARK   15  A    between atoms: C_19  and  O_20
REMARK                            x       y       z     vdW  Elec       q    Type
REMARK                         _______ _______ _______ _____ _____    ______ ____
ROOT
ATOM      1  N   UNL     1       4.975   4.851  18.848  0.00  0.00    +0.000 N 
ATOM      2  C   UNL     1       4.573   3.589  19.220  0.00  0.00    +0.000 C 
ATOM      3  O   UNL     1       5.244   2.846  19.936  0.00  0.00    +0.000 OA
ATOM      4  H   UNL     1       4.317   5.469  18.388  0.00  0.00    +0.000 HD
ENDROOT
BRANCH   1   5
ATOM      5  C   UNL     1       6.296   5.356  19.161  0.00  0.00    +0.000 C 
BRANCH   5   6
ATOM      6  C   UNL     1       7.351   4.936  18.137  0.00  0.00    +0.000 C 
BRANCH   6   9
ATOM      7  C   UNL     1       6.007   4.521  14.740  0.00  0.00    +0.000 A 
ATOM      8  C   UNL     1       6.581   3.876  15.859  0.00  0.00    +0.000 A 
ATOM      9  C   UNL     1       6.803   4.889  16.759  0.00  0.00    +0.000 A 
ATOM     10  O   UNL     1       6.418   6.069  16.203  0.00  0.00    +0.000 OA
ATOM     11  N   UNL     1       5.900   5.840  14.944  0.00  0.00    +0.000 NA
BRANCH   7  12
ATOM     12  C   UNL     1       5.536   3.913  13.468  0.00  0.00    +0.000 C 
BRANCH  12  13
ATOM     13  C   UNL     1       6.536   4.092  12.325  0.00  0.00    +0.000 C 
BRANCH  13  14
ATOM     14  C   UNL     1       6.933   2.744  11.727  0.00  0.00    +0.000 C 
BRANCH  14  16
ATOM     15  C   UNL     1       6.102   0.447  11.137  0.00  0.00    +0.000 C 
ATOM     16  C   UNL     1       5.707   1.886  11.424  0.00  0.00    +0.000 C 
ENDBRANCH  14  16
ENDBRANCH  13  14
ENDBRANCH  12  13
ENDBRANCH   7  12
ENDBRANCH   6   9
ENDBRANCH   5   6
ENDBRANCH   1   5
BRANCH   2  17
ATOM     17  C   UNL     1       3.202   3.149  18.674  0.00  0.00    +0.000 C 
BRANCH  17  18
ATOM     18  C   UNL     1       2.024   3.424  19.652  0.00  0.00    +0.000 C 
ATOM     19  C   UNL     1       0.701   2.860  19.096  0.00  0.00    +0.000 C 
ATOM     20  C   UNL     1       2.284   2.798  21.038  0.00  0.00    +0.000 C 
BRANCH  18  21
ATOM     21  C   UNL     1       1.869   4.949  19.850  0.00  0.00    +0.000 C 
BRANCH  21  22
ATOM     22  O   UNL     1       2.523   5.381  21.039  0.00  0.00    +0.000 OA
ATOM     23  H   UNL     1       3.460   5.123  20.952  0.00  0.00    +0.000 HD
ENDBRANCH  21  22
ENDBRANCH  18  21
ENDBRANCH  17  18
BRANCH  17  24
ATOM     24  O   UNL     1       2.974   3.819  17.429  0.00  0.00    +0.000 OA
ATOM     25  H   UNL     1       3.799   4.309  17.235  0.00  0.00    +0.000 HD
ENDBRANCH  17  24
ENDBRANCH   2  17
TORSDOF 12
ENDMDL
MODEL 4
REMARK VINA RESULT:      -6.7      1.316      1.877
REMARK  Name = 
REMARK  15 active torsions:
REMARK  status: ('A' for Active; 'I' for Inactive)
REMARK    1  A    between atoms: C_1  and  C_2
REMARK    2  A    between atoms: C_2  and  C_3
REMARK    3  A    between atoms: C_3  and  C_4
REMARK    4  A    between atoms: C_4  and  C_5
REMARK    5  A    between atoms: C_5  and  C_6
REMARK    6  A    between atoms: C_8  and  C_9
REMARK    7  A    between atoms: C_9  and  C_10
REMARK    8  A    between atoms: C_10  and  N_11
REMARK    9  A    between atoms: C_12  and  C_14
REMARK   10  A    between atoms: C_14  and  O_15
REMARK   11  A    between atoms: C_14  and  C_16
REMARK   12  A    between atoms: C_16  and  C_17
REMARK   13  A    between atoms: C_16  and  C_18
REMARK   14  A    between atoms: C_16  and  C_19
REMARK   15  A    between atoms: C_19  and  O_20
REMARK                            x       y       z     vdW  Elec       q    Type
REMARK                         _______ _______ _______ _____ _____    ______ ____
ROOT
ATOM      1  N   UNL     1       6.334   4.571  19.371  0.00  0.00    +0.000 N 
ATOM      2  C   UNL     1       4.963   4.688  19.376  0.00  0.00    +0.000 C 
ATOM      3  O   UNL     1       4.373   5.759  19.514  0.00  0.00    +0.000 OA
ATOM      4  H   UNL     1       6.759   3.691  19.102  0.00  0.00    +0.000 HD
ENDROOT
BRANCH   1   5
ATOM      5  C   UNL     1       7.198   5.694  19.671  0.00  0.00    +0.000 C 
BRANCH   5   6
ATOM      6  C   UNL     1       7.660   6.440  18.419  0.00  0.00    +0.000 C 
BRANCH   6   9
ATOM      7  C   UNL     1       6.456   4.949  15.281  0.00  0.00    +0.000 A 
ATOM      8  C   UNL     1       6.279   5.982  16.231  0.00  0.00    +0.000 A 
ATOM      9  C   UNL     1       7.250   5.746  17.173  0.00  0.00    +0.000 A 
ATOM     10  O   UNL     1       7.941   4.628  16.828  0.00  0.00    +0.000 OA
ATOM     11  N   UNL     1       7.459   4.135  15.632  0.00  0.00    +0.000 NA
BRANCH   7  12
ATOM     12  C   UNL     1       5.698   4.716  14.024  0.00  0.00    +0.000 C 
BRANCH  12  13
ATOM     13  C   UNL     1       6.056   3.386  13.359  0.00  0.00    +0.000 C 
BRANCH  13  14
ATOM     14  C   UNL     1       5.935   3.483  11.839  0.00  0.00    +0.000 C 
BRANCH  14  16
ATOM     15  C   UNL     1       3.677   3.635  10.747  0.00  0.00    +0.000 C 
ATOM     16  C   UNL     1       4.728   2.702  11.326  0.00  0.00    +0.000 C 
ENDBRANCH  14  16
ENDBRANCH  13  14
ENDBRANCH  12  13
ENDBRANCH   7  12
ENDBRANCH   6   9
ENDBRANCH   5   6
ENDBRANCH   1   5
BRANCH   2  17
ATOM     17  C   UNL     1       4.191   3.368  19.194  0.00  0.00    +0.000 C 
BRANCH  17  18
ATOM     18  C   UNL     1       2.651   3.556  19.087  0.00  0.00    +0.000 C 
ATOM     19  C   UNL     1       2.079   4.182  20.375  0.00  0.00    +0.000 C 
ATOM     20  C   UNL     1       2.274   4.455  17.892  0.00  0.00    +0.000 C 
BRANCH  18  21
ATOM     21  C   UNL     1       1.982   2.180  18.866  0.00  0.00    +0.000 C 
BRANCH  21  22
ATOM     22  O   UNL     1       2.036   1.798  17.495  0.00  0.00    +0.000 OA
ATOM     23  H   UNL     1       1.162   1.425  17.276  0.00  0.00    +0.000 HD
ENDBRANCH  21  22
ENDBRANCH  18  21
ENDBRANCH  17  18
BRANCH  17  24
ATOM     24  O   UNL     1       4.688   2.710  18.023  0.00  0.00    +0.000 OA
ATOM     25  H   UNL     1       4.079   1.960  17.861  0.00  0.00    +0.000 HD
ENDBRANCH  17  24
ENDBRANCH   2  17
TORSDOF 12
ENDMDL
MODEL 5
REMARK VINA RESULT:      -6.7      1.185      1.265
REMARK  Name = 
REMARK  15 active torsions:
REMARK  status: ('A' for Active; 'I' for Inactive)
REMARK    1  A    between atoms: C_1  and  C_2
REMARK    2  A    between atoms: C_2  and  C_3
REMARK    3  A    between atoms: C_3  and  C_4
REMARK    4  A    between atoms: C_4  and  C_5
REMARK    5  A    between atoms: C_5  and  C_6
REMARK    6  A    between atoms: C_8  and  C_9
REMARK    7  A    between atoms: C_9  and  C_10
REMARK    8  A    between atoms: C_10  and  N_11
REMARK    9  A    between atoms: C_12  and  C_14
REMARK   10  A    between atoms: C_14  and  O_15
REMARK   11  A    between atoms: C_14  and  C_16
REMARK   12  A    between atoms: C_16  and  C_17
REMARK   13  A    between atoms: C_16  and  C_18
REMARK   14  A    between atoms: C_16  and  C_19
REMARK   15  A    between atoms: C_19  and  O_20
REMARK                            x       y       z     vdW  Elec       q    Type
REMARK                         _______ _______ _______ _____ _____    ______ ____
ROOT
ATOM      1  N   UNL     1       3.908   5.033  17.980  0.00  0.00    +0.000 N 
ATOM      2  C   UNL     1       4.431   4.140  18.887  0.00  0.00    +0.000 C 
ATOM      3  O   UNL     1       5.456   4.351  19.535  0.00  0.00    +0.000 OA
ATOM      4  H   UNL     1       2.986   4.870  17.594  0.00  0.00    +0.000 HD
ENDROOT
BRANCH   1   5
ATOM      5  C   UNL     1       4.609   6.246  17.612  0.00  0.00    +0.000 C 
BRANCH   5   6
ATOM      6  C   UNL     1       6.112   6.032  17.427  0.00  0.00    +0.000 C 
BRANCH   6   9
ATOM      7  C   UNL     1       6.645   4.598  14.083  0.00  0.00    +0.000 A 
ATOM      8  C   UNL     1       5.787   4.667  15.205  0.00  0.00    +0.000 A 
ATOM      9  C   UNL     1       6.438   5.501  16.080  0.00  0.00    +0.000 A 
ATOM     10  O   UNL     1       7.623   5.881  15.532  0.00  0.00    +0.000 OA
ATOM     11  N   UNL     1       7.748   5.333  14.272  0.00  0.00    +0.000 NA
BRANCH   7  12
ATOM     12  C   UNL     1       6.439   3.857  12.811  0.00  0.00    +0.000 C 
BRANCH  12  13
ATOM     13  C   UNL     1       4.973   3.491  12.574  0.00  0.00    +0.000 C 
BRANCH  13  14
ATOM     14  C   UNL     1       4.753   3.011  11.141  0.00  0.00    +0.000 C 
BRANCH  14  16
ATOM     15  C   UNL     1       3.108   4.102   9.587  0.00  0.00    +0.000 C 
ATOM     16  C   UNL     1       3.285   3.123  10.735  0.00  0.00    +0.000 C 
ENDBRANCH  14  16
ENDBRANCH  13  14
ENDBRANCH  12  13
ENDBRANCH   7  12
ENDBRANCH   6   9
ENDBRANCH   5   6
ENDBRANCH   1   5
BRANCH   2  17
ATOM     17  C   UNL     1       3.639   2.829  19.048  0.00  0.00    +0.000 C 
BRANCH  17  18
ATOM     18  C   UNL     1       2.217   3.028  19.646  0.00  0.00    +0.000 C 
ATOM     19  C   UNL     1       1.360   1.759  19.470  0.00  0.00    +0.000 C 
ATOM     20  C   UNL     1       2.280   3.377  21.147  0.00  0.00    +0.000 C 
BRANCH  18  21
ATOM     21  C   UNL     1       1.518   4.203  18.923  0.00  0.00    +0.000 C 
BRANCH  21  22
ATOM     22  O   UNL     1       1.160   3.846  17.592  0.00  0.00    +0.000 OA
ATOM     23  H   UNL     1       1.974   3.910  17.058  0.00  0.00    +0.000 HD
ENDBRANCH  21  22
ENDBRANCH  18  21
ENDBRANCH  17  18
BRANCH  17  24
ATOM     24  O   UNL     1       3.549   2.194  17.768  0.00  0.00    +0.000 OA
ATOM     25  H   UNL     1       2.828   1.535  17.848  0.00  0.00    +0.000 HD
ENDBRANCH  17  24
ENDBRANCH   2  17
TORSDOF 12
ENDMDL
MODEL 6
REMARK VINA RESULT:      -6.7      1.442      1.888
REMARK  Name = 
REMARK  15 active torsions:
REMARK  status: ('A' for Active; 'I' for Inactive)
REMARK    1  A    between atoms: C_1  and  C_2
REMARK    2  A    between atoms: C_2  and  C_3
REMARK    3  A    between atoms: C_3  and  C_4
REMARK    4  A    between atoms: C_4  and  C_5
REMARK    5  A    between atoms: C_5  and  C_6
REMARK    6  A    between atoms: C_8  and  C_9
REMARK    7  A    between atoms: C_9  and  C_10
REMARK    8  A    between atoms: C_10  and  N_11
REMARK    9  A    between atoms: C_12  and  C_14
REMARK   10  A    between atoms: C_14  and  O_15
REMARK   11  A    between atoms: C_14  and  C_16
REMARK   12  A    between atoms: C_16  and  C_17
REMARK   13  A    between atoms: C_16  and  C_18
REMARK   14  A    between atoms: C_16  and  C_19
REMARK   15  A    between atoms: C_19  and  O_20
REMARK                            x       y       z     vdW  Elec       q    Type
REMARK                         _______ _______ _______ _____ _____    ______ ____
ROOT
ATOM      1  N   UNL     1       5.411   5.232  19.101  0.00  0.00    +0.000 N 
ATOM      2  C   UNL     1       4.779   4.020  19.256  0.00  0.00    +0.000 C 
ATOM      3  O   UNL     1       5.319   3.030  19.750  0.00  0.00    +0.000 OA
ATOM      4  H   UNL     1       4.871   6.046  18.831  0.00  0.00    +0.000 HD
ENDROOT
BRANCH   1   5
ATOM      5  C   UNL     1       6.822   5.399  19.383  0.00  0.00    +0.000 C 
BRANCH   5   6
ATOM      6  C   UNL     1       7.661   5.604  18.121  0.00  0.00    +0.000 C 
BRANCH   6   9
ATOM      7  C   UNL     1       5.719   4.893  15.080  0.00  0.00    +0.000 A 
ATOM      8  C   UNL     1       6.566   4.362  16.080  0.00  0.00    +0.000 A 
ATOM      9  C   UNL     1       6.858   5.436  16.884  0.00  0.00    +0.000 A 
ATOM     10  O   UNL     1       6.253   6.544  16.381  0.00  0.00    +0.000 OA
ATOM     11  N   UNL     1       5.521   6.205  15.261  0.00  0.00    +0.000 NA
BRANCH   7  12
ATOM     12  C   UNL     1       5.069   4.179  13.950  0.00  0.00    +0.000 C 
BRANCH  12  13
ATOM     13  C   UNL     1       6.079   3.650  12.931  0.00  0.00    +0.000 C 
BRANCH  13  14
ATOM     14  C   UNL     1       5.371   3.065  11.710  0.00  0.00    +0.000 C 
BRANCH  14  16
ATOM     15  C   UNL     1       7.324   1.672  10.963  0.00  0.00    +0.000 C 
ATOM     16  C   UNL     1       5.868   1.656  11.399  0.00  0.00    +0.000 C 
ENDBRANCH  14  16
ENDBRANCH  13  14
ENDBRANCH  12  13
ENDBRANCH   7  12
ENDBRANCH   6   9
ENDBRANCH   5   6
ENDBRANCH   1   5
BRANCH   2  17
ATOM     17  C   UNL     1       3.321   3.973  18.764  0.00  0.00    +0.000 C 
BRANCH  17  18
ATOM     18  C   UNL     1       2.275   4.238  19.884  0.00  0.00    +0.000 C 
ATOM     19  C   UNL     1       2.688   3.550  21.201  0.00  0.00    +0.000 C 
ATOM     20  C   UNL     1       2.103   5.748  20.150  0.00  0.00    +0.000 C 
BRANCH  18  21
ATOM     21  C   UNL     1       0.902   3.682  19.443  0.00  0.00    +0.000 C 
BRANCH  21  22
ATOM     22  O   UNL     1       0.359   2.811  20.431  0.00  0.00    +0.000 OA
ATOM     23  H   UNL     1      -0.611   2.893  20.371  0.00  0.00    +0.000 HD
ENDBRANCH  21  22
ENDBRANCH  18  21
ENDBRANCH  17  18
BRANCH  17  24
ATOM     24  O   UNL     1       3.166   4.932  17.711  0.00  0.00    +0.000 OA
ATOM     25  H   UNL     1       2.310   5.378  17.881  0.00  0.00    +0.000 HD
ENDBRANCH  17  24
ENDBRANCH   2  17
TORSDOF 12
ENDMDL
MODEL 7
REMARK VINA RESULT:      -6.7      1.630      2.259
REMARK  Name = 
REMARK  15 active torsions:
REMARK  status: ('A' for Active; 'I' for Inactive)
REMARK    1  A    between atoms: C_1  and  C_2
REMARK    2  A    between atoms: C_2  and  C_3
REMARK    3  A    between atoms: C_3  and  C_4
REMARK    4  A    between atoms: C_4  and  C_5
REMARK    5  A    between atoms: C_5  and  C_6
REMARK    6  A    between atoms: C_8  and  C_9
REMARK    7  A    between atoms: C_9  and  C_10
REMARK    8  A    between atoms: C_10  and  N_11
REMARK    9  A    between atoms: C_12  and  C_14
REMARK   10  A    between atoms: C_14  and  O_15
REMARK   11  A    between atoms: C_14  and  C_16
REMARK   12  A    between atoms: C_16  and  C_17
REMARK   13  A    between atoms: C_16  and  C_18
REMARK   14  A    between atoms: C_16  and  C_19
REMARK   15  A    between atoms: C_19  and  O_20
REMARK                            x       y       z     vdW  Elec       q    Type
REMARK                         _______ _______ _______ _____ _____    ______ ____
ROOT
ATOM      1  N   UNL     1       5.628   4.849  19.359  0.00  0.00    +0.000 N 
ATOM      2  C   UNL     1       4.743   3.852  19.021  0.00  0.00    +0.000 C 
ATOM      3  O   UNL     1       4.890   3.113  18.048  0.00  0.00    +0.000 OA
ATOM      4  H   UNL     1       5.534   5.320  20.251  0.00  0.00    +0.000 HD
ENDROOT
BRANCH   1   5
ATOM      5  C   UNL     1       6.743   5.201  18.505  0.00  0.00    +0.000 C 
BRANCH   5   6
ATOM      6  C   UNL     1       6.351   6.157  17.377  0.00  0.00    +0.000 C 
BRANCH   6   9
ATOM      7  C   UNL     1       6.233   4.470  14.113  0.00  0.00    +0.000 A 
ATOM      8  C   UNL     1       5.549   4.728  15.323  0.00  0.00    +0.000 A 
ATOM      9  C   UNL     1       6.419   5.507  16.045  0.00  0.00    +0.000 A 
ATOM     10  O   UNL     1       7.562   5.677  15.329  0.00  0.00    +0.000 OA
ATOM     11  N   UNL     1       7.442   5.044  14.108  0.00  0.00    +0.000 NA
BRANCH   7  12
ATOM     12  C   UNL     1       5.760   3.694  12.937  0.00  0.00    +0.000 C 
BRANCH  12  13
ATOM     13  C   UNL     1       6.801   3.628  11.818  0.00  0.00    +0.000 C 
BRANCH  13  14
ATOM     14  C   UNL     1       7.340   2.208  11.653  0.00  0.00    +0.000 C 
BRANCH  14  16
ATOM     15  C   UNL     1       6.276  -0.053  11.390  0.00  0.00    +0.000 C 
ATOM     16  C   UNL     1       6.397   1.349  10.815  0.00  0.00    +0.000 C 
ENDBRANCH  14  16
ENDBRANCH  13  14
ENDBRANCH  12  13
ENDBRANCH   7  12
ENDBRANCH   6   9
ENDBRANCH   5   6
ENDBRANCH   1   5
BRANCH   2  17
ATOM     17  C   UNL     1       3.527   3.710  19.955  0.00  0.00    +0.000 C 
BRANCH  17  18
ATOM     18  C   UNL     1       2.161   3.874  19.230  0.00  0.00    +0.000 C 
ATOM     19  C   UNL     1       2.193   5.063  18.250  0.00  0.00    +0.000 C 
ATOM     20  C   UNL     1       1.781   2.600  18.448  0.00  0.00    +0.000 C 
BRANCH  18  21
ATOM     21  C   UNL     1       1.053   4.125  20.278  0.00  0.00    +0.000 C 
BRANCH  21  22
ATOM     22  O   UNL     1       0.681   2.916  20.933  0.00  0.00    +0.000 OA
ATOM     23  H   UNL     1       1.287   2.812  21.690  0.00  0.00    +0.000 HD
ENDBRANCH  21  22
ENDBRANCH  18  21
ENDBRANCH  17  18
BRANCH  17  24
ATOM     24  O   UNL     1       3.593   2.431  20.595  0.00  0.00    +0.000 OA
ATOM     25  H   UNL     1       3.505   2.608  21.555  0.00  0.00    +0.000 HD
ENDBRANCH  17  24
ENDBRANCH   2  17
TORSDOF 12
ENDMDL
MODEL 8
REMARK VINA RESULT:      -6.7      1.465      2.349
REMARK  Name = 
REMARK  15 active torsions:
REMARK  status: ('A' for Active; 'I' for Inactive)
REMARK    1  A    between atoms: C_1  and  C_2
REMARK    2  A    between atoms: C_2  and  C_3
REMARK    3  A    between atoms: C_3  and  C_4
REMARK    4  A    between atoms: C_4  and  C_5
REMARK    5  A    between atoms: C_5  and  C_6
REMARK    6  A    between atoms: C_8  and  C_9
REMARK    7  A    between atoms: C_9  and  C_10
REMARK    8  A    between atoms: C_10  and  N_11
REMARK    9  A    between atoms: C_12  and  C_14
REMARK   10  A    between atoms: C_14  and  O_15
REMARK   11  A    between atoms: C_14  and  C_16
REMARK   12  A    between atoms: C_16  and  C_17
REMARK   13  A    between atoms: C_16  and  C_18
REMARK   14  A    between atoms: C_16  and  C_19
REMARK   15  A    between atoms: C_19  and  O_20
REMARK                            x       y       z     vdW  Elec       q    Type
REMARK                         _______ _______ _______ _____ _____    ______ ____
ROOT
ATOM      1  N   UNL     1       3.606   5.830  18.833  0.00  0.00    +0.000 N 
ATOM      2  C   UNL     1       2.599   4.936  18.553  0.00  0.00    +0.000 C 
ATOM      3  O   UNL     1       2.391   4.476  17.431  0.00  0.00    +0.000 OA
ATOM      4  H   UNL     1       3.822   6.053  19.798  0.00  0.00    +0.000 HD
ENDROOT
BRANCH   1   5
ATOM      5  C   UNL     1       4.423   6.412  17.788  0.00  0.00    +0.000 C 
BRANCH   5   6
ATOM      6  C   UNL     1       5.868   5.910  17.814  0.00  0.00    +0.000 C 
BRANCH   6   9
ATOM      7  C   UNL     1       6.755   4.915  14.387  0.00  0.00    +0.000 A 
ATOM      8  C   UNL     1       5.769   5.491  15.222  0.00  0.00    +0.000 A 
ATOM      9  C   UNL     1       6.324   5.456  16.477  0.00  0.00    +0.000 A 
ATOM     10  O   UNL     1       7.548   4.868  16.405  0.00  0.00    +0.000 OA
ATOM     11  N   UNL     1       7.830   4.544  15.093  0.00  0.00    +0.000 NA
BRANCH   7  12
ATOM     12  C   UNL     1       6.712   4.716  12.915  0.00  0.00    +0.000 C 
BRANCH  12  13
ATOM     13  C   UNL     1       6.048   3.396  12.519  0.00  0.00    +0.000 C 
BRANCH  13  14
ATOM     14  C   UNL     1       4.541   3.571  12.342  0.00  0.00    +0.000 C 
BRANCH  14  16
ATOM     15  C   UNL     1       3.311   3.915  10.178  0.00  0.00    +0.000 C 
ATOM     16  C   UNL     1       4.052   2.917  11.052  0.00  0.00    +0.000 C 
ENDBRANCH  14  16
ENDBRANCH  13  14
ENDBRANCH  12  13
ENDBRANCH   7  12
ENDBRANCH   6   9
ENDBRANCH   5   6
ENDBRANCH   1   5
BRANCH   2  17
ATOM     17  C   UNL     1       1.725   4.535  19.756  0.00  0.00    +0.000 C 
BRANCH  17  18
ATOM     18  C   UNL     1       1.670   3.001  20.003  0.00  0.00    +0.000 C 
ATOM     19  C   UNL     1       1.435   2.689  21.495  0.00  0.00    +0.000 C 
ATOM     20  C   UNL     1       0.549   2.336  19.178  0.00  0.00    +0.000 C 
BRANCH  18  21
ATOM     21  C   UNL     1       3.009   2.364  19.568  0.00  0.00    +0.000 C 
BRANCH  21  22
ATOM     22  O   UNL     1       2.835   1.531  18.427  0.00  0.00    +0.000 OA
ATOM     23  H   UNL     1       2.900   0.610  18.742  0.00  0.00    +0.000 HD
ENDBRANCH  21  22
ENDBRANCH  18  21
ENDBRANCH  17  18
BRANCH  17  24
ATOM     24  O   UNL     1       2.222   5.203  20.921  0.00  0.00    +0.000 OA
ATOM     25  H   UNL     1       1.745   6.058  20.962  0.00  0.00    +0.000 HD
ENDBRANCH  17  24
ENDBRANCH   2  17
TORSDOF 12
ENDMDL
MODEL 9
REMARK VINA RESULT:      -6.6      1.048      1.177
REMARK  Name = 
REMARK  15 active torsions:
REMARK  status: ('A' for Active; 'I' for Inactive)
REMARK    1  A    between atoms: C_1  and  C_2
REMARK    2  A    between atoms: C_2  and  C_3
REMARK    3  A    between atoms: C_3  and  C_4
REMARK    4  A    between atoms: C_4  and  C_5
REMARK    5  A    between atoms: C_5  and  C_6
REMARK    6  A    between atoms: C_8  and  C_9
REMARK    7  A    between atoms: C_9  and  C_10
REMARK    8  A    between atoms: C_10  and  N_11
REMARK    9  A    between atoms: C_12  and  C_14
REMARK   10  A    between atoms: C_14  and  O_15
REMARK   11  A    between atoms: C_14  and  C_16
REMARK   12  A    between atoms: C_16  and  C_17
REMARK   13  A    between atoms: C_16  and  C_18
REMARK   14  A    between atoms: C_16  and  C_19
REMARK   15  A    between atoms: C_19  and  O_20
REMARK                            x       y       z     vdW  Elec       q    Type
REMARK                         _______ _______ _______ _____ _____    ______ ____
ROOT
ATOM      1  N   UNL     1       4.805   4.228  19.308  0.00  0.00    +0.000 N 
ATOM      2  C   UNL     1       4.214   3.161  18.673  0.00  0.00    +0.000 C 
ATOM      3  O   UNL     1       4.676   2.629  17.664  0.00  0.00    +0.000 OA
ATOM      4  H   UNL     1       4.462   4.523  20.214  0.00  0.00    +0.000 HD
ENDROOT
BRANCH   1   5
ATOM      5  C   UNL     1       5.958   4.905  18.750  0.00  0.00    +0.000 C 
BRANCH   5   6
ATOM      6  C   UNL     1       5.589   5.892  17.641  0.00  0.00    +0.000 C 
BRANCH   6   9
ATOM      7  C   UNL     1       6.533   4.710  14.290  0.00  0.00    +0.000 A 
ATOM      8  C   UNL     1       5.510   4.775  15.264  0.00  0.00    +0.000 A 
ATOM      9  C   UNL     1       6.083   5.450  16.314  0.00  0.00    +0.000 A 
ATOM     10  O   UNL     1       7.374   5.741  16.002  0.00  0.00    +0.000 OA
ATOM     11  N   UNL     1       7.655   5.296  14.726  0.00  0.00    +0.000 NA
BRANCH   7  12
ATOM     12  C   UNL     1       6.472   4.112  12.930  0.00  0.00    +0.000 C 
BRANCH  12  13
ATOM     13  C   UNL     1       5.041   3.800  12.489  0.00  0.00    +0.000 C 
BRANCH  13  14
ATOM     14  C   UNL     1       5.005   2.578  11.572  0.00  0.00    +0.000 C 
BRANCH  14  16
ATOM     15  C   UNL     1       3.385   4.083  10.378  0.00  0.00    +0.000 C 
ATOM     16  C   UNL     1       3.830   2.646  10.600  0.00  0.00    +0.000 C 
ENDBRANCH  14  16
ENDBRANCH  13  14
ENDBRANCH  12  13
ENDBRANCH   7  12
ENDBRANCH   6   9
ENDBRANCH   5   6
ENDBRANCH   1   5
BRANCH   2  17
ATOM     17  C   UNL     1       2.907   2.658  19.314  0.00  0.00    +0.000 C 
BRANCH  17  18
ATOM     18  C   UNL     1       1.691   3.597  19.072  0.00  0.00    +0.000 C 
ATOM     19  C   UNL     1       0.389   2.787  18.917  0.00  0.00    +0.000 C 
ATOM     20  C   UNL     1       1.514   4.600  20.231  0.00  0.00    +0.000 C 
BRANCH  18  21
ATOM     21  C   UNL     1       1.925   4.413  17.780  0.00  0.00    +0.000 C 
BRANCH  21  22
ATOM     22  O   UNL     1       2.165   5.785  18.077  0.00  0.00    +0.000 OA
ATOM     23  H   UNL     1       2.273   5.846  19.044  0.00  0.00    +0.000 HD
ENDBRANCH  21  22
ENDBRANCH  18  21
ENDBRANCH  17  18
BRANCH  17  24
ATOM     24  O   UNL     1       2.626   1.349  18.805  0.00  0.00    +0.000 OA
ATOM     25  H   UNL     1       2.168   0.874  19.529  0.00  0.00    +0.000 HD
ENDBRANCH  17  24
ENDBRANCH   2  17
TORSDOF 12
ENDMDL
