MODEL 1
REMARK VINA RESULT:      -7.4      0.000      0.000
REMARK  Name = 
REMARK  10 active torsions:
REMARK  status: ('A' for Active; 'I' for Inactive)
REMARK    1  A    between atoms: C_1  and  O_2
REMARK    2  A    between atoms: O_2  and  C_3
REMARK    3  A    between atoms: C_3  and  C_4
REMARK    4  A    between atoms: C_13  and  N_14
REMARK    5  A    between atoms: C_17  and  O_18
REMARK    6  A    between atoms: O_18  and  C_19
REMARK    7  A    between atoms: C_22  and  C_23
REMARK    8  A    between atoms: C_23  and  C_24
REMARK    9  A    between atoms: C_23  and  N_25
REMARK   10  A    between atoms: C_26  and  C_27
REMARK                            x       y       z     vdW  Elec       q    Type
REMARK                         _______ _______ _______ _____ _____    ______ ____
ROOT
ATOM      1  N   UNL     1      -0.252   9.603  20.663  0.00  0.00    +0.000 N 
ATOM      2  C   UNL     1      -0.124   9.330  22.100  0.00  0.00    +0.000 C 
ATOM      3  C   UNL     1       1.345   8.982  22.286  0.00  0.00    +0.000 C 
ATOM      4  C   UNL     1       1.663   8.192  21.024  0.00  0.00    +0.000 C 
ATOM      5  C   UNL     1       0.887   8.987  19.953  0.00  0.00    +0.000 C 
ENDROOT
BRANCH   1  15
ATOM      6  C   UNL     1      -2.303  15.709  23.132  0.00  0.00    +0.000 C 
ATOM      7  C   UNL     1      -2.327  14.418  23.945  0.00  0.00    +0.000 C 
ATOM      8  C   UNL     1      -1.219  13.563  23.328  0.00  0.00    +0.000 C 
ATOM      9  N   UNL     1      -1.142  14.020  21.948  0.00  0.00    +0.000 N 
ATOM     10  C   UNL     1      -1.128  13.074  20.942  0.00  0.00    +0.000 A 
ATOM     11  N   UNL     1      -1.562  13.423  19.726  0.00  0.00    +0.000 NA
ATOM     12  C   UNL     1      -1.618  12.452  18.799  0.00  0.00    +0.000 A 
ATOM     13  C   UNL     1      -1.229  11.148  19.015  0.00  0.00    +0.000 A 
ATOM     14 CL   UNL     1      -1.483  10.022  17.736  0.00  0.00    +0.000 Cl
ATOM     15  C   UNL     1      -0.712  10.862  20.274  0.00  0.00    +0.000 A 
ATOM     16  N   UNL     1      -0.686  11.835  21.216  0.00  0.00    +0.000 NA
ATOM     17  C   UNL     1      -1.959  15.212  21.724  0.00  0.00    +0.000 C 
BRANCH   6  18
ATOM     18  C   UNL     1      -1.281  16.718  23.651  0.00  0.00    +0.000 C 
BRANCH  18  20
ATOM     19  C   UNL     1      -1.605  17.680  25.780  0.00  0.00    +0.000 C 
ATOM     20  O   UNL     1      -1.151  16.541  25.062  0.00  0.00    +0.000 OA
ENDBRANCH  18  20
ENDBRANCH   6  18
ENDBRANCH   1  15
BRANCH   4  21
ATOM     21  O   UNL     1       1.142   6.855  21.089  0.00  0.00    +0.000 OA
BRANCH  21  22
ATOM     22  C   UNL     1       1.735   5.960  20.241  0.00  0.00    +0.000 A 
ATOM     23  C   UNL     1       1.285   4.652  20.048  0.00  0.00    +0.000 A 
ATOM     24  C   UNL     1       1.943   3.806  19.159  0.00  0.00    +0.000 A 
ATOM     25  C   UNL     1       3.069   4.245  18.460  0.00  0.00    +0.000 A 
ATOM     26  C   UNL     1       3.501   5.571  18.635  0.00  0.00    +0.000 A 
ATOM     27  C   UNL     1       2.828   6.426  19.514  0.00  0.00    +0.000 A 
BRANCH  25  28
ATOM     28  C   UNL     1       3.812   3.264  17.575  0.00  0.00    +0.000 C 
ATOM     29  C   UNL     1       3.619   1.836  18.088  0.00  0.00    +0.000 C 
BRANCH  28  30
ATOM     30  N   UNL     1       5.215   3.617  17.472  0.00  0.00    +0.000 N 
ATOM     31  C   UNL     1       5.740   4.149  16.319  0.00  0.00    +0.000 C 
ATOM     32  C   UNL     1       7.222   4.412  16.370  0.00  0.00    +0.000 C 
ATOM     33  O   UNL     1       5.076   4.389  15.316  0.00  0.00    +0.000 OA
ATOM     34  H   UNL     1       5.820   3.432  18.259  0.00  0.00    +0.000 HD
ENDBRANCH  28  30
ENDBRANCH  25  28
ENDBRANCH  21  22
ENDBRANCH   4  21
TORSDOF 7
ENDMDL
MODEL 2
REMARK VINA RESULT:      -7.2      2.852     11.237
REMARK  Name = 
REMARK  10 active torsions:
REMARK  status: ('A' for Active; 'I' for Inactive)
REMARK    1  A    between atoms: C_1  and  O_2
REMARK    2  A    between atoms: O_2  and  C_3
REMARK    3  A    between atoms: C_3  and  C_4
REMARK    4  A    between atoms: C_13  and  N_14
REMARK    5  A    between atoms: C_17  and  O_18
REMARK    6  A    between atoms: O_18  and  C_19
REMARK    7  A    between atoms: C_22  and  C_23
REMARK    8  A    between atoms: C_23  and  C_24
REMARK    9  A    between atoms: C_23  and  N_25
REMARK   10  A    between atoms: C_26  and  C_27
REMARK                            x       y       z     vdW  Elec       q    Type
REMARK                         _______ _______ _______ _____ _____    ______ ____
ROOT
ATOM      1  N   UNL     1       1.013   9.896  20.959  0.00  0.00    +0.000 N 
ATOM      2  C   UNL     1       1.388   9.240  22.218  0.00  0.00    +0.000 C 
ATOM      3  C   UNL     1       0.059   8.913  22.881  0.00  0.00    +0.000 C 
ATOM      4  C   UNL     1      -0.795  10.124  22.530  0.00  0.00    +0.000 C 
ATOM      5  C   UNL     1      -0.374  10.391  21.070  0.00  0.00    +0.000 C 
ENDROOT
BRANCH   1  15
ATOM      6  C   UNL     1       4.007   4.256  18.348  0.00  0.00    +0.000 C 
ATOM      7  C   UNL     1       4.137   4.684  19.808  0.00  0.00    +0.000 C 
ATOM      8  C   UNL     1       2.858   5.474  20.085  0.00  0.00    +0.000 C 
ATOM      9  N   UNL     1       2.484   6.015  18.786  0.00  0.00    +0.000 N 
ATOM     10  C   UNL     1       2.164   7.355  18.698  0.00  0.00    +0.000 A 
ATOM     11  N   UNL     1       2.317   7.976  17.524  0.00  0.00    +0.000 NA
ATOM     12  C   UNL     1       2.082   9.299  17.502  0.00  0.00    +0.000 A 
ATOM     13  C   UNL     1       1.668  10.034  18.591  0.00  0.00    +0.000 A 
ATOM     14 CL   UNL     1       1.530  11.740  18.392  0.00  0.00    +0.000 Cl
ATOM     15  C   UNL     1       1.450   9.322  19.765  0.00  0.00    +0.000 A 
ATOM     16  N   UNL     1       1.718   7.994  19.794  0.00  0.00    +0.000 NA
ATOM     17  C   UNL     1       3.302   5.458  17.709  0.00  0.00    +0.000 C 
BRANCH   6  18
ATOM     18  C   UNL     1       3.210   2.965  18.177  0.00  0.00    +0.000 C 
BRANCH  18  20
ATOM     19  C   UNL     1       0.895   2.732  18.561  0.00  0.00    +0.000 C 
ATOM     20  O   UNL     1       1.896   3.303  17.731  0.00  0.00    +0.000 OA
ENDBRANCH  18  20
ENDBRANCH   6  18
ENDBRANCH   1  15
BRANCH   4  21
ATOM     21  O   UNL     1      -0.457  11.265  23.335  0.00  0.00    +0.000 OA
BRANCH  21  22
ATOM     22  C   UNL     1      -1.372  12.282  23.313  0.00  0.00    +0.000 A 
ATOM     23  C   UNL     1      -1.039  13.627  23.132  0.00  0.00    +0.000 A 
ATOM     24  C   UNL     1      -2.034  14.600  23.115  0.00  0.00    +0.000 A 
ATOM     25  C   UNL     1      -3.375  14.252  23.293  0.00  0.00    +0.000 A 
ATOM     26  C   UNL     1      -3.707  12.895  23.446  0.00  0.00    +0.000 A 
ATOM     27  C   UNL     1      -2.709  11.916  23.444  0.00  0.00    +0.000 A 
BRANCH  25  28
ATOM     28  C   UNL     1      -4.415  15.352  23.364  0.00  0.00    +0.000 C 
ATOM     29  C   UNL     1      -3.813  16.612  23.988  0.00  0.00    +0.000 C 
BRANCH  28  30
ATOM     30  N   UNL     1      -5.596  14.904  24.077  0.00  0.00    +0.000 N 
ATOM     31  C   UNL     1      -6.762  14.598  23.418  0.00  0.00    +0.000 C 
ATOM     32  C   UNL     1      -7.902  14.197  24.316  0.00  0.00    +0.000 C 
ATOM     33  O   UNL     1      -6.889  14.650  22.199  0.00  0.00    +0.000 OA
ATOM     34  H   UNL     1      -5.562  14.853  25.085  0.00  0.00    +0.000 HD
ENDBRANCH  28  30
ENDBRANCH  25  28
ENDBRANCH  21  22
ENDBRANCH   4  21
TORSDOF 7
ENDMDL
MODEL 3
REMARK VINA RESULT:      -7.2      1.772      2.195
REMARK  Name = 
REMARK  10 active torsions:
REMARK  status: ('A' for Active; 'I' for Inactive)
REMARK    1  A    between atoms: C_1  and  O_2
REMARK    2  A    between atoms: O_2  and  C_3
REMARK    3  A    between atoms: C_3  and  C_4
REMARK    4  A    between atoms: C_13  and  N_14
REMARK    5  A    between atoms: C_17  and  O_18
REMARK    6  A    between atoms: O_18  and  C_19
REMARK    7  A    between atoms: C_22  and  C_23
REMARK    8  A    between atoms: C_23  and  C_24
REMARK    9  A    between atoms: C_23  and  N_25
REMARK   10  A    between atoms: C_26  and  C_27
REMARK                            x       y       z     vdW  Elec       q    Type
REMARK                         _______ _______ _______ _____ _____    ______ ____
ROOT
ATOM      1  N   UNL     1      -0.344   9.450  19.902  0.00  0.00    +0.000 N 
ATOM      2  C   UNL     1      -0.263   8.740  21.185  0.00  0.00    +0.000 C 
ATOM      3  C   UNL     1       1.222   8.732  21.515  0.00  0.00    +0.000 C 
ATOM      4  C   UNL     1       1.866   8.533  20.150  0.00  0.00    +0.000 C 
ATOM      5  C   UNL     1       0.982   9.426  19.253  0.00  0.00    +0.000 C 
ENDROOT
BRANCH   1  15
ATOM      6  C   UNL     1      -3.977  13.837  23.795  0.00  0.00    +0.000 C 
ATOM      7  C   UNL     1      -3.658  12.403  24.210  0.00  0.00    +0.000 C 
ATOM      8  C   UNL     1      -2.357  12.078  23.476  0.00  0.00    +0.000 C 
ATOM      9  N   UNL     1      -2.397  12.921  22.289  0.00  0.00    +0.000 N 
ATOM     10  C   UNL     1      -2.123  12.346  21.063  0.00  0.00    +0.000 A 
ATOM     11  N   UNL     1      -2.627  12.911  19.962  0.00  0.00    +0.000 NA
ATOM     12  C   UNL     1      -2.414  12.271  18.799  0.00  0.00    +0.000 A 
ATOM     13  C   UNL     1      -1.690  11.106  18.674  0.00  0.00    +0.000 A 
ATOM     14 CL   UNL     1      -1.623  10.376  17.115  0.00  0.00    +0.000 Cl
ATOM     15  C   UNL     1      -1.123  10.607  19.843  0.00  0.00    +0.000 A 
ATOM     16  N   UNL     1      -1.366  11.236  21.018  0.00  0.00    +0.000 NA
ATOM     17  C   UNL     1      -3.503  13.877  22.338  0.00  0.00    +0.000 C 
BRANCH   6  18
ATOM     18  C   UNL     1      -3.267  14.877  24.659  0.00  0.00    +0.000 C 
BRANCH  18  20
ATOM     19  C   UNL     1      -3.536  17.196  24.995  0.00  0.00    +0.000 C 
ATOM     20  O   UNL     1      -4.186  15.934  24.937  0.00  0.00    +0.000 OA
ENDBRANCH  18  20
ENDBRANCH   6  18
ENDBRANCH   1  15
BRANCH   4  21
ATOM     21  O   UNL     1       1.762   7.170  19.707  0.00  0.00    +0.000 OA
BRANCH  21  22
ATOM     22  C   UNL     1       2.903   6.651  19.157  0.00  0.00    +0.000 A 
ATOM     23  C   UNL     1       3.480   7.118  17.973  0.00  0.00    +0.000 A 
ATOM     24  C   UNL     1       4.647   6.537  17.484  0.00  0.00    +0.000 A 
ATOM     25  C   UNL     1       5.250   5.473  18.159  0.00  0.00    +0.000 A 
ATOM     26  C   UNL     1       4.682   5.027  19.364  0.00  0.00    +0.000 A 
ATOM     27  C   UNL     1       3.520   5.622  19.864  0.00  0.00    +0.000 A 
BRANCH  25  28
ATOM     28  C   UNL     1       6.465   4.808  17.543  0.00  0.00    +0.000 C 
ATOM     29  C   UNL     1       7.714   5.113  18.371  0.00  0.00    +0.000 C 
BRANCH  28  30
ATOM     30  N   UNL     1       6.625   5.202  16.156  0.00  0.00    +0.000 N 
ATOM     31  C   UNL     1       6.411   4.316  15.127  0.00  0.00    +0.000 C 
ATOM     32  C   UNL     1       6.669   4.878  13.754  0.00  0.00    +0.000 C 
ATOM     33  O   UNL     1       6.049   3.155  15.292  0.00  0.00    +0.000 OA
ATOM     34  H   UNL     1       6.934   6.141  15.952  0.00  0.00    +0.000 HD
ENDBRANCH  28  30
ENDBRANCH  25  28
ENDBRANCH  21  22
ENDBRANCH   4  21
TORSDOF 7
ENDMDL
MODEL 4
REMARK VINA RESULT:      -7.1      2.446      2.644
REMARK  Name = 
REMARK  10 active torsions:
REMARK  status: ('A' for Active; 'I' for Inactive)
REMARK    1  A    between atoms: C_1  and  O_2
REMARK    2  A    between atoms: O_2  and  C_3
REMARK    3  A    between atoms: C_3  and  C_4
REMARK    4  A    between atoms: C_13  and  N_14
REMARK    5  A    between atoms: C_17  and  O_18
REMARK    6  A    between atoms: O_18  and  C_19
REMARK    7  A    between atoms: C_22  and  C_23
REMARK    8  A    between atoms: C_23  and  C_24
REMARK    9  A    between atoms: C_23  and  N_25
REMARK   10  A    between atoms: C_26  and  C_27
REMARK                            x       y       z     vdW  Elec       q    Type
REMARK                         _______ _______ _______ _____ _____    ______ ____
ROOT
ATOM      1  N   UNL     1       0.091   9.640  20.018  0.00  0.00    +0.000 N 
ATOM      2  C   UNL     1      -0.258   9.491  21.437  0.00  0.00    +0.000 C 
ATOM      3  C   UNL     1       1.049   9.092  22.105  0.00  0.00    +0.000 C 
ATOM      4  C   UNL     1       1.688   8.178  21.068  0.00  0.00    +0.000 C 
ATOM      5  C   UNL     1       1.348   8.910  19.753  0.00  0.00    +0.000 C 
ENDROOT
BRANCH   1  15
ATOM      6  C   UNL     1       1.757  16.322  20.426  0.00  0.00    +0.000 C 
ATOM      7  C   UNL     1       1.859  15.352  21.600  0.00  0.00    +0.000 C 
ATOM      8  C   UNL     1       2.080  13.989  20.945  0.00  0.00    +0.000 C 
ATOM      9  N   UNL     1       1.442  14.111  19.642  0.00  0.00    +0.000 N 
ATOM     10  C   UNL     1       0.584  13.109  19.233  0.00  0.00    +0.000 A 
ATOM     11  N   UNL     1      -0.370  13.404  18.343  0.00  0.00    +0.000 NA
ATOM     12  C   UNL     1      -1.240  12.427  18.039  0.00  0.00    +0.000 A 
ATOM     13  C   UNL     1      -1.189  11.151  18.557  0.00  0.00    +0.000 A 
ATOM     14 CL   UNL     1      -2.463  10.071  18.133  0.00  0.00    +0.000 Cl
ATOM     15  C   UNL     1      -0.130  10.880  19.417  0.00  0.00    +0.000 A 
ATOM     16  N   UNL     1       0.728  11.875  19.746  0.00  0.00    +0.000 NA
ATOM     17  C   UNL     1       1.032  15.487  19.364  0.00  0.00    +0.000 C 
BRANCH   6  18
ATOM     18  C   UNL     1       3.119  16.812  19.941  0.00  0.00    +0.000 C 
BRANCH  18  20
ATOM     19  C   UNL     1       3.436  18.631  21.409  0.00  0.00    +0.000 C 
ATOM     20  O   UNL     1       3.843  17.314  21.065  0.00  0.00    +0.000 OA
ENDBRANCH  18  20
ENDBRANCH   6  18
ENDBRANCH   1  15
BRANCH   4  21
ATOM     21  O   UNL     1       1.076   6.878  21.057  0.00  0.00    +0.000 OA
BRANCH  21  22
ATOM     22  C   UNL     1       1.688   5.957  20.251  0.00  0.00    +0.000 A 
ATOM     23  C   UNL     1       1.577   4.575  20.422  0.00  0.00    +0.000 A 
ATOM     24  C   UNL     1       2.228   3.705  19.551  0.00  0.00    +0.000 A 
ATOM     25  C   UNL     1       3.011   4.197  18.505  0.00  0.00    +0.000 A 
ATOM     26  C   UNL     1       3.096   5.588  18.320  0.00  0.00    +0.000 A 
ATOM     27  C   UNL     1       2.427   6.461  19.183  0.00  0.00    +0.000 A 
BRANCH  25  28
ATOM     28  C   UNL     1       3.779   3.218  17.639  0.00  0.00    +0.000 C 
ATOM     29  C   UNL     1       3.542   1.786  18.122  0.00  0.00    +0.000 C 
BRANCH  28  30
ATOM     30  N   UNL     1       5.190   3.552  17.604  0.00  0.00    +0.000 N 
ATOM     31  C   UNL     1       5.753   4.179  16.518  0.00  0.00    +0.000 C 
ATOM     32  C   UNL     1       7.238   4.406  16.629  0.00  0.00    +0.000 C 
ATOM     33  O   UNL     1       5.120   4.524  15.526  0.00  0.00    +0.000 OA
ATOM     34  H   UNL     1       5.771   3.283  18.385  0.00  0.00    +0.000 HD
ENDBRANCH  28  30
ENDBRANCH  25  28
ENDBRANCH  21  22
ENDBRANCH   4  21
TORSDOF 7
ENDMDL
MODEL 5
REMARK VINA RESULT:      -7.1      3.367      4.575
REMARK  Name = 
REMARK  10 active torsions:
REMARK  status: ('A' for Active; 'I' for Inactive)
REMARK    1  A    between atoms: C_1  and  O_2
REMARK    2  A    between atoms: O_2  and  C_3
REMARK    3  A    between atoms: C_3  and  C_4
REMARK    4  A    between atoms: C_13  and  N_14
REMARK    5  A    between atoms: C_17  and  O_18
REMARK    6  A    between atoms: O_18  and  C_19
REMARK    7  A    between atoms: C_22  and  C_23
REMARK    8  A    between atoms: C_23  and  C_24
REMARK    9  A    between atoms: C_23  and  N_25
REMARK   10  A    between atoms: C_26  and  C_27
REMARK                            x       y       z     vdW  Elec       q    Type
REMARK                         _______ _______ _______ _____ _____    ______ ____
ROOT
ATOM      1  N   UNL     1      -2.006  11.148  18.066  0.00  0.00    +0.000 N 
ATOM      2  C   UNL     1      -1.806   9.787  18.580  0.00  0.00    +0.000 C 
ATOM      3  C   UNL     1      -0.989   9.982  19.848  0.00  0.00    +0.000 C 
ATOM      4  C   UNL     1      -0.052  11.120  19.470  0.00  0.00    +0.000 C 
ATOM      5  C   UNL     1      -0.988  12.040  18.658  0.00  0.00    +0.000 C 
ENDROOT
BRANCH   1  15
ATOM      6  C   UNL     1      -7.531  13.336  21.569  0.00  0.00    +0.000 C 
ATOM      7  C   UNL     1      -6.430  12.472  22.180  0.00  0.00    +0.000 C 
ATOM      8  C   UNL     1      -5.186  12.811  21.359  0.00  0.00    +0.000 C 
ATOM      9  N   UNL     1      -5.712  13.207  20.060  0.00  0.00    +0.000 N 
ATOM     10  C   UNL     1      -5.149  12.656  18.926  0.00  0.00    +0.000 A 
ATOM     11  N   UNL     1      -5.887  12.582  17.814  0.00  0.00    +0.000 NA
ATOM     12  C   UNL     1      -5.337  11.957  16.759  0.00  0.00    +0.000 A 
ATOM     13  C   UNL     1      -4.066  11.426  16.747  0.00  0.00    +0.000 A 
ATOM     14 CL   UNL     1      -3.579  10.562  15.338  0.00  0.00    +0.000 Cl
ATOM     15  C   UNL     1      -3.316  11.602  17.906  0.00  0.00    +0.000 A 
ATOM     16  N   UNL     1      -3.884  12.204  18.978  0.00  0.00    +0.000 NA
ATOM     17  C   UNL     1      -7.169  13.337  20.080  0.00  0.00    +0.000 C 
BRANCH   6  18
ATOM     18  C   UNL     1      -7.570  14.747  22.152  0.00  0.00    +0.000 C 
BRANCH  18  20
ATOM     19  C   UNL     1      -6.317  15.731  23.892  0.00  0.00    +0.000 C 
ATOM     20  O   UNL     1      -7.197  14.675  23.529  0.00  0.00    +0.000 OA
ENDBRANCH  18  20
ENDBRANCH   6  18
ENDBRANCH   1  15
BRANCH   4  21
ATOM     21  O   UNL     1       1.017  10.669  18.622  0.00  0.00    +0.000 OA
BRANCH  21  22
ATOM     22  C   UNL     1       1.486   9.414  18.899  0.00  0.00    +0.000 A 
ATOM     23  C   UNL     1       1.461   8.834  20.170  0.00  0.00    +0.000 A 
ATOM     24  C   UNL     1       1.953   7.546  20.364  0.00  0.00    +0.000 A 
ATOM     25  C   UNL     1       2.491   6.821  19.299  0.00  0.00    +0.000 A 
ATOM     26  C   UNL     1       2.487   7.397  18.017  0.00  0.00    +0.000 A 
ATOM     27  C   UNL     1       1.976   8.683  17.819  0.00  0.00    +0.000 A 
BRANCH  25  28
ATOM     28  C   UNL     1       3.102   5.461  19.573  0.00  0.00    +0.000 C 
ATOM     29  C   UNL     1       4.545   5.417  19.069  0.00  0.00    +0.000 C 
BRANCH  28  30
ATOM     30  N   UNL     1       2.294   4.403  18.995  0.00  0.00    +0.000 N 
ATOM     31  C   UNL     1       1.486   3.609  19.773  0.00  0.00    +0.000 C 
ATOM     32  C   UNL     1       0.756   2.531  19.017  0.00  0.00    +0.000 C 
ATOM     33  O   UNL     1       1.363   3.744  20.986  0.00  0.00    +0.000 OA
ATOM     34  H   UNL     1       2.360   4.231  18.002  0.00  0.00    +0.000 HD
ENDBRANCH  28  30
ENDBRANCH  25  28
ENDBRANCH  21  22
ENDBRANCH   4  21
TORSDOF 7
ENDMDL
MODEL 6
REMARK VINA RESULT:      -7.1      3.248      4.354
REMARK  Name = 
REMARK  10 active torsions:
REMARK  status: ('A' for Active; 'I' for Inactive)
REMARK    1  A    between atoms: C_1  and  O_2
REMARK    2  A    between atoms: O_2  and  C_3
REMARK    3  A    between atoms: C_3  and  C_4
REMARK    4  A    between atoms: C_13  and  N_14
REMARK    5  A    between atoms: C_17  and  O_18
REMARK    6  A    between atoms: O_18  and  C_19
REMARK    7  A    between atoms: C_22  and  C_23
REMARK    8  A    between atoms: C_23  and  C_24
REMARK    9  A    between atoms: C_23  and  N_25
REMARK   10  A    between atoms: C_26  and  C_27
REMARK                            x       y       z     vdW  Elec       q    Type
REMARK                         _______ _______ _______ _____ _____    ______ ____
ROOT
ATOM      1  N   UNL     1       1.832   9.274  19.424  0.00  0.00    +0.000 N 
ATOM      2  C   UNL     1       2.113   9.155  17.988  0.00  0.00    +0.000 C 
ATOM      3  C   UNL     1       1.748   7.717  17.652  0.00  0.00    +0.000 C 
ATOM      4  C   UNL     1       2.209   6.959  18.889  0.00  0.00    +0.000 C 
ATOM      5  C   UNL     1       1.795   7.923  20.020  0.00  0.00    +0.000 C 
ENDROOT
BRANCH   1  15
ATOM      6  C   UNL     1       0.675  16.073  19.557  0.00  0.00    +0.000 C 
ATOM      7  C   UNL     1       2.065  15.455  19.429  0.00  0.00    +0.000 C 
ATOM      8  C   UNL     1       1.815  14.100  18.766  0.00  0.00    +0.000 C 
ATOM      9  N   UNL     1       0.462  13.748  19.173  0.00  0.00    +0.000 N 
ATOM     10  C   UNL     1       0.233  12.480  19.671  0.00  0.00    +0.000 A 
ATOM     11  N   UNL     1      -0.803  12.291  20.494  0.00  0.00    +0.000 NA
ATOM     12  C   UNL     1      -0.938  11.065  21.028  0.00  0.00    +0.000 A 
ATOM     13  C   UNL     1      -0.106  10.002  20.757  0.00  0.00    +0.000 A 
ATOM     14 CL   UNL     1      -0.373   8.540  21.628  0.00  0.00    +0.000 Cl
ATOM     15  C   UNL     1       0.908  10.237  19.833  0.00  0.00    +0.000 A 
ATOM     16  N   UNL     1       1.061  11.481  19.320  0.00  0.00    +0.000 NA
ATOM     17  C   UNL     1      -0.207  14.856  19.853  0.00  0.00    +0.000 C 
BRANCH   6  18
ATOM     18  C   UNL     1       0.235  16.809  18.294  0.00  0.00    +0.000 C 
BRANCH  18  20
ATOM     19  C   UNL     1       0.975  18.381  16.698  0.00  0.00    +0.000 C 
ATOM     20  O   UNL     1       1.337  17.583  17.816  0.00  0.00    +0.000 OA
ENDBRANCH  18  20
ENDBRANCH   6  18
ENDBRANCH   1  15
BRANCH   4  21
ATOM     21  O   UNL     1       3.636   6.793  18.910  0.00  0.00    +0.000 OA
BRANCH  21  22
ATOM     22  C   UNL     1       4.156   6.111  17.843  0.00  0.00    +0.000 A 
ATOM     23  C   UNL     1       3.995   4.738  17.641  0.00  0.00    +0.000 A 
ATOM     24  C   UNL     1       4.553   4.122  16.524  0.00  0.00    +0.000 A 
ATOM     25  C   UNL     1       5.291   4.861  15.597  0.00  0.00    +0.000 A 
ATOM     26  C   UNL     1       5.425   6.247  15.789  0.00  0.00    +0.000 A 
ATOM     27  C   UNL     1       4.850   6.868  16.902  0.00  0.00    +0.000 A 
BRANCH  25  28
ATOM     28  C   UNL     1       5.960   4.136  14.447  0.00  0.00    +0.000 C 
ATOM     29  C   UNL     1       7.192   4.911  13.976  0.00  0.00    +0.000 C 
BRANCH  28  30
ATOM     30  N   UNL     1       5.022   3.901  13.366  0.00  0.00    +0.000 N 
ATOM     31  C   UNL     1       5.398   3.246  12.217  0.00  0.00    +0.000 C 
ATOM     32  C   UNL     1       4.312   3.132  11.180  0.00  0.00    +0.000 C 
ATOM     33  O   UNL     1       6.522   2.794  12.028  0.00  0.00    +0.000 OA
ATOM     34  H   UNL     1       4.082   4.260  13.454  0.00  0.00    +0.000 HD
ENDBRANCH  28  30
ENDBRANCH  25  28
ENDBRANCH  21  22
ENDBRANCH   4  21
TORSDOF 7
ENDMDL
MODEL 7
REMARK VINA RESULT:      -7.1      3.133      4.410
REMARK  Name = 
REMARK  10 active torsions:
REMARK  status: ('A' for Active; 'I' for Inactive)
REMARK    1  A    between atoms: C_1  and  O_2
REMARK    2  A    between atoms: O_2  and  C_3
REMARK    3  A    between atoms: C_3  and  C_4
REMARK    4  A    between atoms: C_13  and  N_14
REMARK    5  A    between atoms: C_17  and  O_18
REMARK    6  A    between atoms: O_18  and  C_19
REMARK    7  A    between atoms: C_22  and  C_23
REMARK    8  A    between atoms: C_23  and  C_24
REMARK    9  A    between atoms: C_23  and  N_25
REMARK   10  A    between atoms: C_26  and  C_27
REMARK                            x       y       z     vdW  Elec       q    Type
REMARK                         _______ _______ _______ _____ _____    ______ ____
ROOT
ATOM      1  N   UNL     1      -0.524  12.452  19.390  0.00  0.00    +0.000 N 
ATOM      2  C   UNL     1      -1.104  11.699  18.271  0.00  0.00    +0.000 C 
ATOM      3  C   UNL     1      -1.146  10.262  18.769  0.00  0.00    +0.000 C 
ATOM      4  C   UNL     1       0.145  10.148  19.568  0.00  0.00    +0.000 C 
ATOM      5  C   UNL     1       0.196  11.516  20.278  0.00  0.00    +0.000 C 
ENDROOT
BRANCH   1  15
ATOM      6  C   UNL     1      -6.992  14.425  20.754  0.00  0.00    +0.000 C 
ATOM      7  C   UNL     1      -6.630  13.391  19.691  0.00  0.00    +0.000 C 
ATOM      8  C   UNL     1      -5.317  12.784  20.187  0.00  0.00    +0.000 C 
ATOM      9  N   UNL     1      -4.707  13.846  20.974  0.00  0.00    +0.000 N 
ATOM     10  C   UNL     1      -3.379  14.153  20.748  0.00  0.00    +0.000 A 
ATOM     11  N   UNL     1      -2.945  15.383  21.044  0.00  0.00    +0.000 NA
ATOM     12  C   UNL     1      -1.672  15.670  20.726  0.00  0.00    +0.000 A 
ATOM     13  C   UNL     1      -0.793  14.777  20.154  0.00  0.00    +0.000 A 
ATOM     14 CL   UNL     1       0.766  15.366  19.715  0.00  0.00    +0.000 Cl
ATOM     15  C   UNL     1      -1.276  13.490  19.941  0.00  0.00    +0.000 A 
ATOM     16  N   UNL     1      -2.570  13.212  20.234  0.00  0.00    +0.000 NA
ATOM     17  C   UNL     1      -5.622  14.971  21.171  0.00  0.00    +0.000 C 
BRANCH   6  18
ATOM     18  C   UNL     1      -7.753  13.823  21.932  0.00  0.00    +0.000 C 
BRANCH  18  20
ATOM     19  C   UNL     1      -7.756  14.034  24.282  0.00  0.00    +0.000 C 
ATOM     20  O   UNL     1      -6.957  13.977  23.108  0.00  0.00    +0.000 OA
ENDBRANCH  18  20
ENDBRANCH   6  18
ENDBRANCH   1  15
BRANCH   4  21
ATOM     21  O   UNL     1       1.291  10.019  18.710  0.00  0.00    +0.000 OA
BRANCH  21  22
ATOM     22  C   UNL     1       1.914   8.802  18.755  0.00  0.00    +0.000 A 
ATOM     23  C   UNL     1       2.757   8.319  17.751  0.00  0.00    +0.000 A 
ATOM     24  C   UNL     1       3.358   7.070  17.878  0.00  0.00    +0.000 A 
ATOM     25  C   UNL     1       3.118   6.275  19.001  0.00  0.00    +0.000 A 
ATOM     26  C   UNL     1       2.293   6.777  20.022  0.00  0.00    +0.000 A 
ATOM     27  C   UNL     1       1.704   8.039  19.902  0.00  0.00    +0.000 A 
BRANCH  25  28
ATOM     28  C   UNL     1       3.716   4.883  19.056  0.00  0.00    +0.000 C 
ATOM     29  C   UNL     1       5.028   4.838  18.271  0.00  0.00    +0.000 C 
BRANCH  28  30
ATOM     30  N   UNL     1       2.768   3.892  18.584  0.00  0.00    +0.000 N 
ATOM     31  C   UNL     1       2.044   3.116  19.458  0.00  0.00    +0.000 C 
ATOM     32  C   UNL     1       1.143   2.107  18.797  0.00  0.00    +0.000 C 
ATOM     33  O   UNL     1       2.118   3.215  20.678  0.00  0.00    +0.000 OA
ATOM     34  H   UNL     1       2.669   3.752  17.589  0.00  0.00    +0.000 HD
ENDBRANCH  28  30
ENDBRANCH  25  28
ENDBRANCH  21  22
ENDBRANCH   4  21
TORSDOF 7
ENDMDL
MODEL 8
REMARK VINA RESULT:      -7.1      2.733      3.744
REMARK  Name = 
REMARK  10 active torsions:
REMARK  status: ('A' for Active; 'I' for Inactive)
REMARK    1  A    between atoms: C_1  and  O_2
REMARK    2  A    between atoms: O_2  and  C_3
REMARK    3  A    between atoms: C_3  and  C_4
REMARK    4  A    between atoms: C_13  and  N_14
REMARK    5  A    between atoms: C_17  and  O_18
REMARK    6  A    between atoms: O_18  and  C_19
REMARK    7  A    between atoms: C_22  and  C_23
REMARK    8  A    between atoms: C_23  and  C_24
REMARK    9  A    between atoms: C_23  and  N_25
REMARK   10  A    between atoms: C_26  and  C_27
REMARK                            x       y       z     vdW  Elec       q    Type
REMARK                         _______ _______ _______ _____ _____    ______ ____
ROOT
ATOM      1  N   UNL     1       0.386  12.110  20.037  0.00  0.00    +0.000 N 
ATOM      2  C   UNL     1      -0.551  11.815  18.946  0.00  0.00    +0.000 C 
ATOM      3  C   UNL     1      -0.960  10.370  19.184  0.00  0.00    +0.000 C 
ATOM      4  C   UNL     1       0.334   9.733  19.672  0.00  0.00    +0.000 C 
ATOM      5  C   UNL     1       0.903  10.839  20.585  0.00  0.00    +0.000 C 
ENDROOT
BRANCH   1  15
ATOM      6  C   UNL     1      -4.891  15.749  22.586  0.00  0.00    +0.000 C 
ATOM      7  C   UNL     1      -4.957  14.970  21.275  0.00  0.00    +0.000 C 
ATOM      8  C   UNL     1      -3.939  13.842  21.455  0.00  0.00    +0.000 C 
ATOM      9  N   UNL     1      -2.966  14.387  22.390  0.00  0.00    +0.000 N 
ATOM     10  C   UNL     1      -1.623  14.268  22.087  0.00  0.00    +0.000 A 
ATOM     11  N   UNL     1      -0.766  15.152  22.608  0.00  0.00    +0.000 NA
ATOM     12  C   UNL     1       0.516  15.058  22.217  0.00  0.00    +0.000 A 
ATOM     13  C   UNL     1       0.997  14.101  21.351  0.00  0.00    +0.000 A 
ATOM     14 CL   UNL     1       2.650  14.214  20.880  0.00  0.00    +0.000 Cl
ATOM     15  C   UNL     1       0.075  13.160  20.902  0.00  0.00    +0.000 A 
ATOM     16  N   UNL     1      -1.223  13.276  21.273  0.00  0.00    +0.000 NA
ATOM     17  C   UNL     1      -3.406  15.664  22.953  0.00  0.00    +0.000 C 
BRANCH   6  18
ATOM     18  C   UNL     1      -5.786  15.158  23.673  0.00  0.00    +0.000 C 
BRANCH  18  20
ATOM     19  C   UNL     1      -7.657  13.750  23.958  0.00  0.00    +0.000 C 
ATOM     20  O   UNL     1      -6.909  14.539  23.043  0.00  0.00    +0.000 OA
ENDBRANCH  18  20
ENDBRANCH   6  18
ENDBRANCH   1  15
BRANCH   4  21
ATOM     21  O   UNL     1       1.251   9.496  18.591  0.00  0.00    +0.000 OA
BRANCH  21  22
ATOM     22  C   UNL     1       2.023   8.374  18.721  0.00  0.00    +0.000 A 
ATOM     23  C   UNL     1       1.944   7.493  19.803  0.00  0.00    +0.000 A 
ATOM     24  C   UNL     1       2.763   6.369  19.855  0.00  0.00    +0.000 A 
ATOM     25  C   UNL     1       3.684   6.110  18.837  0.00  0.00    +0.000 A 
ATOM     26  C   UNL     1       3.739   6.983  17.737  0.00  0.00    +0.000 A 
ATOM     27  C   UNL     1       2.903   8.102  17.677  0.00  0.00    +0.000 A 
BRANCH  25  28
ATOM     28  C   UNL     1       4.622   4.928  18.979  0.00  0.00    +0.000 C 
ATOM     29  C   UNL     1       5.956   5.224  18.293  0.00  0.00    +0.000 C 
BRANCH  28  30
ATOM     30  N   UNL     1       4.008   3.715  18.473  0.00  0.00    +0.000 N 
ATOM     31  C   UNL     1       4.186   2.504  19.098  0.00  0.00    +0.000 C 
ATOM     32  C   UNL     1       3.518   1.343  18.410  0.00  0.00    +0.000 C 
ATOM     33  O   UNL     1       4.839   2.358  20.126  0.00  0.00    +0.000 OA
ATOM     34  H   UNL     1       3.468   3.765  17.621  0.00  0.00    +0.000 HD
ENDBRANCH  28  30
ENDBRANCH  25  28
ENDBRANCH  21  22
ENDBRANCH   4  21
TORSDOF 7
ENDMDL
MODEL 9
REMARK VINA RESULT:      -7.1      3.099      4.346
REMARK  Name = 
REMARK  10 active torsions:
REMARK  status: ('A' for Active; 'I' for Inactive)
REMARK    1  A    between atoms: C_1  and  O_2
REMARK    2  A    between atoms: O_2  and  C_3
REMARK    3  A    between atoms: C_3  and  C_4
REMARK    4  A    between atoms: C_13  and  N_14
REMARK    5  A    between atoms: C_17  and  O_18
REMARK    6  A    between atoms: O_18  and  C_19
REMARK    7  A    between atoms: C_22  and  C_23
REMARK    8  A    between atoms: C_23  and  C_24
REMARK    9  A    between atoms: C_23  and  N_25
REMARK   10  A    between atoms: C_26  and  C_27
REMARK                            x       y       z     vdW  Elec       q    Type
REMARK                         _______ _______ _______ _____ _____    ______ ____
ROOT
ATOM      1  N   UNL     1       1.947   8.982  19.432  0.00  0.00    +0.000 N 
ATOM      2  C   UNL     1       2.350   8.940  18.020  0.00  0.00    +0.000 C 
ATOM      3  C   UNL     1       1.941   7.550  17.555  0.00  0.00    +0.000 C 
ATOM      4  C   UNL     1       2.248   6.688  18.772  0.00  0.00    +0.000 C 
ATOM      5  C   UNL     1       1.785   7.600  19.927  0.00  0.00    +0.000 C 
ENDROOT
BRANCH   1  15
ATOM      6  C   UNL     1       1.006  15.813  19.625  0.00  0.00    +0.000 C 
ATOM      7  C   UNL     1       2.378  15.151  19.532  0.00  0.00    +0.000 C 
ATOM      8  C   UNL     1       2.106  13.814  18.842  0.00  0.00    +0.000 C 
ATOM      9  N   UNL     1       0.730  13.501  19.201  0.00  0.00    +0.000 N 
ATOM     10  C   UNL     1       0.445  12.235  19.674  0.00  0.00    +0.000 A 
ATOM     11  N   UNL     1      -0.623  12.069  20.461  0.00  0.00    +0.000 NA
ATOM     12  C   UNL     1      -0.814  10.841  20.974  0.00  0.00    +0.000 A 
ATOM     13  C   UNL     1      -0.007   9.755  20.713  0.00  0.00    +0.000 A 
ATOM     14 CL   UNL     1      -0.350   8.292  21.555  0.00  0.00    +0.000 Cl
ATOM     15  C   UNL     1       1.042   9.969  19.825  0.00  0.00    +0.000 A 
ATOM     16  N   UNL     1       1.251  11.214  19.335  0.00  0.00    +0.000 NA
ATOM     17  C   UNL     1       0.075  14.622  19.876  0.00  0.00    +0.000 C 
BRANCH   6  18
ATOM     18  C   UNL     1       0.629  16.580  18.359  0.00  0.00    +0.000 C 
BRANCH  18  20
ATOM     19  C   UNL     1      -1.247  17.989  18.600  0.00  0.00    +0.000 C 
ATOM     20  O   UNL     1      -0.794  16.676  18.298  0.00  0.00    +0.000 OA
ENDBRANCH  18  20
ENDBRANCH   6  18
ENDBRANCH   1  15
BRANCH   4  21
ATOM     21  O   UNL     1       3.657   6.438  18.904  0.00  0.00    +0.000 OA
BRANCH  21  22
ATOM     22  C   UNL     1       4.257   5.902  17.797  0.00  0.00    +0.000 A 
ATOM     23  C   UNL     1       5.069   6.627  16.921  0.00  0.00    +0.000 A 
ATOM     24  C   UNL     1       5.647   6.002  15.820  0.00  0.00    +0.000 A 
ATOM     25  C   UNL     1       5.416   4.648  15.566  0.00  0.00    +0.000 A 
ATOM     26  C   UNL     1       4.623   3.917  16.466  0.00  0.00    +0.000 A 
ATOM     27  C   UNL     1       4.057   4.540  17.582  0.00  0.00    +0.000 A 
BRANCH  25  28
ATOM     28  C   UNL     1       5.987   4.031  14.305  0.00  0.00    +0.000 C 
ATOM     29  C   UNL     1       7.225   4.805  13.849  0.00  0.00    +0.000 C 
BRANCH  28  30
ATOM     30  N   UNL     1       4.981   3.955  13.262  0.00  0.00    +0.000 N 
ATOM     31  C   UNL     1       5.178   3.208  12.126  0.00  0.00    +0.000 C 
ATOM     32  C   UNL     1       4.052   3.280  11.128  0.00  0.00    +0.000 C 
ATOM     33  O   UNL     1       6.183   2.537  11.918  0.00  0.00    +0.000 OA
ATOM     34  H   UNL     1       4.134   4.495  13.367  0.00  0.00    +0.000 HD
ENDBRANCH  28  30
ENDBRANCH  25  28
ENDBRANCH  21  22
ENDBRANCH   4  21
TORSDOF 7
ENDMDL
