MODEL 1
REMARK VINA RESULT:      -8.4      0.000      0.000
REMARK  Name = 
REMARK  6 active torsions:
REMARK  status: ('A' for Active; 'I' for Inactive)
REMARK    1  A    between atoms: C_1  and  C_2
REMARK    2  A    between atoms: C_2  and  C_3
REMARK    3  A    between atoms: C_6  and  S_7
REMARK    4  A    between atoms: S_7  and  N_10
REMARK    5  A    between atoms: N_10  and  C_11
REMARK    6  A    between atoms: C_15  and  C_16
REMARK                            x       y       z     vdW  Elec       q    Type
REMARK                         _______ _______ _______ _____ _____    ______ ____
ROOT
ATOM      1  N   UNL     1       5.159   3.457  19.099  0.00  0.00    +0.000 N 
ATOM      2  H   UNL     1       5.629   2.937  19.831  0.00  0.00    +0.000 HD
ENDROOT
BRANCH   1   3
ATOM      3  C   UNL     1       5.851   4.396  18.299  0.00  0.00    +0.000 A 
ATOM      4  C   UNL     1       6.536   5.451  18.894  0.00  0.00    +0.000 A 
ATOM      5  C   UNL     1       7.185   6.394  18.096  0.00  0.00    +0.000 A 
ATOM      6  C   UNL     1       7.172   6.264  16.708  0.00  0.00    +0.000 A 
ATOM      7  C   UNL     1       6.502   5.190  16.099  0.00  0.00    +0.000 A 
ATOM      8  C   UNL     1       5.848   4.252  16.912  0.00  0.00    +0.000 A 
BRANCH   7   9
ATOM      9  C   UNL     1       6.480   5.059  14.597  0.00  0.00    +0.000 C 
ATOM     10  O   UNL     1       7.781   5.351  14.094  0.00  0.00    +0.000 OA
ATOM     11  C   UNL     1       7.778   5.322  12.671  0.00  0.00    +0.000 C 
ATOM     12  C   UNL     1       7.294   3.971  12.169  0.00  0.00    +0.000 C 
ATOM     13  C   UNL     1       5.974   3.611  12.833  0.00  0.00    +0.000 C 
ATOM     14  O   UNL     1       6.082   3.737  14.247  0.00  0.00    +0.000 OA
ENDBRANCH   7   9
ENDBRANCH   1   3
BRANCH   1  15
ATOM     15  S   UNL     1       3.502   3.252  18.921  0.00  0.00    +0.000 S 
ATOM     16  O   UNL     1       3.007   2.459  20.027  0.00  0.00    +0.000 OA
ATOM     17  O   UNL     1       3.287   2.842  17.547  0.00  0.00    +0.000 OA
BRANCH  15  21
ATOM     18  C   UNL     1       2.049   7.570  19.276  0.00  0.00    +0.000 A 
ATOM     19  C   UNL     1       2.434   7.041  18.036  0.00  0.00    +0.000 A 
ATOM     20  C   UNL     1       2.821   5.707  17.927  0.00  0.00    +0.000 A 
ATOM     21  C   UNL     1       2.861   4.903  19.072  0.00  0.00    +0.000 A 
ATOM     22  C   UNL     1       2.452   5.402  20.309  0.00  0.00    +0.000 A 
ATOM     23  C   UNL     1       2.032   6.737  20.405  0.00  0.00    +0.000 A 
BRANCH  18  25
ATOM     24  C   UNL     1       1.086   9.562  18.084  0.00  0.00    +0.000 C 
ATOM     25  C   UNL     1       1.652   9.021  19.388  0.00  0.00    +0.000 C 
ENDBRANCH  18  25
ENDBRANCH  15  21
ENDBRANCH   1  15
TORSDOF 5
ENDMDL
MODEL 2
REMARK VINA RESULT:      -8.4      0.151      1.001
REMARK  Name = 
REMARK  6 active torsions:
REMARK  status: ('A' for Active; 'I' for Inactive)
REMARK    1  A    between atoms: C_1  and  C_2
REMARK    2  A    between atoms: C_2  and  C_3
REMARK    3  A    between atoms: C_6  and  S_7
REMARK    4  A    between atoms: S_7  and  N_10
REMARK    5  A    between atoms: N_10  and  C_11
REMARK    6  A    between atoms: C_15  and  C_16
REMARK                            x       y       z     vdW  Elec       q    Type
REMARK                         _______ _______ _______ _____ _____    ______ ____
ROOT
ATOM      1  N   UNL     1       5.131   3.339  19.053  0.00  0.00    +0.000 N 
ATOM      2  H   UNL     1       5.617   2.705  19.677  0.00  0.00    +0.000 HD
ENDROOT
BRANCH   1   3
ATOM      3  C   UNL     1       5.831   4.292  18.276  0.00  0.00    +0.000 A 
ATOM      4  C   UNL     1       6.518   5.332  18.896  0.00  0.00    +0.000 A 
ATOM      5  C   UNL     1       7.175   6.288  18.121  0.00  0.00    +0.000 A 
ATOM      6  C   UNL     1       7.168   6.187  16.730  0.00  0.00    +0.000 A 
ATOM      7  C   UNL     1       6.496   5.129  16.096  0.00  0.00    +0.000 A 
ATOM      8  C   UNL     1       5.834   4.177  16.887  0.00  0.00    +0.000 A 
BRANCH   7   9
ATOM      9  C   UNL     1       6.481   5.029  14.591  0.00  0.00    +0.000 C 
ATOM     10  O   UNL     1       7.775   5.365  14.098  0.00  0.00    +0.000 OA
ATOM     11  C   UNL     1       7.776   5.366  12.675  0.00  0.00    +0.000 C 
ATOM     12  C   UNL     1       7.328   4.014  12.143  0.00  0.00    +0.000 C 
ATOM     13  C   UNL     1       6.016   3.606  12.796  0.00  0.00    +0.000 C 
ATOM     14  O   UNL     1       6.118   3.704  14.213  0.00  0.00    +0.000 OA
ENDBRANCH   7   9
ENDBRANCH   1   3
BRANCH   1  15
ATOM     15  S   UNL     1       3.453   3.304  19.038  0.00  0.00    +0.000 S 
ATOM     16  O   UNL     1       2.987   2.658  20.247  0.00  0.00    +0.000 OA
ATOM     17  O   UNL     1       3.066   2.815  17.729  0.00  0.00    +0.000 OA
BRANCH  15  21
ATOM     18  C   UNL     1       2.088   7.662  19.217  0.00  0.00    +0.000 A 
ATOM     19  C   UNL     1       2.065   6.854  20.362  0.00  0.00    +0.000 A 
ATOM     20  C   UNL     1       2.537   5.544  20.312  0.00  0.00    +0.000 A 
ATOM     21  C   UNL     1       3.001   5.023  19.100  0.00  0.00    +0.000 A 
ATOM     22  C   UNL     1       3.061   5.820  17.956  0.00  0.00    +0.000 A 
ATOM     23  C   UNL     1       2.615   7.147  18.023  0.00  0.00    +0.000 A 
BRANCH  18  25
ATOM     24  C   UNL     1       0.925   9.502  17.962  0.00  0.00    +0.000 C 
ATOM     25  C   UNL     1       1.556   9.072  19.277  0.00  0.00    +0.000 C 
ENDBRANCH  18  25
ENDBRANCH  15  21
ENDBRANCH   1  15
TORSDOF 5
ENDMDL
MODEL 3
REMARK VINA RESULT:      -7.9      0.358      1.051
REMARK  Name = 
REMARK  6 active torsions:
REMARK  status: ('A' for Active; 'I' for Inactive)
REMARK    1  A    between atoms: C_1  and  C_2
REMARK    2  A    between atoms: C_2  and  C_3
REMARK    3  A    between atoms: C_6  and  S_7
REMARK    4  A    between atoms: S_7  and  N_10
REMARK    5  A    between atoms: N_10  and  C_11
REMARK    6  A    between atoms: C_15  and  C_16
REMARK                            x       y       z     vdW  Elec       q    Type
REMARK                         _______ _______ _______ _____ _____    ______ ____
ROOT
ATOM      1  N   UNL     1       5.224   3.560  19.317  0.00  0.00    +0.000 N 
ATOM      2  H   UNL     1       5.660   3.114  20.116  0.00  0.00    +0.000 HD
ENDROOT
BRANCH   1   3
ATOM      3  C   UNL     1       5.952   4.424  18.466  0.00  0.00    +0.000 A 
ATOM      4  C   UNL     1       6.396   5.657  18.934  0.00  0.00    +0.000 A 
ATOM      5  C   UNL     1       7.082   6.518  18.077  0.00  0.00    +0.000 A 
ATOM      6  C   UNL     1       7.346   6.134  16.763  0.00  0.00    +0.000 A 
ATOM      7  C   UNL     1       6.921   4.882  16.287  0.00  0.00    +0.000 A 
ATOM      8  C   UNL     1       6.227   4.028  17.158  0.00  0.00    +0.000 A 
BRANCH   7   9
ATOM      9  C   UNL     1       7.198   4.474  14.862  0.00  0.00    +0.000 C 
ATOM     10  O   UNL     1       5.981   4.026  14.270  0.00  0.00    +0.000 OA
ATOM     11  C   UNL     1       6.220   3.550  12.950  0.00  0.00    +0.000 C 
ATOM     12  C   UNL     1       6.867   4.636  12.104  0.00  0.00    +0.000 C 
ATOM     13  C   UNL     1       8.079   5.204  12.824  0.00  0.00    +0.000 C 
ATOM     14  O   UNL     1       7.732   5.587  14.150  0.00  0.00    +0.000 OA
ENDBRANCH   7   9
ENDBRANCH   1   3
BRANCH   1  15
ATOM     15  S   UNL     1       3.577   3.332  19.083  0.00  0.00    +0.000 S 
ATOM     16  O   UNL     1       3.042   2.594  20.207  0.00  0.00    +0.000 OA
ATOM     17  O   UNL     1       3.421   2.849  17.724  0.00  0.00    +0.000 OA
BRANCH  15  21
ATOM     18  C   UNL     1       2.083   7.651  19.158  0.00  0.00    +0.000 A 
ATOM     19  C   UNL     1       2.564   7.077  17.973  0.00  0.00    +0.000 A 
ATOM     20  C   UNL     1       2.964   5.742  17.945  0.00  0.00    +0.000 A 
ATOM     21  C   UNL     1       2.919   4.984  19.120  0.00  0.00    +0.000 A 
ATOM     22  C   UNL     1       2.415   5.526  20.302  0.00  0.00    +0.000 A 
ATOM     23  C   UNL     1       1.984   6.861  20.313  0.00  0.00    +0.000 A 
BRANCH  18  25
ATOM     24  C   UNL     1       0.951   9.514  17.909  0.00  0.00    +0.000 C 
ATOM     25  C   UNL     1       1.673   9.102  19.182  0.00  0.00    +0.000 C 
ENDBRANCH  18  25
ENDBRANCH  15  21
ENDBRANCH   1  15
TORSDOF 5
ENDMDL
MODEL 4
REMARK VINA RESULT:      -7.9      3.343      7.997
REMARK  Name = 
REMARK  6 active torsions:
REMARK  status: ('A' for Active; 'I' for Inactive)
REMARK    1  A    between atoms: C_1  and  C_2
REMARK    2  A    between atoms: C_2  and  C_3
REMARK    3  A    between atoms: C_6  and  S_7
REMARK    4  A    between atoms: S_7  and  N_10
REMARK    5  A    between atoms: N_10  and  C_11
REMARK    6  A    between atoms: C_15  and  C_16
REMARK                            x       y       z     vdW  Elec       q    Type
REMARK                         _______ _______ _______ _____ _____    ______ ____
ROOT
ATOM      1  N   UNL     1       2.730   5.811  20.633  0.00  0.00    +0.000 N 
ATOM      2  H   UNL     1       3.195   5.828  21.532  0.00  0.00    +0.000 HD
ENDROOT
BRANCH   1   3
ATOM      3  C   UNL     1       2.197   6.987  20.055  0.00  0.00    +0.000 A 
ATOM      4  C   UNL     1       2.592   7.381  18.780  0.00  0.00    +0.000 A 
ATOM      5  C   UNL     1       2.090   8.562  18.232  0.00  0.00    +0.000 A 
ATOM      6  C   UNL     1       1.174   9.332  18.948  0.00  0.00    +0.000 A 
ATOM      7  C   UNL     1       0.753   8.931  20.227  0.00  0.00    +0.000 A 
ATOM      8  C   UNL     1       1.270   7.745  20.769  0.00  0.00    +0.000 A 
BRANCH   7   9
ATOM      9  C   UNL     1      -0.229   9.772  21.003  0.00  0.00    +0.000 C 
ATOM     10  O   UNL     1       0.102   9.699  22.388  0.00  0.00    +0.000 OA
ATOM     11  C   UNL     1      -0.856  10.411  23.162  0.00  0.00    +0.000 C 
ATOM     12  C   UNL     1      -0.943  11.858  22.701  0.00  0.00    +0.000 C 
ATOM     13  C   UNL     1      -1.148  11.912  21.195  0.00  0.00    +0.000 C 
ATOM     14  O   UNL     1      -0.171  11.116  20.534  0.00  0.00    +0.000 OA
ENDBRANCH   7   9
ENDBRANCH   1   3
BRANCH   1  15
ATOM     15  S   UNL     1       2.511   4.326  19.881  0.00  0.00    +0.000 S 
ATOM     16  O   UNL     1       1.233   4.329  19.200  0.00  0.00    +0.000 OA
ATOM     17  O   UNL     1       2.832   3.315  20.871  0.00  0.00    +0.000 OA
BRANCH  15  21
ATOM     18  C   UNL     1       5.853   4.423  16.765  0.00  0.00    +0.000 A 
ATOM     19  C   UNL     1       6.126   4.664  18.119  0.00  0.00    +0.000 A 
ATOM     20  C   UNL     1       5.111   4.576  19.071  0.00  0.00    +0.000 A 
ATOM     21  C   UNL     1       3.805   4.282  18.663  0.00  0.00    +0.000 A 
ATOM     22  C   UNL     1       3.520   4.008  17.325  0.00  0.00    +0.000 A 
ATOM     23  C   UNL     1       4.552   4.066  16.378  0.00  0.00    +0.000 A 
BRANCH  18  25
ATOM     24  C   UNL     1       6.475   4.185  14.342  0.00  0.00    +0.000 C 
ATOM     25  C   UNL     1       6.954   4.541  15.741  0.00  0.00    +0.000 C 
ENDBRANCH  18  25
ENDBRANCH  15  21
ENDBRANCH   1  15
TORSDOF 5
ENDMDL
MODEL 5
REMARK VINA RESULT:      -7.7      0.928      1.747
REMARK  Name = 
REMARK  6 active torsions:
REMARK  status: ('A' for Active; 'I' for Inactive)
REMARK    1  A    between atoms: C_1  and  C_2
REMARK    2  A    between atoms: C_2  and  C_3
REMARK    3  A    between atoms: C_6  and  S_7
REMARK    4  A    between atoms: S_7  and  N_10
REMARK    5  A    between atoms: N_10  and  C_11
REMARK    6  A    between atoms: C_15  and  C_16
REMARK                            x       y       z     vdW  Elec       q    Type
REMARK                         _______ _______ _______ _____ _____    ______ ____
ROOT
ATOM      1  N   UNL     1       4.328   3.159  18.642  0.00  0.00    +0.000 N 
ATOM      2  H   UNL     1       4.613   2.423  19.276  0.00  0.00    +0.000 HD
ENDROOT
BRANCH   1   3
ATOM      3  C   UNL     1       5.273   4.030  18.049  0.00  0.00    +0.000 A 
ATOM      4  C   UNL     1       5.747   5.132  18.754  0.00  0.00    +0.000 A 
ATOM      5  C   UNL     1       6.650   6.006  18.149  0.00  0.00    +0.000 A 
ATOM      6  C   UNL     1       7.099   5.762  16.852  0.00  0.00    +0.000 A 
ATOM      7  C   UNL     1       6.642   4.641  16.140  0.00  0.00    +0.000 A 
ATOM      8  C   UNL     1       5.729   3.772  16.757  0.00  0.00    +0.000 A 
BRANCH   7   9
ATOM      9  C   UNL     1       7.120   4.386  14.732  0.00  0.00    +0.000 C 
ATOM     10  O   UNL     1       6.017   3.933  13.950  0.00  0.00    +0.000 OA
ATOM     11  C   UNL     1       6.449   3.599  12.636  0.00  0.00    +0.000 C 
ATOM     12  C   UNL     1       7.125   4.792  11.980  0.00  0.00    +0.000 C 
ATOM     13  C   UNL     1       8.200   5.351  12.898  0.00  0.00    +0.000 C 
ATOM     14  O   UNL     1       7.667   5.587  14.197  0.00  0.00    +0.000 OA
ENDBRANCH   7   9
ENDBRANCH   1   3
BRANCH   1  15
ATOM     15  S   UNL     1       2.685   3.393  18.385  0.00  0.00    +0.000 S 
ATOM     16  O   UNL     1       1.946   2.448  19.195  0.00  0.00    +0.000 OA
ATOM     17  O   UNL     1       2.501   3.454  16.947  0.00  0.00    +0.000 OA
BRANCH  15  21
ATOM     18  C   UNL     1       1.733   7.559  20.004  0.00  0.00    +0.000 A 
ATOM     19  C   UNL     1       1.652   6.431  20.832  0.00  0.00    +0.000 A 
ATOM     20  C   UNL     1       2.000   5.171  20.346  0.00  0.00    +0.000 A 
ATOM     21  C   UNL     1       2.395   5.031  19.011  0.00  0.00    +0.000 A 
ATOM     22  C   UNL     1       2.512   6.146  18.180  0.00  0.00    +0.000 A 
ATOM     23  C   UNL     1       2.192   7.414  18.686  0.00  0.00    +0.000 A 
BRANCH  18  25
ATOM     24  C   UNL     1       0.263   8.817  21.608  0.00  0.00    +0.000 C 
ATOM     25  C   UNL     1       1.334   8.914  20.533  0.00  0.00    +0.000 C 
ENDBRANCH  18  25
ENDBRANCH  15  21
ENDBRANCH   1  15
TORSDOF 5
ENDMDL
MODEL 6
REMARK VINA RESULT:      -7.7      3.405      8.021
REMARK  Name = 
REMARK  6 active torsions:
REMARK  status: ('A' for Active; 'I' for Inactive)
REMARK    1  A    between atoms: C_1  and  C_2
REMARK    2  A    between atoms: C_2  and  C_3
REMARK    3  A    between atoms: C_6  and  S_7
REMARK    4  A    between atoms: S_7  and  N_10
REMARK    5  A    between atoms: N_10  and  C_11
REMARK    6  A    between atoms: C_15  and  C_16
REMARK                            x       y       z     vdW  Elec       q    Type
REMARK                         _______ _______ _______ _____ _____    ______ ____
ROOT
ATOM      1  N   UNL     1       2.704   6.061  20.524  0.00  0.00    +0.000 N 
ATOM      2  H   UNL     1       3.121   6.090  21.447  0.00  0.00    +0.000 HD
ENDROOT
BRANCH   1   3
ATOM      3  C   UNL     1       2.152   7.219  19.927  0.00  0.00    +0.000 A 
ATOM      4  C   UNL     1       2.501   7.570  18.627  0.00  0.00    +0.000 A 
ATOM      5  C   UNL     1       1.980   8.733  18.058  0.00  0.00    +0.000 A 
ATOM      6  C   UNL     1       1.090   9.527  18.781  0.00  0.00    +0.000 A 
ATOM      7  C   UNL     1       0.715   9.170  20.086  0.00  0.00    +0.000 A 
ATOM      8  C   UNL     1       1.250   8.001  20.648  0.00  0.00    +0.000 A 
BRANCH   7   9
ATOM      9  C   UNL     1      -0.238  10.037  20.869  0.00  0.00    +0.000 C 
ATOM     10  O   UNL     1      -0.023   9.812  22.261  0.00  0.00    +0.000 OA
ATOM     11  C   UNL     1      -0.965  10.550  23.031  0.00  0.00    +0.000 C 
ATOM     12  C   UNL     1      -0.876  12.032  22.701  0.00  0.00    +0.000 C 
ATOM     13  C   UNL     1      -0.959  12.236  21.197  0.00  0.00    +0.000 C 
ATOM     14  O   UNL     1      -0.015  11.403  20.532  0.00  0.00    +0.000 OA
ENDBRANCH   7   9
ENDBRANCH   1   3
BRANCH   1  15
ATOM     15  S   UNL     1       2.590   4.575  19.752  0.00  0.00    +0.000 S 
ATOM     16  O   UNL     1       1.333   4.514  19.036  0.00  0.00    +0.000 OA
ATOM     17  O   UNL     1       2.940   3.573  20.740  0.00  0.00    +0.000 OA
BRANCH  15  21
ATOM     18  C   UNL     1       6.000   4.473  16.711  0.00  0.00    +0.000 A 
ATOM     19  C   UNL     1       4.695   4.125  16.339  0.00  0.00    +0.000 A 
ATOM     20  C   UNL     1       3.650   4.214  17.257  0.00  0.00    +0.000 A 
ATOM     21  C   UNL     1       3.917   4.618  18.570  0.00  0.00    +0.000 A 
ATOM     22  C   UNL     1       5.204   4.998  18.952  0.00  0.00    +0.000 A 
ATOM     23  C   UNL     1       6.243   4.937  18.013  0.00  0.00    +0.000 A 
BRANCH  18  25
ATOM     24  C   UNL     1       6.659   4.590  14.289  0.00  0.00    +0.000 C 
ATOM     25  C   UNL     1       7.127   4.353  15.716  0.00  0.00    +0.000 C 
ENDBRANCH  18  25
ENDBRANCH  15  21
ENDBRANCH   1  15
TORSDOF 5
ENDMDL
MODEL 7
REMARK VINA RESULT:      -7.6      3.261      7.883
REMARK  Name = 
REMARK  6 active torsions:
REMARK  status: ('A' for Active; 'I' for Inactive)
REMARK    1  A    between atoms: C_1  and  C_2
REMARK    2  A    between atoms: C_2  and  C_3
REMARK    3  A    between atoms: C_6  and  S_7
REMARK    4  A    between atoms: S_7  and  N_10
REMARK    5  A    between atoms: N_10  and  C_11
REMARK    6  A    between atoms: C_15  and  C_16
REMARK                            x       y       z     vdW  Elec       q    Type
REMARK                         _______ _______ _______ _____ _____    ______ ____
ROOT
ATOM      1  N   UNL     1       2.713   5.634  20.563  0.00  0.00    +0.000 N 
ATOM      2  H   UNL     1       3.113   5.591  21.493  0.00  0.00    +0.000 HD
ENDROOT
BRANCH   1   3
ATOM      3  C   UNL     1       2.255   6.853  20.011  0.00  0.00    +0.000 A 
ATOM      4  C   UNL     1       2.403   7.105  18.651  0.00  0.00    +0.000 A 
ATOM      5  C   UNL     1       1.981   8.324  18.121  0.00  0.00    +0.000 A 
ATOM      6  C   UNL     1       1.387   9.278  18.947  0.00  0.00    +0.000 A 
ATOM      7  C   UNL     1       1.213   9.025  20.317  0.00  0.00    +0.000 A 
ATOM      8  C   UNL     1       1.647   7.796  20.839  0.00  0.00    +0.000 A 
BRANCH   7   9
ATOM      9  C   UNL     1       0.581  10.063  21.210  0.00  0.00    +0.000 C 
ATOM     10  O   UNL     1      -0.140  10.986  20.397  0.00  0.00    +0.000 OA
ATOM     11  C   UNL     1      -0.680  12.031  21.197  0.00  0.00    +0.000 C 
ATOM     12  C   UNL     1      -1.571  11.458  22.288  0.00  0.00    +0.000 C 
ATOM     13  C   UNL     1      -0.830  10.369  23.047  0.00  0.00    +0.000 C 
ATOM     14  O   UNL     1      -0.284   9.418  22.140  0.00  0.00    +0.000 OA
ENDBRANCH   7   9
ENDBRANCH   1   3
BRANCH   1  15
ATOM     15  S   UNL     1       2.511   4.195  19.721  0.00  0.00    +0.000 S 
ATOM     16  O   UNL     1       1.252   4.243  19.008  0.00  0.00    +0.000 OA
ATOM     17  O   UNL     1       2.803   3.128  20.659  0.00  0.00    +0.000 OA
BRANCH  15  21
ATOM     18  C   UNL     1       5.926   4.460  16.695  0.00  0.00    +0.000 A 
ATOM     19  C   UNL     1       6.152   4.705  18.057  0.00  0.00    +0.000 A 
ATOM     20  C   UNL     1       5.117   4.566  18.981  0.00  0.00    +0.000 A 
ATOM     21  C   UNL     1       3.838   4.216  18.537  0.00  0.00    +0.000 A 
ATOM     22  C   UNL     1       3.600   3.937  17.191  0.00  0.00    +0.000 A 
ATOM     23  C   UNL     1       4.653   4.047  16.272  0.00  0.00    +0.000 A 
BRANCH  18  25
ATOM     24  C   UNL     1       6.573   4.451  14.267  0.00  0.00    +0.000 C 
ATOM     25  C   UNL     1       7.047   4.633  15.701  0.00  0.00    +0.000 C 
ENDBRANCH  18  25
ENDBRANCH  15  21
ENDBRANCH   1  15
TORSDOF 5
ENDMDL
MODEL 8
REMARK VINA RESULT:      -7.6      0.483      1.473
REMARK  Name = 
REMARK  6 active torsions:
REMARK  status: ('A' for Active; 'I' for Inactive)
REMARK    1  A    between atoms: C_1  and  C_2
REMARK    2  A    between atoms: C_2  and  C_3
REMARK    3  A    between atoms: C_6  and  S_7
REMARK    4  A    between atoms: S_7  and  N_10
REMARK    5  A    between atoms: N_10  and  C_11
REMARK    6  A    between atoms: C_15  and  C_16
REMARK                            x       y       z     vdW  Elec       q    Type
REMARK                         _______ _______ _______ _____ _____    ______ ____
ROOT
ATOM      1  N   UNL     1       5.114   3.379  19.256  0.00  0.00    +0.000 N 
ATOM      2  H   UNL     1       5.589   2.801  19.940  0.00  0.00    +0.000 HD
ENDROOT
BRANCH   1   3
ATOM      3  C   UNL     1       5.825   4.282  18.431  0.00  0.00    +0.000 A 
ATOM      4  C   UNL     1       6.220   5.520  18.928  0.00  0.00    +0.000 A 
ATOM      5  C   UNL     1       6.889   6.419  18.096  0.00  0.00    +0.000 A 
ATOM      6  C   UNL     1       7.185   6.068  16.780  0.00  0.00    +0.000 A 
ATOM      7  C   UNL     1       6.809   4.812  16.276  0.00  0.00    +0.000 A 
ATOM      8  C   UNL     1       6.133   3.919  17.121  0.00  0.00    +0.000 A 
BRANCH   7   9
ATOM      9  C   UNL     1       7.121   4.439  14.848  0.00  0.00    +0.000 C 
ATOM     10  O   UNL     1       5.934   3.941  14.236  0.00  0.00    +0.000 OA
ATOM     11  C   UNL     1       6.209   3.498  12.913  0.00  0.00    +0.000 C 
ATOM     12  C   UNL     1       6.811   4.626  12.090  0.00  0.00    +0.000 C 
ATOM     13  C   UNL     1       7.987   5.242  12.831  0.00  0.00    +0.000 C 
ATOM     14  O   UNL     1       7.608   5.587  14.159  0.00  0.00    +0.000 OA
ENDBRANCH   7   9
ENDBRANCH   1   3
BRANCH   1  15
ATOM     15  S   UNL     1       3.438   3.315  19.192  0.00  0.00    +0.000 S 
ATOM     16  O   UNL     1       2.941   2.785  20.445  0.00  0.00    +0.000 OA
ATOM     17  O   UNL     1       3.100   2.692  17.927  0.00  0.00    +0.000 OA
BRANCH  15  21
ATOM     18  C   UNL     1       2.020   7.652  18.939  0.00  0.00    +0.000 A 
ATOM     19  C   UNL     1       2.226   7.035  20.180  0.00  0.00    +0.000 A 
ATOM     20  C   UNL     1       2.713   5.731  20.249  0.00  0.00    +0.000 A 
ATOM     21  C   UNL     1       2.961   5.024  19.068  0.00  0.00    +0.000 A 
ATOM     22  C   UNL     1       2.793   5.631  17.823  0.00  0.00    +0.000 A 
ATOM     23  C   UNL     1       2.334   6.954  17.763  0.00  0.00    +0.000 A 
BRANCH  18  25
ATOM     24  C   UNL     1       2.232   9.922  17.882  0.00  0.00    +0.000 C 
ATOM     25  C   UNL     1       1.472   9.056  18.875  0.00  0.00    +0.000 C 
ENDBRANCH  18  25
ENDBRANCH  15  21
ENDBRANCH   1  15
TORSDOF 5
ENDMDL
MODEL 9
REMARK VINA RESULT:      -7.5      2.873      7.616
REMARK  Name = 
REMARK  6 active torsions:
REMARK  status: ('A' for Active; 'I' for Inactive)
REMARK    1  A    between atoms: C_1  and  C_2
REMARK    2  A    between atoms: C_2  and  C_3
REMARK    3  A    between atoms: C_6  and  S_7
REMARK    4  A    between atoms: S_7  and  N_10
REMARK    5  A    between atoms: N_10  and  C_11
REMARK    6  A    between atoms: C_15  and  C_16
REMARK                            x       y       z     vdW  Elec       q    Type
REMARK                         _______ _______ _______ _____ _____    ______ ____
ROOT
ATOM      1  N   UNL     1       3.324   4.839  18.984  0.00  0.00    +0.000 N 
ATOM      2  H   UNL     1       2.681   4.057  18.950  0.00  0.00    +0.000 HD
ENDROOT
BRANCH   1   3
ATOM      3  C   UNL     1       2.872   6.173  18.855  0.00  0.00    +0.000 A 
ATOM      4  C   UNL     1       3.002   6.842  17.642  0.00  0.00    +0.000 A 
ATOM      5  C   UNL     1       2.587   8.169  17.534  0.00  0.00    +0.000 A 
ATOM      6  C   UNL     1       2.018   8.816  18.630  0.00  0.00    +0.000 A 
ATOM      7  C   UNL     1       1.864   8.143  19.853  0.00  0.00    +0.000 A 
ATOM      8  C   UNL     1       2.290   6.810  19.950  0.00  0.00    +0.000 A 
BRANCH   7   9
ATOM      9  C   UNL     1       1.259   8.850  21.040  0.00  0.00    +0.000 C 
ATOM     10  O   UNL     1       1.017  10.210  20.688  0.00  0.00    +0.000 OA
ATOM     11  C   UNL     1       0.527  10.931  21.812  0.00  0.00    +0.000 C 
ATOM     12  C   UNL     1      -0.737  10.278  22.351  0.00  0.00    +0.000 C 
ATOM     13  C   UNL     1      -0.499   8.794  22.579  0.00  0.00    +0.000 C 
ATOM     14  O   UNL     1       0.048   8.195  21.409  0.00  0.00    +0.000 OA
ENDBRANCH   7   9
ENDBRANCH   1   3
BRANCH   1  15
ATOM     15  S   UNL     1       4.967   4.509  19.095  0.00  0.00    +0.000 S 
ATOM     16  O   UNL     1       5.142   3.170  19.615  0.00  0.00    +0.000 OA
ATOM     17  O   UNL     1       5.570   5.654  19.750  0.00  0.00    +0.000 OA
BRANCH  15  21
ATOM     18  C   UNL     1       6.388   4.375  14.753  0.00  0.00    +0.000 A 
ATOM     19  C   UNL     1       5.118   3.902  15.108  0.00  0.00    +0.000 A 
ATOM     20  C   UNL     1       4.669   3.999  16.425  0.00  0.00    +0.000 A 
ATOM     21  C   UNL     1       5.512   4.539  17.402  0.00  0.00    +0.000 A 
ATOM     22  C   UNL     1       6.768   5.044  17.064  0.00  0.00    +0.000 A 
ATOM     23  C   UNL     1       7.198   4.972  15.731  0.00  0.00    +0.000 A 
BRANCH  18  25
ATOM     24  C   UNL     1       5.944   3.387  12.486  0.00  0.00    +0.000 C 
ATOM     25  C   UNL     1       6.872   4.246  13.331  0.00  0.00    +0.000 C 
ENDBRANCH  18  25
ENDBRANCH  15  21
ENDBRANCH   1  15
TORSDOF 5
ENDMDL
