MODEL 1
REMARK VINA RESULT:      -7.6      0.000      0.000
REMARK  Name = 
REMARK  4 active torsions:
REMARK  status: ('A' for Active; 'I' for Inactive)
REMARK    1  A    between atoms: C_2  and  C_4
REMARK    2  A    between atoms: C_4  and  C_5
REMARK    3  A    between atoms: C_10  and  N_11
REMARK    4  A    between atoms: N_11  and  C_12
REMARK                            x       y       z     vdW  Elec       q    Type
REMARK                         _______ _______ _______ _____ _____    ______ ____
ROOT
ATOM      1  C   UNL     1       6.934   4.613  16.877  0.00  0.00    +0.000 A 
ATOM      2  C   UNL     1       7.386   4.950  15.586  0.00  0.00    +0.000 A 
ATOM      3  C   UNL     1       6.549   4.848  14.470  0.00  0.00    +0.000 A 
ATOM      4  C   UNL     1       5.264   4.346  14.613  0.00  0.00    +0.000 A 
ATOM      5  C   UNL     1       4.809   3.982  15.877  0.00  0.00    +0.000 A 
ATOM      6  C   UNL     1       5.607   4.142  17.027  0.00  0.00    +0.000 A 
ENDROOT
BRANCH   6   7
ATOM      7  N   UNL     1       5.049   3.874  18.297  0.00  0.00    +0.000 N 
ATOM      8  H   UNL     1       5.631   4.088  19.097  0.00  0.00    +0.000 HD
BRANCH   7   9
ATOM      9  C   UNL     1       3.694   3.641  18.643  0.00  0.00    +0.000 A 
ATOM     10  C   UNL     1       3.161   2.355  18.851  0.00  0.00    +0.000 A 
ATOM     11 CL   UNL     1       4.012   0.901  18.434  0.00  0.00    +0.000 Cl
ATOM     12  C   UNL     1       1.854   2.180  19.326  0.00  0.00    +0.000 A 
ATOM     13  C   UNL     1       1.035   3.282  19.549  0.00  0.00    +0.000 A 
ATOM     14  C   UNL     1       1.507   4.558  19.262  0.00  0.00    +0.000 A 
ATOM     15  C   UNL     1       2.818   4.735  18.803  0.00  0.00    +0.000 A 
ATOM     16 BR   UNL     1       3.373   6.517  18.421  0.00  0.00    +0.000 Br
ENDBRANCH   7   9
ENDBRANCH   6   7
BRANCH   1  17
ATOM     17  C   UNL     1       7.892   4.628  18.044  0.00  0.00    +0.000 C 
BRANCH  17  19
ATOM     18  O   UNL     1       7.543   5.500  20.252  0.00  0.00    +0.000 OA
ATOM     19  C   UNL     1       7.789   5.748  19.032  0.00  0.00    +0.000 C 
ATOM     20  O   UNL     1       8.139   6.924  18.688  0.00  0.00    +0.000 OA
ENDBRANCH  17  19
ENDBRANCH   1  17
TORSDOF 4
ENDMDL
MODEL 2
REMARK VINA RESULT:      -7.5      2.145      3.170
REMARK  Name = 
REMARK  4 active torsions:
REMARK  status: ('A' for Active; 'I' for Inactive)
REMARK    1  A    between atoms: C_2  and  C_4
REMARK    2  A    between atoms: C_4  and  C_5
REMARK    3  A    between atoms: C_10  and  N_11
REMARK    4  A    between atoms: N_11  and  C_12
REMARK                            x       y       z     vdW  Elec       q    Type
REMARK                         _______ _______ _______ _____ _____    ______ ____
ROOT
ATOM      1  C   UNL     1       6.036   4.518  16.917  0.00  0.00    +0.000 A 
ATOM      2  C   UNL     1       7.427   4.584  17.135  0.00  0.00    +0.000 A 
ATOM      3  C   UNL     1       7.955   5.034  18.349  0.00  0.00    +0.000 A 
ATOM      4  C   UNL     1       7.105   5.488  19.347  0.00  0.00    +0.000 A 
ATOM      5  C   UNL     1       5.728   5.456  19.141  0.00  0.00    +0.000 A 
ATOM      6  C   UNL     1       5.169   4.940  17.954  0.00  0.00    +0.000 A 
ENDROOT
BRANCH   6   7
ATOM      7  N   UNL     1       3.765   4.817  17.851  0.00  0.00    +0.000 N 
ATOM      8  H   UNL     1       3.376   4.895  16.920  0.00  0.00    +0.000 HD
BRANCH   7   9
ATOM      9  C   UNL     1       2.845   4.297  18.796  0.00  0.00    +0.000 A 
ATOM     10  C   UNL     1       2.596   2.921  18.956  0.00  0.00    +0.000 A 
ATOM     11 CL   UNL     1       3.163   1.723  17.836  0.00  0.00    +0.000 Cl
ATOM     12  C   UNL     1       1.784   2.447  19.995  0.00  0.00    +0.000 A 
ATOM     13  C   UNL     1       1.159   3.339  20.860  0.00  0.00    +0.000 A 
ATOM     14  C   UNL     1       1.314   4.708  20.665  0.00  0.00    +0.000 A 
ATOM     15  C   UNL     1       2.138   5.182  19.638  0.00  0.00    +0.000 A 
ATOM     16 BR   UNL     1       2.277   7.071  19.435  0.00  0.00    +0.000 Br
ENDBRANCH   7   9
ENDBRANCH   6   7
BRANCH   1  17
ATOM     17  C   UNL     1       5.498   4.133  15.560  0.00  0.00    +0.000 C 
BRANCH  17  19
ATOM     18  O   UNL     1       6.326   3.569  13.381  0.00  0.00    +0.000 OA
ATOM     19  C   UNL     1       6.359   4.375  14.360  0.00  0.00    +0.000 C 
ATOM     20  O   UNL     1       6.974   5.484  14.241  0.00  0.00    +0.000 OA
ENDBRANCH  17  19
ENDBRANCH   1  17
TORSDOF 4
ENDMDL
MODEL 3
REMARK VINA RESULT:      -7.5      2.149      3.206
REMARK  Name = 
REMARK  4 active torsions:
REMARK  status: ('A' for Active; 'I' for Inactive)
REMARK    1  A    between atoms: C_2  and  C_4
REMARK    2  A    between atoms: C_4  and  C_5
REMARK    3  A    between atoms: C_10  and  N_11
REMARK    4  A    between atoms: N_11  and  C_12
REMARK                            x       y       z     vdW  Elec       q    Type
REMARK                         _______ _______ _______ _____ _____    ______ ____
ROOT
ATOM      1  C   UNL     1       6.090   5.788  16.998  0.00  0.00    +0.000 A 
ATOM      2  C   UNL     1       7.316   6.425  17.276  0.00  0.00    +0.000 A 
ATOM      3  C   UNL     1       7.896   6.368  18.547  0.00  0.00    +0.000 A 
ATOM      4  C   UNL     1       7.232   5.728  19.583  0.00  0.00    +0.000 A 
ATOM      5  C   UNL     1       6.006   5.115  19.334  0.00  0.00    +0.000 A 
ATOM      6  C   UNL     1       5.435   5.096  18.046  0.00  0.00    +0.000 A 
ENDROOT
BRANCH   6   7
ATOM      7  N   UNL     1       4.253   4.353  17.826  0.00  0.00    +0.000 N 
ATOM      8  H   UNL     1       4.238   3.770  16.999  0.00  0.00    +0.000 HD
BRANCH   7   9
ATOM      9  C   UNL     1       3.206   4.057  18.735  0.00  0.00    +0.000 A 
ATOM     10  C   UNL     1       2.921   2.755  19.187  0.00  0.00    +0.000 A 
ATOM     11 CL   UNL     1       3.622   1.335  18.477  0.00  0.00    +0.000 Cl
ATOM     12  C   UNL     1       1.969   2.527  20.190  0.00  0.00    +0.000 A 
ATOM     13  C   UNL     1       1.241   3.588  20.720  0.00  0.00    +0.000 A 
ATOM     14  C   UNL     1       1.438   4.872  20.223  0.00  0.00    +0.000 A 
ATOM     15  C   UNL     1       2.401   5.103  19.234  0.00  0.00    +0.000 A 
ATOM     16 BR   UNL     1       2.589   6.891  18.603  0.00  0.00    +0.000 Br
ENDBRANCH   7   9
ENDBRANCH   6   7
BRANCH   1  17
ATOM     17  C   UNL     1       5.435   5.958  15.648  0.00  0.00    +0.000 C 
BRANCH  17  19
ATOM     18  O   UNL     1       7.112   5.317  14.057  0.00  0.00    +0.000 OA
ATOM     19  C   UNL     1       5.939   5.133  14.505  0.00  0.00    +0.000 C 
ATOM     20  O   UNL     1       5.267   4.125  14.114  0.00  0.00    +0.000 OA
ENDBRANCH  17  19
ENDBRANCH   1  17
TORSDOF 4
ENDMDL
MODEL 4
REMARK VINA RESULT:      -7.4      2.769      3.775
REMARK  Name = 
REMARK  4 active torsions:
REMARK  status: ('A' for Active; 'I' for Inactive)
REMARK    1  A    between atoms: C_2  and  C_4
REMARK    2  A    between atoms: C_4  and  C_5
REMARK    3  A    between atoms: C_10  and  N_11
REMARK    4  A    between atoms: N_11  and  C_12
REMARK                            x       y       z     vdW  Elec       q    Type
REMARK                         _______ _______ _______ _____ _____    ______ ____
ROOT
ATOM      1  C   UNL     1       6.099   4.417  16.949  0.00  0.00    +0.000 A 
ATOM      2  C   UNL     1       7.480   4.578  17.177  0.00  0.00    +0.000 A 
ATOM      3  C   UNL     1       7.965   5.114  18.373  0.00  0.00    +0.000 A 
ATOM      4  C   UNL     1       7.076   5.562  19.340  0.00  0.00    +0.000 A 
ATOM      5  C   UNL     1       5.707   5.436  19.122  0.00  0.00    +0.000 A 
ATOM      6  C   UNL     1       5.195   4.832  17.956  0.00  0.00    +0.000 A 
ENDROOT
BRANCH   6   7
ATOM      7  N   UNL     1       3.803   4.618  17.845  0.00  0.00    +0.000 N 
ATOM      8  H   UNL     1       3.438   4.520  16.906  0.00  0.00    +0.000 HD
BRANCH   7   9
ATOM      9  C   UNL     1       2.881   4.215  18.844  0.00  0.00    +0.000 A 
ATOM     10  C   UNL     1       2.138   5.123  19.621  0.00  0.00    +0.000 A 
ATOM     11 CL   UNL     1       2.464   6.828  19.651  0.00  0.00    +0.000 Cl
ATOM     12  C   UNL     1       1.139   4.680  20.498  0.00  0.00    +0.000 A 
ATOM     13  C   UNL     1       0.901   3.319  20.660  0.00  0.00    +0.000 A 
ATOM     14  C   UNL     1       1.686   2.398  19.974  0.00  0.00    +0.000 A 
ATOM     15  C   UNL     1       2.673   2.840  19.084  0.00  0.00    +0.000 A 
ATOM     16 BR   UNL     1       3.710   1.508  18.202  0.00  0.00    +0.000 Br
ENDBRANCH   7   9
ENDBRANCH   6   7
BRANCH   1  17
ATOM     17  C   UNL     1       5.602   3.937  15.606  0.00  0.00    +0.000 C 
BRANCH  17  19
ATOM     18  O   UNL     1       6.316   3.639  13.335  0.00  0.00    +0.000 OA
ATOM     19  C   UNL     1       6.350   4.359  14.380  0.00  0.00    +0.000 C 
ATOM     20  O   UNL     1       6.857   5.526  14.323  0.00  0.00    +0.000 OA
ENDBRANCH  17  19
ENDBRANCH   1  17
TORSDOF 4
ENDMDL
MODEL 5
REMARK VINA RESULT:      -7.3      1.350      1.536
REMARK  Name = 
REMARK  4 active torsions:
REMARK  status: ('A' for Active; 'I' for Inactive)
REMARK    1  A    between atoms: C_2  and  C_4
REMARK    2  A    between atoms: C_4  and  C_5
REMARK    3  A    between atoms: C_10  and  N_11
REMARK    4  A    between atoms: N_11  and  C_12
REMARK                            x       y       z     vdW  Elec       q    Type
REMARK                         _______ _______ _______ _____ _____    ______ ____
ROOT
ATOM      1  C   UNL     1       6.661   5.150  17.227  0.00  0.00    +0.000 A 
ATOM      2  C   UNL     1       7.065   4.890  15.902  0.00  0.00    +0.000 A 
ATOM      3  C   UNL     1       6.268   4.145  15.029  0.00  0.00    +0.000 A 
ATOM      4  C   UNL     1       5.081   3.588  15.482  0.00  0.00    +0.000 A 
ATOM      5  C   UNL     1       4.677   3.811  16.795  0.00  0.00    +0.000 A 
ATOM      6  C   UNL     1       5.427   4.619  17.674  0.00  0.00    +0.000 A 
ENDROOT
BRANCH   6   7
ATOM      7  N   UNL     1       4.907   4.912  18.954  0.00  0.00    +0.000 N 
ATOM      8  H   UNL     1       5.332   5.689  19.443  0.00  0.00    +0.000 HD
BRANCH   7   9
ATOM      9  C   UNL     1       3.686   4.490  19.537  0.00  0.00    +0.000 A 
ATOM     10  C   UNL     1       3.516   3.234  20.149  0.00  0.00    +0.000 A 
ATOM     11 CL   UNL     1       4.679   1.952  20.014  0.00  0.00    +0.000 Cl
ATOM     12  C   UNL     1       2.335   2.914  20.834  0.00  0.00    +0.000 A 
ATOM     13  C   UNL     1       1.280   3.819  20.873  0.00  0.00    +0.000 A 
ATOM     14  C   UNL     1       1.388   5.030  20.196  0.00  0.00    +0.000 A 
ATOM     15  C   UNL     1       2.573   5.357  19.526  0.00  0.00    +0.000 A 
ATOM     16 BR   UNL     1       2.623   7.029  18.614  0.00  0.00    +0.000 Br
ENDBRANCH   7   9
ENDBRANCH   6   7
BRANCH   1  17
ATOM     17  C   UNL     1       7.591   5.865  18.178  0.00  0.00    +0.000 C 
BRANCH  17  19
ATOM     18  O   UNL     1       7.125   7.975  17.138  0.00  0.00    +0.000 OA
ATOM     19  C   UNL     1       7.824   7.330  17.978  0.00  0.00    +0.000 C 
ATOM     20  O   UNL     1       8.583   7.961  18.782  0.00  0.00    +0.000 OA
ENDBRANCH  17  19
ENDBRANCH   1  17
TORSDOF 4
ENDMDL
MODEL 6
REMARK VINA RESULT:      -7.2      2.058      2.502
REMARK  Name = 
REMARK  4 active torsions:
REMARK  status: ('A' for Active; 'I' for Inactive)
REMARK    1  A    between atoms: C_2  and  C_4
REMARK    2  A    between atoms: C_4  and  C_5
REMARK    3  A    between atoms: C_10  and  N_11
REMARK    4  A    between atoms: N_11  and  C_12
REMARK                            x       y       z     vdW  Elec       q    Type
REMARK                         _______ _______ _______ _____ _____    ______ ____
ROOT
ATOM      1  C   UNL     1       6.985   4.600  16.747  0.00  0.00    +0.000 A 
ATOM      2  C   UNL     1       7.464   4.920  15.461  0.00  0.00    +0.000 A 
ATOM      3  C   UNL     1       6.644   4.828  14.333  0.00  0.00    +0.000 A 
ATOM      4  C   UNL     1       5.347   4.352  14.457  0.00  0.00    +0.000 A 
ATOM      5  C   UNL     1       4.863   4.006  15.716  0.00  0.00    +0.000 A 
ATOM      6  C   UNL     1       5.646   4.157  16.878  0.00  0.00    +0.000 A 
ENDROOT
BRANCH   6   7
ATOM      7  N   UNL     1       5.061   3.909  18.140  0.00  0.00    +0.000 N 
ATOM      8  H   UNL     1       5.544   3.249  18.735  0.00  0.00    +0.000 HD
BRANCH   7   9
ATOM      9  C   UNL     1       4.077   4.661  18.829  0.00  0.00    +0.000 A 
ATOM     10  C   UNL     1       3.771   6.000  18.519  0.00  0.00    +0.000 A 
ATOM     11 CL   UNL     1       4.746   6.971  17.461  0.00  0.00    +0.000 Cl
ATOM     12  C   UNL     1       2.696   6.659  19.132  0.00  0.00    +0.000 A 
ATOM     13  C   UNL     1       1.942   6.015  20.107  0.00  0.00    +0.000 A 
ATOM     14  C   UNL     1       2.283   4.725  20.498  0.00  0.00    +0.000 A 
ATOM     15  C   UNL     1       3.346   4.059  19.875  0.00  0.00    +0.000 A 
ATOM     16 BR   UNL     1       3.751   2.301  20.487  0.00  0.00    +0.000 Br
ENDBRANCH   7   9
ENDBRANCH   6   7
BRANCH   1  17
ATOM     17  C   UNL     1       7.923   4.604  17.930  0.00  0.00    +0.000 C 
BRANCH  17  19
ATOM     18  O   UNL     1       8.063   6.900  18.612  0.00  0.00    +0.000 OA
ATOM     19  C   UNL     1       7.791   5.704  18.937  0.00  0.00    +0.000 C 
ATOM     20  O   UNL     1       7.225   5.469  20.053  0.00  0.00    +0.000 OA
ENDBRANCH  17  19
ENDBRANCH   1  17
TORSDOF 4
ENDMDL
MODEL 7
REMARK VINA RESULT:      -7.1      1.986      2.366
REMARK  Name = 
REMARK  4 active torsions:
REMARK  status: ('A' for Active; 'I' for Inactive)
REMARK    1  A    between atoms: C_2  and  C_4
REMARK    2  A    between atoms: C_4  and  C_5
REMARK    3  A    between atoms: C_10  and  N_11
REMARK    4  A    between atoms: N_11  and  C_12
REMARK                            x       y       z     vdW  Elec       q    Type
REMARK                         _______ _______ _______ _____ _____    ______ ____
ROOT
ATOM      1  C   UNL     1       6.774   4.591  17.118  0.00  0.00    +0.000 A 
ATOM      2  C   UNL     1       7.060   4.665  15.739  0.00  0.00    +0.000 A 
ATOM      3  C   UNL     1       6.053   4.539  14.778  0.00  0.00    +0.000 A 
ATOM      4  C   UNL     1       4.750   4.272  15.172  0.00  0.00    +0.000 A 
ATOM      5  C   UNL     1       4.452   4.169  16.528  0.00  0.00    +0.000 A 
ATOM      6  C   UNL     1       5.436   4.363  17.519  0.00  0.00    +0.000 A 
ENDROOT
BRANCH   6   7
ATOM      7  N   UNL     1       5.052   4.371  18.879  0.00  0.00    +0.000 N 
ATOM      8  H   UNL     1       5.716   4.770  19.529  0.00  0.00    +0.000 HD
BRANCH   7   9
ATOM      9  C   UNL     1       3.764   4.188  19.442  0.00  0.00    +0.000 A 
ATOM     10  C   UNL     1       2.743   5.154  19.364  0.00  0.00    +0.000 A 
ATOM     11 CL   UNL     1       3.022   6.781  18.827  0.00  0.00    +0.000 Cl
ATOM     12  C   UNL     1       1.445   4.875  19.812  0.00  0.00    +0.000 A 
ATOM     13  C   UNL     1       1.153   3.648  20.398  0.00  0.00    +0.000 A 
ATOM     14  C   UNL     1       2.167   2.712  20.572  0.00  0.00    +0.000 A 
ATOM     15  C   UNL     1       3.461   2.983  20.110  0.00  0.00    +0.000 A 
ATOM     16 BR   UNL     1       4.788   1.649  20.406  0.00  0.00    +0.000 Br
ENDBRANCH   7   9
ENDBRANCH   6   7
BRANCH   1  17
ATOM     17  C   UNL     1       7.896   4.621  18.128  0.00  0.00    +0.000 C 
BRANCH  17  19
ATOM     18  O   UNL     1       8.144   6.932  18.723  0.00  0.00    +0.000 OA
ATOM     19  C   UNL     1       7.931   5.744  19.117  0.00  0.00    +0.000 C 
ATOM     20  O   UNL     1       7.558   5.537  20.316  0.00  0.00    +0.000 OA
ENDBRANCH  17  19
ENDBRANCH   1  17
TORSDOF 4
ENDMDL
MODEL 8
REMARK VINA RESULT:      -7.1      1.204      1.482
REMARK  Name = 
REMARK  4 active torsions:
REMARK  status: ('A' for Active; 'I' for Inactive)
REMARK    1  A    between atoms: C_2  and  C_4
REMARK    2  A    between atoms: C_4  and  C_5
REMARK    3  A    between atoms: C_10  and  N_11
REMARK    4  A    between atoms: N_11  and  C_12
REMARK                            x       y       z     vdW  Elec       q    Type
REMARK                         _______ _______ _______ _____ _____    ______ ____
ROOT
ATOM      1  C   UNL     1       6.032   5.051  17.468  0.00  0.00    +0.000 A 
ATOM      2  C   UNL     1       7.176   4.831  16.674  0.00  0.00    +0.000 A 
ATOM      3  C   UNL     1       7.072   4.394  15.350  0.00  0.00    +0.000 A 
ATOM      4  C   UNL     1       5.826   4.106  14.812  0.00  0.00    +0.000 A 
ATOM      5  C   UNL     1       4.686   4.291  15.589  0.00  0.00    +0.000 A 
ATOM      6  C   UNL     1       4.759   4.799  16.902  0.00  0.00    +0.000 A 
ENDROOT
BRANCH   6   7
ATOM      7  N   UNL     1       3.563   5.085  17.598  0.00  0.00    +0.000 N 
ATOM      8  H   UNL     1       2.866   5.616  17.092  0.00  0.00    +0.000 HD
BRANCH   7   9
ATOM      9  C   UNL     1       3.057   4.488  18.780  0.00  0.00    +0.000 A 
ATOM     10  C   UNL     1       3.070   3.100  19.012  0.00  0.00    +0.000 A 
ATOM     11 CL   UNL     1       3.439   1.940  17.774  0.00  0.00    +0.000 Cl
ATOM     12  C   UNL     1       2.688   2.567  20.250  0.00  0.00    +0.000 A 
ATOM     13  C   UNL     1       2.231   3.404  21.263  0.00  0.00    +0.000 A 
ATOM     14  C   UNL     1       2.119   4.770  21.027  0.00  0.00    +0.000 A 
ATOM     15  C   UNL     1       2.517   5.306  19.796  0.00  0.00    +0.000 A 
ATOM     16 BR   UNL     1       2.313   7.185  19.558  0.00  0.00    +0.000 Br
ENDBRANCH   7   9
ENDBRANCH   6   7
BRANCH   1  17
ATOM     17  C   UNL     1       6.179   5.416  18.925  0.00  0.00    +0.000 C 
BRANCH  17  19
ATOM     18  O   UNL     1       8.184   6.733  18.943  0.00  0.00    +0.000 OA
ATOM     19  C   UNL     1       7.543   5.756  19.438  0.00  0.00    +0.000 C 
ATOM     20  O   UNL     1       7.976   5.191  20.494  0.00  0.00    +0.000 OA
ENDBRANCH  17  19
ENDBRANCH   1  17
TORSDOF 4
ENDMDL
MODEL 9
REMARK VINA RESULT:      -6.9      1.900      2.306
REMARK  Name = 
REMARK  4 active torsions:
REMARK  status: ('A' for Active; 'I' for Inactive)
REMARK    1  A    between atoms: C_2  and  C_4
REMARK    2  A    between atoms: C_4  and  C_5
REMARK    3  A    between atoms: C_10  and  N_11
REMARK    4  A    between atoms: N_11  and  C_12
REMARK                            x       y       z     vdW  Elec       q    Type
REMARK                         _______ _______ _______ _____ _____    ______ ____
ROOT
ATOM      1  C   UNL     1       7.081   4.585  16.585  0.00  0.00    +0.000 A 
ATOM      2  C   UNL     1       7.586   5.043  15.351  0.00  0.00    +0.000 A 
ATOM      3  C   UNL     1       6.846   4.927  14.171  0.00  0.00    +0.000 A 
ATOM      4  C   UNL     1       5.613   4.291  14.188  0.00  0.00    +0.000 A 
ATOM      5  C   UNL     1       5.108   3.808  15.392  0.00  0.00    +0.000 A 
ATOM      6  C   UNL     1       5.802   3.977  16.607  0.00  0.00    +0.000 A 
ENDROOT
BRANCH   6   7
ATOM      7  N   UNL     1       5.186   3.578  17.814  0.00  0.00    +0.000 N 
ATOM      8  H   UNL     1       5.803   3.245  18.544  0.00  0.00    +0.000 HD
BRANCH   7   9
ATOM      9  C   UNL     1       3.875   3.854  18.278  0.00  0.00    +0.000 A 
ATOM     10  C   UNL     1       3.307   5.142  18.267  0.00  0.00    +0.000 A 
ATOM     11 CL   UNL     1       4.230   6.578  17.955  0.00  0.00    +0.000 Cl
ATOM     12  C   UNL     1       1.962   5.345  18.604  0.00  0.00    +0.000 A 
ATOM     13  C   UNL     1       1.173   4.275  19.015  0.00  0.00    +0.000 A 
ATOM     14  C   UNL     1       1.736   3.009  19.126  0.00  0.00    +0.000 A 
ATOM     15  C   UNL     1       3.075   2.802  18.772  0.00  0.00    +0.000 A 
ATOM     16 BR   UNL     1       3.765   1.037  18.971  0.00  0.00    +0.000 Br
ENDBRANCH   7   9
ENDBRANCH   6   7
BRANCH   1  17
ATOM     17  C   UNL     1       7.946   4.625  17.821  0.00  0.00    +0.000 C 
BRANCH  17  19
ATOM     18  O   UNL     1       8.029   6.879  18.637  0.00  0.00    +0.000 OA
ATOM     19  C   UNL     1       7.671   5.680  18.847  0.00  0.00    +0.000 C 
ATOM     20  O   UNL     1       6.912   5.414  19.834  0.00  0.00    +0.000 OA
ENDBRANCH  17  19
ENDBRANCH   1  17
TORSDOF 4
ENDMDL
