MODEL 1
REMARK VINA RESULT:      -6.7      0.000      0.000
REMARK  Name = 
REMARK  3 active torsions:
REMARK  status: ('A' for Active; 'I' for Inactive)
REMARK    1  A    between atoms: C_1  and  N_2
REMARK    2  A    between atoms: N_10  and  C_11
REMARK    3  A    between atoms: N_14  and  C_15
REMARK                            x       y       z     vdW  Elec       q    Type
REMARK                         _______ _______ _______ _____ _____    ______ ____
ROOT
ATOM      1  C   UNL     1       2.470   3.060  21.201  0.00  0.00    +0.000 C 
ATOM      2  N   UNL     1       3.425   3.539  20.220  0.00  0.00    +0.000 N 
ATOM      3  C   UNL     1       4.557   2.769  19.952  0.00  0.00    +0.000 A 
ATOM      4  O   UNL     1       4.817   1.698  20.494  0.00  0.00    +0.000 OA
ATOM      5  N   UNL     1       5.420   3.277  19.011  0.00  0.00    +0.000 N 
ATOM      6  C   UNL     1       5.198   4.448  18.380  0.00  0.00    +0.000 A 
ATOM      7  C   UNL     1       4.124   5.205  18.616  0.00  0.00    +0.000 A 
ATOM      8  C   UNL     1       3.128   4.761  19.605  0.00  0.00    +0.000 A 
ATOM      9  O   UNL     1       2.124   5.424  19.855  0.00  0.00    +0.000 OA
ATOM     10  N   UNL     1       4.174   6.329  17.826  0.00  0.00    +0.000 N 
ATOM     11  C   UNL     1       3.238   7.413  17.750  0.00  0.00    +0.000 C 
ATOM     12  C   UNL     1       5.355   6.269  17.046  0.00  0.00    +0.000 A 
ATOM     13  O   UNL     1       5.746   7.082  16.226  0.00  0.00    +0.000 OA
ATOM     14  N   UNL     1       5.977   5.053  17.430  0.00  0.00    +0.000 N 
ATOM     15  C   UNL     1       7.216   4.576  16.885  0.00  0.00    +0.000 C 
ATOM     16  H   UNL     1       6.243   2.726  18.813  0.00  0.00    +0.000 HD
ENDROOT
TORSDOF 0
ENDMDL
MODEL 2
REMARK VINA RESULT:      -6.4      1.353      1.353
REMARK  Name = 
REMARK  3 active torsions:
REMARK  status: ('A' for Active; 'I' for Inactive)
REMARK    1  A    between atoms: C_1  and  N_2
REMARK    2  A    between atoms: N_10  and  C_11
REMARK    3  A    between atoms: N_14  and  C_15
REMARK                            x       y       z     vdW  Elec       q    Type
REMARK                         _______ _______ _______ _____ _____    ______ ____
ROOT
ATOM      1  C   UNL     1       2.007   2.633  20.173  0.00  0.00    +0.000 C 
ATOM      2  N   UNL     1       2.884   3.106  19.120  0.00  0.00    +0.000 N 
ATOM      3  C   UNL     1       3.659   2.178  18.424  0.00  0.00    +0.000 A 
ATOM      4  O   UNL     1       3.662   0.969  18.639  0.00  0.00    +0.000 OA
ATOM      5  N   UNL     1       4.467   2.689  17.437  0.00  0.00    +0.000 N 
ATOM      6  C   UNL     1       4.516   4.006  17.149  0.00  0.00    +0.000 A 
ATOM      7  C   UNL     1       3.786   4.917  17.798  0.00  0.00    +0.000 A 
ATOM      8  C   UNL     1       2.882   4.485  18.878  0.00  0.00    +0.000 A 
ATOM      9  O   UNL     1       2.191   5.286  19.502  0.00  0.00    +0.000 OA
ATOM     10  N   UNL     1       4.048   6.164  17.285  0.00  0.00    +0.000 N 
ATOM     11  C   UNL     1       3.496   7.428  17.676  0.00  0.00    +0.000 C 
ATOM     12  C   UNL     1       5.004   6.024  16.248  0.00  0.00    +0.000 A 
ATOM     13  O   UNL     1       5.485   6.905  15.556  0.00  0.00    +0.000 OA
ATOM     14  N   UNL     1       5.274   4.632  16.195  0.00  0.00    +0.000 N 
ATOM     15  C   UNL     1       6.193   4.025  15.275  0.00  0.00    +0.000 C 
ATOM     16  H   UNL     1       5.033   2.024  16.929  0.00  0.00    +0.000 HD
ENDROOT
TORSDOF 0
ENDMDL
MODEL 3
REMARK VINA RESULT:      -6.3      1.532      4.255
REMARK  Name = 
REMARK  3 active torsions:
REMARK  status: ('A' for Active; 'I' for Inactive)
REMARK    1  A    between atoms: C_1  and  N_2
REMARK    2  A    between atoms: N_10  and  C_11
REMARK    3  A    between atoms: N_14  and  C_15
REMARK                            x       y       z     vdW  Elec       q    Type
REMARK                         _______ _______ _______ _____ _____    ______ ____
ROOT
ATOM      1  C   UNL     1       5.035   6.561  16.578  0.00  0.00    +0.000 C 
ATOM      2  N   UNL     1       4.861   5.501  17.551  0.00  0.00    +0.000 N 
ATOM      3  C   UNL     1       5.829   4.500  17.635  0.00  0.00    +0.000 A 
ATOM      4  O   UNL     1       6.836   4.442  16.934  0.00  0.00    +0.000 OA
ATOM      5  N   UNL     1       5.607   3.527  18.580  0.00  0.00    +0.000 N 
ATOM      6  C   UNL     1       4.523   3.528  19.381  0.00  0.00    +0.000 A 
ATOM      7  C   UNL     1       3.580   4.473  19.323  0.00  0.00    +0.000 A 
ATOM      8  C   UNL     1       3.712   5.568  18.348  0.00  0.00    +0.000 A 
ATOM      9  O   UNL     1       2.871   6.459  18.259  0.00  0.00    +0.000 OA
ATOM     10  N   UNL     1       2.607   4.206  20.257  0.00  0.00    +0.000 N 
ATOM     11  C   UNL     1       1.414   4.948  20.544  0.00  0.00    +0.000 C 
ATOM     12  C   UNL     1       2.966   3.020  20.943  0.00  0.00    +0.000 A 
ATOM     13  O   UNL     1       2.354   2.467  21.841  0.00  0.00    +0.000 OA
ATOM     14  N   UNL     1       4.193   2.621  20.354  0.00  0.00    +0.000 N 
ATOM     15  C   UNL     1       4.933   1.456  20.746  0.00  0.00    +0.000 C 
ATOM     16  H   UNL     1       6.303   2.798  18.646  0.00  0.00    +0.000 HD
ENDROOT
TORSDOF 0
ENDMDL
MODEL 4
REMARK VINA RESULT:      -6.3      1.501      1.501
REMARK  Name = 
REMARK  3 active torsions:
REMARK  status: ('A' for Active; 'I' for Inactive)
REMARK    1  A    between atoms: C_1  and  N_2
REMARK    2  A    between atoms: N_10  and  C_11
REMARK    3  A    between atoms: N_14  and  C_15
REMARK                            x       y       z     vdW  Elec       q    Type
REMARK                         _______ _______ _______ _____ _____    ______ ____
ROOT
ATOM      1  C   UNL     1       1.222   2.648  18.612  0.00  0.00    +0.000 C 
ATOM      2  N   UNL     1       2.514   3.227  18.295  0.00  0.00    +0.000 N 
ATOM      3  C   UNL     1       3.626   2.388  18.221  0.00  0.00    +0.000 A 
ATOM      4  O   UNL     1       3.600   1.175  18.410  0.00  0.00    +0.000 OA
ATOM      5  N   UNL     1       4.819   2.998  17.915  0.00  0.00    +0.000 N 
ATOM      6  C   UNL     1       4.920   4.325  17.698  0.00  0.00    +0.000 A 
ATOM      7  C   UNL     1       3.873   5.151  17.762  0.00  0.00    +0.000 A 
ATOM      8  C   UNL     1       2.542   4.610  18.083  0.00  0.00    +0.000 A 
ATOM      9  O   UNL     1       1.550   5.331  18.153  0.00  0.00    +0.000 OA
ATOM     10  N   UNL     1       4.286   6.435  17.496  0.00  0.00    +0.000 N 
ATOM     11  C   UNL     1       3.506   7.637  17.457  0.00  0.00    +0.000 C 
ATOM     12  C   UNL     1       5.681   6.408  17.248  0.00  0.00    +0.000 A 
ATOM     13  O   UNL     1       6.405   7.350  16.975  0.00  0.00    +0.000 OA
ATOM     14  N   UNL     1       6.044   5.044  17.386  0.00  0.00    +0.000 N 
ATOM     15  C   UNL     1       7.379   4.545  17.217  0.00  0.00    +0.000 C 
ATOM     16  H   UNL     1       5.629   2.397  17.861  0.00  0.00    +0.000 HD
ENDROOT
TORSDOF 0
ENDMDL
MODEL 5
REMARK VINA RESULT:      -6.2      2.217      2.785
REMARK  Name = 
REMARK  3 active torsions:
REMARK  status: ('A' for Active; 'I' for Inactive)
REMARK    1  A    between atoms: C_1  and  N_2
REMARK    2  A    between atoms: N_10  and  C_11
REMARK    3  A    between atoms: N_14  and  C_15
REMARK                            x       y       z     vdW  Elec       q    Type
REMARK                         _______ _______ _______ _____ _____    ______ ____
ROOT
ATOM      1  C   UNL     1       2.751   4.137  19.951  0.00  0.00    +0.000 C 
ATOM      2  N   UNL     1       3.492   4.205  18.707  0.00  0.00    +0.000 N 
ATOM      3  C   UNL     1       2.980   3.556  17.583  0.00  0.00    +0.000 A 
ATOM      4  O   UNL     1       1.932   2.915  17.564  0.00  0.00    +0.000 OA
ATOM      5  N   UNL     1       3.728   3.661  16.435  0.00  0.00    +0.000 N 
ATOM      6  C   UNL     1       4.888   4.347  16.386  0.00  0.00    +0.000 A 
ATOM      7  C   UNL     1       5.402   4.977  17.445  0.00  0.00    +0.000 A 
ATOM      8  C   UNL     1       4.687   4.934  18.731  0.00  0.00    +0.000 A 
ATOM      9  O   UNL     1       5.121   5.499  19.732  0.00  0.00    +0.000 OA
ATOM     10  N   UNL     1       6.583   5.583  17.088  0.00  0.00    +0.000 N 
ATOM     11  C   UNL     1       7.472   6.363  17.899  0.00  0.00    +0.000 C 
ATOM     12  C   UNL     1       6.822   5.314  15.717  0.00  0.00    +0.000 A 
ATOM     13  O   UNL     1       7.767   5.682  15.041  0.00  0.00    +0.000 OA
ATOM     14  N   UNL     1       5.716   4.524  15.309  0.00  0.00    +0.000 N 
ATOM     15  C   UNL     1       5.537   4.018  13.978  0.00  0.00    +0.000 C 
ATOM     16  H   UNL     1       3.364   3.193  15.617  0.00  0.00    +0.000 HD
ENDROOT
TORSDOF 0
ENDMDL
MODEL 6
REMARK VINA RESULT:      -6.2      2.040      2.284
REMARK  Name = 
REMARK  3 active torsions:
REMARK  status: ('A' for Active; 'I' for Inactive)
REMARK    1  A    between atoms: C_1  and  N_2
REMARK    2  A    between atoms: N_10  and  C_11
REMARK    3  A    between atoms: N_14  and  C_15
REMARK                            x       y       z     vdW  Elec       q    Type
REMARK                         _______ _______ _______ _____ _____    ______ ____
ROOT
ATOM      1  C   UNL     1       2.513   2.083  18.283  0.00  0.00    +0.000 C 
ATOM      2  N   UNL     1       3.686   2.933  18.358  0.00  0.00    +0.000 N 
ATOM      3  C   UNL     1       4.451   2.922  19.524  0.00  0.00    +0.000 A 
ATOM      4  O   UNL     1       4.204   2.239  20.515  0.00  0.00    +0.000 OA
ATOM      5  N   UNL     1       5.550   3.747  19.530  0.00  0.00    +0.000 N 
ATOM      6  C   UNL     1       5.878   4.525  18.479  0.00  0.00    +0.000 A 
ATOM      7  C   UNL     1       5.165   4.557  17.351  0.00  0.00    +0.000 A 
ATOM      8  C   UNL     1       3.964   3.713  17.229  0.00  0.00    +0.000 A 
ATOM      9  O   UNL     1       3.277   3.708  16.210  0.00  0.00    +0.000 OA
ATOM     10  N   UNL     1       5.743   5.438  16.468  0.00  0.00    +0.000 N 
ATOM     11  C   UNL     1       5.319   5.788  15.144  0.00  0.00    +0.000 C 
ATOM     12  C   UNL     1       6.892   5.991  17.085  0.00  0.00    +0.000 A 
ATOM     13  O   UNL     1       7.666   6.809  16.617  0.00  0.00    +0.000 OA
ATOM     14  N   UNL     1       6.941   5.382  18.365  0.00  0.00    +0.000 N 
ATOM     15  C   UNL     1       7.956   5.648  19.344  0.00  0.00    +0.000 C 
ATOM     16  H   UNL     1       6.108   3.745  20.372  0.00  0.00    +0.000 HD
ENDROOT
TORSDOF 0
ENDMDL
MODEL 7
REMARK VINA RESULT:      -6.1      1.613      4.131
REMARK  Name = 
REMARK  3 active torsions:
REMARK  status: ('A' for Active; 'I' for Inactive)
REMARK    1  A    between atoms: C_1  and  N_2
REMARK    2  A    between atoms: N_10  and  C_11
REMARK    3  A    between atoms: N_14  and  C_15
REMARK                            x       y       z     vdW  Elec       q    Type
REMARK                         _______ _______ _______ _____ _____    ______ ____
ROOT
ATOM      1  C   UNL     1       7.243   6.816  16.662  0.00  0.00    +0.000 C 
ATOM      2  N   UNL     1       6.479   5.881  17.465  0.00  0.00    +0.000 N 
ATOM      3  C   UNL     1       7.030   4.632  17.748  0.00  0.00    +0.000 A 
ATOM      4  O   UNL     1       8.131   4.250  17.361  0.00  0.00    +0.000 OA
ATOM      5  N   UNL     1       6.257   3.794  18.517  0.00  0.00    +0.000 N 
ATOM      6  C   UNL     1       5.039   4.147  18.974  0.00  0.00    +0.000 A 
ATOM      7  C   UNL     1       4.486   5.336  18.718  0.00  0.00    +0.000 A 
ATOM      8  C   UNL     1       5.222   6.317  17.904  0.00  0.00    +0.000 A 
ATOM      9  O   UNL     1       4.756   7.423  17.644  0.00  0.00    +0.000 OA
ATOM     10  N   UNL     1       3.249   5.403  19.314  0.00  0.00    +0.000 N 
ATOM     11  C   UNL     1       2.307   6.483  19.303  0.00  0.00    +0.000 C 
ATOM     12  C   UNL     1       3.015   4.178  19.985  0.00  0.00    +0.000 A 
ATOM     13  O   UNL     1       2.029   3.859  20.629  0.00  0.00    +0.000 OA
ATOM     14  N   UNL     1       4.181   3.406  19.743  0.00  0.00    +0.000 N 
ATOM     15  C   UNL     1       4.384   2.077  20.243  0.00  0.00    +0.000 C 
ATOM     16  H   UNL     1       6.649   2.886  18.725  0.00  0.00    +0.000 HD
ENDROOT
TORSDOF 0
ENDMDL
MODEL 8
REMARK VINA RESULT:      -6.0      2.170      2.813
REMARK  Name = 
REMARK  3 active torsions:
REMARK  status: ('A' for Active; 'I' for Inactive)
REMARK    1  A    between atoms: C_1  and  N_2
REMARK    2  A    between atoms: N_10  and  C_11
REMARK    3  A    between atoms: N_14  and  C_15
REMARK                            x       y       z     vdW  Elec       q    Type
REMARK                         _______ _______ _______ _____ _____    ______ ____
ROOT
ATOM      1  C   UNL     1       1.144   3.574  18.844  0.00  0.00    +0.000 C 
ATOM      2  N   UNL     1       2.537   3.975  18.801  0.00  0.00    +0.000 N 
ATOM      3  C   UNL     1       3.094   4.588  19.923  0.00  0.00    +0.000 A 
ATOM      4  O   UNL     1       2.487   4.823  20.965  0.00  0.00    +0.000 OA
ATOM      5  N   UNL     1       4.418   4.941  19.819  0.00  0.00    +0.000 N 
ATOM      6  C   UNL     1       5.144   4.714  18.706  0.00  0.00    +0.000 A 
ATOM      7  C   UNL     1       4.637   4.130  17.617  0.00  0.00    +0.000 A 
ATOM      8  C   UNL     1       3.227   3.708  17.612  0.00  0.00    +0.000 A 
ATOM      9  O   UNL     1       2.717   3.166  16.635  0.00  0.00    +0.000 OA
ATOM     10  N   UNL     1       5.612   4.036  16.652  0.00  0.00    +0.000 N 
ATOM     11  C   UNL     1       5.516   3.484  15.333  0.00  0.00    +0.000 C 
ATOM     12  C   UNL     1       6.804   4.597  17.172  0.00  0.00    +0.000 A 
ATOM     13  O   UNL     1       7.884   4.696  16.615  0.00  0.00    +0.000 OA
ATOM     14  N   UNL     1       6.462   5.017  18.484  0.00  0.00    +0.000 N 
ATOM     15  C   UNL     1       7.377   5.646  19.392  0.00  0.00    +0.000 C 
ATOM     16  H   UNL     1       4.829   5.387  20.628  0.00  0.00    +0.000 HD
ENDROOT
TORSDOF 0
ENDMDL
MODEL 9
REMARK VINA RESULT:      -6.0      1.864      3.996
REMARK  Name = 
REMARK  3 active torsions:
REMARK  status: ('A' for Active; 'I' for Inactive)
REMARK    1  A    between atoms: C_1  and  N_2
REMARK    2  A    between atoms: N_10  and  C_11
REMARK    3  A    between atoms: N_14  and  C_15
REMARK                            x       y       z     vdW  Elec       q    Type
REMARK                         _______ _______ _______ _____ _____    ______ ____
ROOT
ATOM      1  C   UNL     1       7.435   7.020  17.333  0.00  0.00    +0.000 C 
ATOM      2  N   UNL     1       6.485   5.983  17.687  0.00  0.00    +0.000 N 
ATOM      3  C   UNL     1       6.963   4.704  17.975  0.00  0.00    +0.000 A 
ATOM      4  O   UNL     1       8.147   4.379  17.950  0.00  0.00    +0.000 OA
ATOM      5  N   UNL     1       6.013   3.768  18.306  0.00  0.00    +0.000 N 
ATOM      6  C   UNL     1       4.696   4.056  18.352  0.00  0.00    +0.000 A 
ATOM      7  C   UNL     1       4.211   5.270  18.081  0.00  0.00    +0.000 A 
ATOM      8  C   UNL     1       5.136   6.355  17.714  0.00  0.00    +0.000 A 
ATOM      9  O   UNL     1       4.736   7.488  17.457  0.00  0.00    +0.000 OA
ATOM     10  N   UNL     1       2.842   5.255  18.210  0.00  0.00    +0.000 N 
ATOM     11  C   UNL     1       1.912   6.328  18.015  0.00  0.00    +0.000 C 
ATOM     12  C   UNL     1       2.448   3.948  18.587  0.00  0.00    +0.000 A 
ATOM     13  O   UNL     1       1.317   3.543  18.797  0.00  0.00    +0.000 OA
ATOM     14  N   UNL     1       3.661   3.216  18.667  0.00  0.00    +0.000 N 
ATOM     15  C   UNL     1       3.742   1.828  19.025  0.00  0.00    +0.000 C 
ATOM     16  H   UNL     1       6.351   2.839  18.515  0.00  0.00    +0.000 HD
ENDROOT
TORSDOF 0
ENDMDL
