MODEL 1
REMARK VINA RESULT:      -7.7      0.000      0.000
REMARK  Name = 
REMARK  12 active torsions:
REMARK  status: ('A' for Active; 'I' for Inactive)
REMARK    1  A    between atoms: C_1  and  C_2
REMARK    2  A    between atoms: C_7  and  C_8
REMARK    3  A    between atoms: C_8  and  S_9
REMARK    4  A    between atoms: S_9  and  C_10
REMARK    5  A    between atoms: C_10  and  C_11
REMARK    6  A    between atoms: C_11  and  N_12
REMARK    7  A    between atoms: C_11  and  C_25
REMARK    8  A    between atoms: N_12  and  C_13
REMARK    9  A    between atoms: C_16  and  C_17
REMARK   10  A    between atoms: C_17  and  O_19
REMARK   11  A    between atoms: C_21  and  N_22
REMARK   12  A    between atoms: C_25  and  O_27
REMARK                            x       y       z     vdW  Elec       q    Type
REMARK                         _______ _______ _______ _____ _____    ______ ____
ROOT
ATOM      1  C   UNK A   1       3.617   3.289  18.066  0.00  0.00    +0.000 C 
ENDROOT
BRANCH   1   2
ATOM      2  N   UNK A   1       4.972   3.913  17.957  0.00  0.00    +0.000 N 
ATOM      3  H   UNK A   1       5.609   3.578  18.693  0.00  0.00    +0.000 HD
BRANCH   2   4
ATOM      4  C   UNK A   0       5.642   4.231  16.770  0.00  0.00    +0.000 A 
ATOM      5  C   UNK A   0       5.034   3.997  15.525  0.00  0.00    +0.000 A 
ATOM      6  C   UNK A   0       5.673   4.255  14.313  0.00  0.00    +0.000 A 
ATOM      7  C   UNK A   0       6.950   4.804  14.311  0.00  0.00    +0.000 A 
ATOM      8  C   UNK A   0       7.532   5.202  15.515  0.00  0.00    +0.000 A 
ATOM      9  C   UNK A   0       6.878   4.934  16.737  0.00  0.00    +0.000 A 
BRANCH   9  10
ATOM     10  N   UNK A   0       7.511   5.465  17.961  0.00  0.00    +0.000 N 
ATOM     11  O   UNK A   0       7.766   4.679  18.887  0.00  0.00    +0.000 OA
ATOM     12  O   UNK A   0       7.749   6.681  18.008  0.00  0.00    +0.000 OA
ENDBRANCH   9  10
BRANCH   7  13
ATOM     13  C   UNK A   0       7.664   5.026  13.036  0.00  0.00    +0.000 C 
ATOM     14  O   UNK A   0       7.348   4.458  12.008  0.00  0.00    +0.000 OA
BRANCH  13  15
ATOM     15  O   UNK A   0       8.642   5.943  13.125  0.00  0.00    +0.000 OA
ATOM     16  H   UNK A   0       9.553   5.609  13.021  0.00  0.00    +0.000 HD
ENDBRANCH  13  15
ENDBRANCH   7  13
ENDBRANCH   2   4
ENDBRANCH   1   2
BRANCH   1  17
ATOM     17  C   UNK A   1       3.684   2.119  19.070  0.00  0.00    +0.000 C 
ATOM     18  O   UNK A   1       4.424   2.060  20.038  0.00  0.00    +0.000 OA
BRANCH  17  19
ATOM     19  O   UNK A   1       2.823   1.118  18.739  0.00  0.00    +0.000 OA
ATOM     20  H   UNK A   1       1.982   1.528  18.426  0.00  0.00    +0.000 HD
ENDBRANCH  17  19
ENDBRANCH   1  17
BRANCH   1  21
ATOM     21  C   UNK A   1       2.445   4.237  18.391  0.00  0.00    +0.000 C 
BRANCH  21  22
ATOM     22  S   UNK A   1       2.598   5.166  19.966  0.00  0.00    +0.000 S 
BRANCH  22  23
ATOM     23  C   UNK A   1       2.842   6.841  19.262  0.00  0.00    +0.000 C 
BRANCH  23  30
ATOM     24  C   UNK A   1       1.917   9.281  17.670  0.00  0.00    +0.000 C 
ATOM     25  C   UNK A   1       1.463   9.009  19.079  0.00  0.00    +0.000 A 
ATOM     26  C   UNK A   1       0.534   9.901  19.650  0.00  0.00    +0.000 A 
ATOM     27  C   UNK A   1       0.013   9.675  20.927  0.00  0.00    +0.000 A 
ATOM     28  C   UNK A   1       0.403   8.554  21.640  0.00  0.00    +0.000 A 
ATOM     29  C   UNK A   1       1.324   7.661  21.089  0.00  0.00    +0.000 A 
ATOM     30  C   UNK A   1       1.867   7.867  19.806  0.00  0.00    +0.000 A 
ENDBRANCH  23  30
ENDBRANCH  22  23
ENDBRANCH  21  22
ENDBRANCH   1  21
TORSDOF 11
ENDMDL
MODEL 2
REMARK VINA RESULT:      -7.7      3.272      4.849
REMARK  Name = 
REMARK  12 active torsions:
REMARK  status: ('A' for Active; 'I' for Inactive)
REMARK    1  A    between atoms: C_1  and  C_2
REMARK    2  A    between atoms: C_7  and  C_8
REMARK    3  A    between atoms: C_8  and  S_9
REMARK    4  A    between atoms: S_9  and  C_10
REMARK    5  A    between atoms: C_10  and  C_11
REMARK    6  A    between atoms: C_11  and  N_12
REMARK    7  A    between atoms: C_11  and  C_25
REMARK    8  A    between atoms: N_12  and  C_13
REMARK    9  A    between atoms: C_16  and  C_17
REMARK   10  A    between atoms: C_17  and  O_19
REMARK   11  A    between atoms: C_21  and  N_22
REMARK   12  A    between atoms: C_25  and  O_27
REMARK                            x       y       z     vdW  Elec       q    Type
REMARK                         _______ _______ _______ _____ _____    ______ ____
ROOT
ATOM      1  C   UNK A   1       6.625   6.219  16.803  0.00  0.00    +0.000 C 
ENDROOT
BRANCH   1   2
ATOM      2  N   UNK A   1       7.382   5.723  15.612  0.00  0.00    +0.000 N 
ATOM      3  H   UNK A   1       8.353   5.479  15.850  0.00  0.00    +0.000 HD
BRANCH   2   4
ATOM      4  C   UNK A   0       6.868   4.936  14.576  0.00  0.00    +0.000 A 
ATOM      5  C   UNK A   0       5.714   4.159  14.777  0.00  0.00    +0.000 A 
ATOM      6  C   UNK A   0       5.186   3.324  13.793  0.00  0.00    +0.000 A 
ATOM      7  C   UNK A   0       5.784   3.272  12.540  0.00  0.00    +0.000 A 
ATOM      8  C   UNK A   0       6.834   4.141  12.240  0.00  0.00    +0.000 A 
ATOM      9  C   UNK A   0       7.364   4.980  13.244  0.00  0.00    +0.000 A 
BRANCH   9  10
ATOM     10  N   UNK A   0       8.411   5.936  12.828  0.00  0.00    +0.000 N 
ATOM     11  O   UNK A   0       9.404   6.082  13.557  0.00  0.00    +0.000 OA
ATOM     12  O   UNK A   0       8.239   6.557  11.768  0.00  0.00    +0.000 OA
ENDBRANCH   9  10
BRANCH   7  13
ATOM     13  C   UNK A   0       5.272   2.347  11.507  0.00  0.00    +0.000 C 
ATOM     14  O   UNK A   0       4.238   2.558  10.902  0.00  0.00    +0.000 OA
BRANCH  13  15
ATOM     15  O   UNK A   0       6.084   1.301  11.278  0.00  0.00    +0.000 OA
ATOM     16  H   UNK A   0       5.649   0.476  10.993  0.00  0.00    +0.000 HD
ENDBRANCH  13  15
ENDBRANCH   7  13
ENDBRANCH   2   4
ENDBRANCH   1   2
BRANCH   1  17
ATOM     17  C   UNK A   1       7.569   7.071  17.678  0.00  0.00    +0.000 C 
ATOM     18  O   UNK A   1       8.107   6.696  18.707  0.00  0.00    +0.000 OA
BRANCH  17  19
ATOM     19  O   UNK A   1       7.726   8.327  17.180  0.00  0.00    +0.000 OA
ATOM     20  H   UNK A   1       8.634   8.638  17.410  0.00  0.00    +0.000 HD
ENDBRANCH  17  19
ENDBRANCH   1  17
BRANCH   1  21
ATOM     21  C   UNK A   1       5.303   6.961  16.522  0.00  0.00    +0.000 C 
BRANCH  21  22
ATOM     22  S   UNK A   1       4.057   6.885  17.866  0.00  0.00    +0.000 S 
BRANCH  22  23
ATOM     23  C   UNK A   1       4.298   5.133  18.351  0.00  0.00    +0.000 C 
BRANCH  23  30
ATOM     24  C   UNK A   1       2.802   2.825  17.019  0.00  0.00    +0.000 C 
ATOM     25  C   UNK A   1       2.347   3.451  18.310  0.00  0.00    +0.000 A 
ATOM     26  C   UNK A   1       1.213   2.903  18.940  0.00  0.00    +0.000 A 
ATOM     27  C   UNK A   1       0.773   3.385  20.175  0.00  0.00    +0.000 A 
ATOM     28  C   UNK A   1       1.466   4.408  20.799  0.00  0.00    +0.000 A 
ATOM     29  C   UNK A   1       2.592   4.965  20.188  0.00  0.00    +0.000 A 
ATOM     30  C   UNK A   1       3.054   4.499  18.941  0.00  0.00    +0.000 A 
ENDBRANCH  23  30
ENDBRANCH  22  23
ENDBRANCH  21  22
ENDBRANCH   1  21
TORSDOF 11
ENDMDL
MODEL 3
REMARK VINA RESULT:      -7.7      2.798      4.505
REMARK  Name = 
REMARK  12 active torsions:
REMARK  status: ('A' for Active; 'I' for Inactive)
REMARK    1  A    between atoms: C_1  and  C_2
REMARK    2  A    between atoms: C_7  and  C_8
REMARK    3  A    between atoms: C_8  and  S_9
REMARK    4  A    between atoms: S_9  and  C_10
REMARK    5  A    between atoms: C_10  and  C_11
REMARK    6  A    between atoms: C_11  and  N_12
REMARK    7  A    between atoms: C_11  and  C_25
REMARK    8  A    between atoms: N_12  and  C_13
REMARK    9  A    between atoms: C_16  and  C_17
REMARK   10  A    between atoms: C_17  and  O_19
REMARK   11  A    between atoms: C_21  and  N_22
REMARK   12  A    between atoms: C_25  and  O_27
REMARK                            x       y       z     vdW  Elec       q    Type
REMARK                         _______ _______ _______ _____ _____    ______ ____
ROOT
ATOM      1  C   UNK A   1       6.645   5.773  16.886  0.00  0.00    +0.000 C 
ENDROOT
BRANCH   1   2
ATOM      2  N   UNK A   1       7.268   5.639  15.533  0.00  0.00    +0.000 N 
ATOM      3  H   UNK A   1       8.296   5.662  15.581  0.00  0.00    +0.000 HD
BRANCH   2   4
ATOM      4  C   UNK A   0       6.795   4.848  14.481  0.00  0.00    +0.000 A 
ATOM      5  C   UNK A   0       5.655   4.044  14.651  0.00  0.00    +0.000 A 
ATOM      6  C   UNK A   0       5.167   3.205  13.650  0.00  0.00    +0.000 A 
ATOM      7  C   UNK A   0       5.794   3.174  12.410  0.00  0.00    +0.000 A 
ATOM      8  C   UNK A   0       6.831   4.068  12.140  0.00  0.00    +0.000 A 
ATOM      9  C   UNK A   0       7.320   4.911  13.160  0.00  0.00    +0.000 A 
BRANCH   9  10
ATOM     10  N   UNK A   0       8.354   5.893  12.774  0.00  0.00    +0.000 N 
ATOM     11  O   UNK A   0       8.214   6.517  11.711  0.00  0.00    +0.000 OA
ATOM     12  O   UNK A   0       9.324   6.039  13.533  0.00  0.00    +0.000 OA
ENDBRANCH   9  10
BRANCH   7  13
ATOM     13  C   UNK A   0       5.327   2.245  11.361  0.00  0.00    +0.000 C 
ATOM     14  O   UNK A   0       4.288   2.422  10.753  0.00  0.00    +0.000 OA
BRANCH  13  15
ATOM     15  O   UNK A   0       6.183   1.238  11.120  0.00  0.00    +0.000 OA
ATOM     16  H   UNK A   0       5.910   0.357  11.440  0.00  0.00    +0.000 HD
ENDBRANCH  13  15
ENDBRANCH   7  13
ENDBRANCH   2   4
ENDBRANCH   1   2
BRANCH   1  17
ATOM     17  C   UNK A   1       7.584   5.141  17.935  0.00  0.00    +0.000 C 
ATOM     18  O   UNK A   1       7.726   5.533  19.082  0.00  0.00    +0.000 OA
BRANCH  17  19
ATOM     19  O   UNK A   1       8.274   4.085  17.427  0.00  0.00    +0.000 OA
ATOM     20  H   UNK A   1       9.028   4.437  16.896  0.00  0.00    +0.000 HD
ENDBRANCH  17  19
ENDBRANCH   1  17
BRANCH   1  21
ATOM     21  C   UNK A   1       6.210   7.191  17.309  0.00  0.00    +0.000 C 
BRANCH  21  22
ATOM     22  S   UNK A   1       4.440   7.369  17.756  0.00  0.00    +0.000 S 
BRANCH  22  23
ATOM     23  C   UNK A   1       3.914   5.640  17.449  0.00  0.00    +0.000 C 
BRANCH  23  30
ATOM     24  C   UNK A   1       2.568   2.903  17.250  0.00  0.00    +0.000 C 
ATOM     25  C   UNK A   1       2.281   3.870  18.366  0.00  0.00    +0.000 A 
ATOM     26  C   UNK A   1       1.392   3.458  19.378  0.00  0.00    +0.000 A 
ATOM     27  C   UNK A   1       1.131   4.273  20.482  0.00  0.00    +0.000 A 
ATOM     28  C   UNK A   1       1.762   5.500  20.594  0.00  0.00    +0.000 A 
ATOM     29  C   UNK A   1       2.646   5.925  19.601  0.00  0.00    +0.000 A 
ATOM     30  C   UNK A   1       2.924   5.124  18.475  0.00  0.00    +0.000 A 
ENDBRANCH  23  30
ENDBRANCH  22  23
ENDBRANCH  21  22
ENDBRANCH   1  21
TORSDOF 11
ENDMDL
MODEL 4
REMARK VINA RESULT:      -7.6      0.989      1.329
REMARK  Name = 
REMARK  12 active torsions:
REMARK  status: ('A' for Active; 'I' for Inactive)
REMARK    1  A    between atoms: C_1  and  C_2
REMARK    2  A    between atoms: C_7  and  C_8
REMARK    3  A    between atoms: C_8  and  S_9
REMARK    4  A    between atoms: S_9  and  C_10
REMARK    5  A    between atoms: C_10  and  C_11
REMARK    6  A    between atoms: C_11  and  N_12
REMARK    7  A    between atoms: C_11  and  C_25
REMARK    8  A    between atoms: N_12  and  C_13
REMARK    9  A    between atoms: C_16  and  C_17
REMARK   10  A    between atoms: C_17  and  O_19
REMARK   11  A    between atoms: C_21  and  N_22
REMARK   12  A    between atoms: C_25  and  O_27
REMARK                            x       y       z     vdW  Elec       q    Type
REMARK                         _______ _______ _______ _____ _____    ______ ____
ROOT
ATOM      1  C   UNK A   1       3.435   4.030  18.568  0.00  0.00    +0.000 C 
ENDROOT
BRANCH   1   2
ATOM      2  N   UNK A   1       4.809   3.604  18.160  0.00  0.00    +0.000 N 
ATOM      3  H   UNK A   1       4.987   2.616  18.385  0.00  0.00    +0.000 HD
BRANCH   2   4
ATOM      4  C   UNK A   0       5.501   4.029  17.020  0.00  0.00    +0.000 A 
ATOM      5  C   UNK A   0       5.005   3.740  15.738  0.00  0.00    +0.000 A 
ATOM      6  C   UNK A   0       5.676   4.101  14.570  0.00  0.00    +0.000 A 
ATOM      7  C   UNK A   0       6.867   4.812  14.652  0.00  0.00    +0.000 A 
ATOM      8  C   UNK A   0       7.319   5.260  15.894  0.00  0.00    +0.000 A 
ATOM      9  C   UNK A   0       6.634   4.887  17.070  0.00  0.00    +0.000 A 
BRANCH   9  10
ATOM     10  N   UNK A   0       7.118   5.474  18.337  0.00  0.00    +0.000 N 
ATOM     11  O   UNK A   0       6.891   4.869  19.396  0.00  0.00    +0.000 OA
ATOM     12  O   UNK A   0       7.722   6.555  18.279  0.00  0.00    +0.000 OA
ENDBRANCH   9  10
BRANCH   7  13
ATOM     13  C   UNK A   0       7.621   5.148  13.426  0.00  0.00    +0.000 C 
ATOM     14  O   UNK A   0       8.568   5.912  13.436  0.00  0.00    +0.000 OA
BRANCH  13  15
ATOM     15  O   UNK A   0       7.190   4.490  12.337  0.00  0.00    +0.000 OA
ATOM     16  H   UNK A   0       6.696   3.666  12.502  0.00  0.00    +0.000 HD
ENDBRANCH  13  15
ENDBRANCH   7  13
ENDBRANCH   2   4
ENDBRANCH   1   2
BRANCH   1  17
ATOM     17  C   UNK A   1       2.399   3.235  17.746  0.00  0.00    +0.000 C 
ATOM     18  O   UNK A   1       2.447   2.037  17.519  0.00  0.00    +0.000 OA
BRANCH  17  19
ATOM     19  O   UNK A   1       1.409   4.036  17.267  0.00  0.00    +0.000 OA
ATOM     20  H   UNK A   1       1.770   4.950  17.178  0.00  0.00    +0.000 HD
ENDBRANCH  17  19
ENDBRANCH   1  17
BRANCH   1  21
ATOM     21  C   UNK A   1       3.114   3.974  20.076  0.00  0.00    +0.000 C 
BRANCH  21  22
ATOM     22  S   UNK A   1       1.882   5.199  20.663  0.00  0.00    +0.000 S 
BRANCH  22  23
ATOM     23  C   UNK A   1       2.465   6.644  19.697  0.00  0.00    +0.000 C 
BRANCH  23  30
ATOM     24  C   UNK A   1       2.087   8.910  17.682  0.00  0.00    +0.000 C 
ATOM     25  C   UNK A   1       1.560   8.978  19.090  0.00  0.00    +0.000 A 
ATOM     26  C   UNK A   1       0.820  10.120  19.457  0.00  0.00    +0.000 A 
ATOM     27  C   UNK A   1       0.238  10.223  20.723  0.00  0.00    +0.000 A 
ATOM     28  C   UNK A   1       0.378   9.185  21.629  0.00  0.00    +0.000 A 
ATOM     29  C   UNK A   1       1.109   8.047  21.282  0.00  0.00    +0.000 A 
ATOM     30  C   UNK A   1       1.708   7.920  20.013  0.00  0.00    +0.000 A 
ENDBRANCH  23  30
ENDBRANCH  22  23
ENDBRANCH  21  22
ENDBRANCH   1  21
TORSDOF 11
ENDMDL
MODEL 5
REMARK VINA RESULT:      -7.5      0.888      1.854
REMARK  Name = 
REMARK  12 active torsions:
REMARK  status: ('A' for Active; 'I' for Inactive)
REMARK    1  A    between atoms: C_1  and  C_2
REMARK    2  A    between atoms: C_7  and  C_8
REMARK    3  A    between atoms: C_8  and  S_9
REMARK    4  A    between atoms: S_9  and  C_10
REMARK    5  A    between atoms: C_10  and  C_11
REMARK    6  A    between atoms: C_11  and  N_12
REMARK    7  A    between atoms: C_11  and  C_25
REMARK    8  A    between atoms: N_12  and  C_13
REMARK    9  A    between atoms: C_16  and  C_17
REMARK   10  A    between atoms: C_17  and  O_19
REMARK   11  A    between atoms: C_21  and  N_22
REMARK   12  A    between atoms: C_25  and  O_27
REMARK                            x       y       z     vdW  Elec       q    Type
REMARK                         _______ _______ _______ _____ _____    ______ ____
ROOT
ATOM      1  C   UNK A   1       3.052   3.325  17.628  0.00  0.00    +0.000 C 
ENDROOT
BRANCH   1   2
ATOM      2  N   UNK A   1       4.481   3.764  17.678  0.00  0.00    +0.000 N 
ATOM      3  H   UNK A   1       5.011   3.263  18.404  0.00  0.00    +0.000 HD
BRANCH   2   4
ATOM      4  C   UNK A   0       5.275   4.119  16.582  0.00  0.00    +0.000 A 
ATOM      5  C   UNK A   0       4.693   4.331  15.320  0.00  0.00    +0.000 A 
ATOM      6  C   UNK A   0       5.442   4.643  14.187  0.00  0.00    +0.000 A 
ATOM      7  C   UNK A   0       6.820   4.797  14.292  0.00  0.00    +0.000 A 
ATOM      8  C   UNK A   0       7.424   4.754  15.548  0.00  0.00    +0.000 A 
ATOM      9  C   UNK A   0       6.658   4.435  16.690  0.00  0.00    +0.000 A 
BRANCH   9  10
ATOM     10  N   UNK A   0       7.348   4.499  17.995  0.00  0.00    +0.000 N 
ATOM     11  O   UNK A   0       6.720   4.924  18.977  0.00  0.00    +0.000 OA
ATOM     12  O   UNK A   0       8.531   4.132  18.042  0.00  0.00    +0.000 OA
ENDBRANCH   9  10
BRANCH   7  13
ATOM     13  C   UNK A   0       7.634   5.067  13.089  0.00  0.00    +0.000 C 
ATOM     14  O   UNK A   0       8.537   5.883  13.086  0.00  0.00    +0.000 OA
BRANCH  13  15
ATOM     15  O   UNK A   0       7.311   4.292  12.040  0.00  0.00    +0.000 OA
ATOM     16  H   UNK A   0       8.052   4.013  11.470  0.00  0.00    +0.000 HD
ENDBRANCH  13  15
ENDBRANCH   7  13
ENDBRANCH   2   4
ENDBRANCH   1   2
BRANCH   1  17
ATOM     17  C   UNK A   1       2.889   2.050  18.482  0.00  0.00    +0.000 C 
ATOM     18  O   UNK A   1       1.843   1.659  18.974  0.00  0.00    +0.000 OA
BRANCH  17  19
ATOM     19  O   UNK A   1       4.073   1.401  18.655  0.00  0.00    +0.000 OA
ATOM     20  H   UNK A   1       4.485   1.273  17.767  0.00  0.00    +0.000 HD
ENDBRANCH  17  19
ENDBRANCH   1  17
BRANCH   1  21
ATOM     21  C   UNK A   1       1.992   4.383  17.996  0.00  0.00    +0.000 C 
BRANCH  21  22
ATOM     22  S   UNK A   1       1.869   4.785  19.781  0.00  0.00    +0.000 S 
BRANCH  22  23
ATOM     23  C   UNK A   1       2.984   6.242  19.801  0.00  0.00    +0.000 C 
BRANCH  23  30
ATOM     24  C   UNK A   1       1.186   7.933  21.604  0.00  0.00    +0.000 C 
ATOM     25  C   UNK A   1       1.455   8.283  20.166  0.00  0.00    +0.000 A 
ATOM     26  C   UNK A   1       0.887   9.471  19.664  0.00  0.00    +0.000 A 
ATOM     27  C   UNK A   1       1.149   9.898  18.360  0.00  0.00    +0.000 A 
ATOM     28  C   UNK A   1       1.989   9.153  17.549  0.00  0.00    +0.000 A 
ATOM     29  C   UNK A   1       2.560   7.973  18.029  0.00  0.00    +0.000 A 
ATOM     30  C   UNK A   1       2.309   7.518  19.339  0.00  0.00    +0.000 A 
ENDBRANCH  23  30
ENDBRANCH  22  23
ENDBRANCH  21  22
ENDBRANCH   1  21
TORSDOF 11
ENDMDL
MODEL 6
REMARK VINA RESULT:      -7.5      1.070      1.408
REMARK  Name = 
REMARK  12 active torsions:
REMARK  status: ('A' for Active; 'I' for Inactive)
REMARK    1  A    between atoms: C_1  and  C_2
REMARK    2  A    between atoms: C_7  and  C_8
REMARK    3  A    between atoms: C_8  and  S_9
REMARK    4  A    between atoms: S_9  and  C_10
REMARK    5  A    between atoms: C_10  and  C_11
REMARK    6  A    between atoms: C_11  and  N_12
REMARK    7  A    between atoms: C_11  and  C_25
REMARK    8  A    between atoms: N_12  and  C_13
REMARK    9  A    between atoms: C_16  and  C_17
REMARK   10  A    between atoms: C_17  and  O_19
REMARK   11  A    between atoms: C_21  and  N_22
REMARK   12  A    between atoms: C_25  and  O_27
REMARK                            x       y       z     vdW  Elec       q    Type
REMARK                         _______ _______ _______ _____ _____    ______ ____
ROOT
ATOM      1  C   UNK A   1       3.153   3.552  19.128  0.00  0.00    +0.000 C 
ENDROOT
BRANCH   1   2
ATOM      2  N   UNK A   1       4.553   4.052  18.967  0.00  0.00    +0.000 N 
ATOM      3  H   UNK A   1       5.183   3.667  19.685  0.00  0.00    +0.000 HD
BRANCH   2   4
ATOM      4  C   UNK A   0       5.207   4.302  17.756  0.00  0.00    +0.000 A 
ATOM      5  C   UNK A   0       4.587   3.988  16.535  0.00  0.00    +0.000 A 
ATOM      6  C   UNK A   0       5.210   4.175  15.302  0.00  0.00    +0.000 A 
ATOM      7  C   UNK A   0       6.483   4.732  15.250  0.00  0.00    +0.000 A 
ATOM      8  C   UNK A   0       7.075   5.205  16.421  0.00  0.00    +0.000 A 
ATOM      9  C   UNK A   0       6.438   5.009  17.665  0.00  0.00    +0.000 A 
BRANCH   9  10
ATOM     10  N   UNK A   0       7.081   5.618  18.847  0.00  0.00    +0.000 N 
ATOM     11  O   UNK A   0       7.798   6.618  18.684  0.00  0.00    +0.000 OA
ATOM     12  O   UNK A   0       6.880   5.091  19.951  0.00  0.00    +0.000 OA
ENDBRANCH   9  10
BRANCH   7  13
ATOM     13  C   UNK A   0       7.181   4.879  13.956  0.00  0.00    +0.000 C 
ATOM     14  O   UNK A   0       8.132   5.625  13.814  0.00  0.00    +0.000 OA
BRANCH  13  15
ATOM     15  O   UNK A   0       6.697   4.077  12.994  0.00  0.00    +0.000 OA
ATOM     16  H   UNK A   0       6.277   4.524  12.234  0.00  0.00    +0.000 HD
ENDBRANCH  13  15
ENDBRANCH   7  13
ENDBRANCH   2   4
ENDBRANCH   1   2
BRANCH   1  17
ATOM     17  C   UNK A   1       3.077   2.674  20.395  0.00  0.00    +0.000 C 
ATOM     18  O   UNK A   1       4.024   2.374  21.104  0.00  0.00    +0.000 OA
BRANCH  17  19
ATOM     19  O   UNK A   1       1.811   2.236  20.634  0.00  0.00    +0.000 OA
ATOM     20  H   UNK A   1       1.593   1.546  19.963  0.00  0.00    +0.000 HD
ENDBRANCH  17  19
ENDBRANCH   1  17
BRANCH   1  21
ATOM     21  C   UNK A   1       2.035   4.615  19.118  0.00  0.00    +0.000 C 
BRANCH  21  22
ATOM     22  S   UNK A   1       1.977   5.710  20.588  0.00  0.00    +0.000 S 
BRANCH  22  23
ATOM     23  C   UNK A   1       2.235   7.312  19.734  0.00  0.00    +0.000 C 
BRANCH  23  30
ATOM     24  C   UNK A   1       1.127   9.603  18.042  0.00  0.00    +0.000 C 
ATOM     25  C   UNK A   1       0.909   9.511  19.528  0.00  0.00    +0.000 A 
ATOM     26  C   UNK A   1       0.115  10.503  20.136  0.00  0.00    +0.000 A 
ATOM     27  C   UNK A   1      -0.191  10.446  21.498  0.00  0.00    +0.000 A 
ATOM     28  C   UNK A   1       0.281   9.392  22.263  0.00  0.00    +0.000 A 
ATOM     29  C   UNK A   1       1.070   8.400  21.678  0.00  0.00    +0.000 A 
ATOM     30  C   UNK A   1       1.395   8.438  20.307  0.00  0.00    +0.000 A 
ENDBRANCH  23  30
ENDBRANCH  22  23
ENDBRANCH  21  22
ENDBRANCH   1  21
TORSDOF 11
ENDMDL
MODEL 7
REMARK VINA RESULT:      -7.5      1.829      3.102
REMARK  Name = 
REMARK  12 active torsions:
REMARK  status: ('A' for Active; 'I' for Inactive)
REMARK    1  A    between atoms: C_1  and  C_2
REMARK    2  A    between atoms: C_7  and  C_8
REMARK    3  A    between atoms: C_8  and  S_9
REMARK    4  A    between atoms: S_9  and  C_10
REMARK    5  A    between atoms: C_10  and  C_11
REMARK    6  A    between atoms: C_11  and  N_12
REMARK    7  A    between atoms: C_11  and  C_25
REMARK    8  A    between atoms: N_12  and  C_13
REMARK    9  A    between atoms: C_16  and  C_17
REMARK   10  A    between atoms: C_17  and  O_19
REMARK   11  A    between atoms: C_21  and  N_22
REMARK   12  A    between atoms: C_25  and  O_27
REMARK                            x       y       z     vdW  Elec       q    Type
REMARK                         _______ _______ _______ _____ _____    ______ ____
ROOT
ATOM      1  C   UNK A   1       3.193   2.951  17.641  0.00  0.00    +0.000 C 
ENDROOT
BRANCH   1   2
ATOM      2  N   UNK A   1       4.648   3.029  17.305  0.00  0.00    +0.000 N 
ATOM      3  H   UNK A   1       4.878   2.475  16.468  0.00  0.00    +0.000 HD
BRANCH   2   4
ATOM      4  C   UNK A   0       5.472   4.150  17.451  0.00  0.00    +0.000 A 
ATOM      5  C   UNK A   0       5.929   4.536  18.722  0.00  0.00    +0.000 A 
ATOM      6  C   UNK A   0       6.715   5.669  18.929  0.00  0.00    +0.000 A 
ATOM      7  C   UNK A   0       7.109   6.442  17.843  0.00  0.00    +0.000 A 
ATOM      8  C   UNK A   0       6.814   6.013  16.549  0.00  0.00    +0.000 A 
ATOM      9  C   UNK A   0       6.016   4.867  16.349  0.00  0.00    +0.000 A 
BRANCH   9  10
ATOM     10  N   UNK A   0       5.824   4.423  14.953  0.00  0.00    +0.000 N 
ATOM     11  O   UNK A   0       6.195   3.282  14.636  0.00  0.00    +0.000 OA
ATOM     12  O   UNK A   0       5.306   5.223  14.159  0.00  0.00    +0.000 OA
ENDBRANCH   9  10
BRANCH   7  13
ATOM     13  C   UNK A   0       7.890   7.679  18.052  0.00  0.00    +0.000 C 
ATOM     14  O   UNK A   0       7.750   8.662  17.349  0.00  0.00    +0.000 OA
BRANCH  13  15
ATOM     15  O   UNK A   0       8.713   7.618  19.113  0.00  0.00    +0.000 OA
ATOM     16  H   UNK A   0       9.141   8.456  19.371  0.00  0.00    +0.000 HD
ENDBRANCH  13  15
ENDBRANCH   7  13
ENDBRANCH   2   4
ENDBRANCH   1   2
BRANCH   1  17
ATOM     17  C   UNK A   1       3.015   2.075  18.899  0.00  0.00    +0.000 C 
ATOM     18  O   UNK A   1       3.804   2.003  19.826  0.00  0.00    +0.000 OA
BRANCH  17  19
ATOM     19  O   UNK A   1       1.863   1.351  18.854  0.00  0.00    +0.000 OA
ATOM     20  H   UNK A   1       1.104   1.980  18.895  0.00  0.00    +0.000 HD
ENDBRANCH  17  19
ENDBRANCH   1  17
BRANCH   1  21
ATOM     21  C   UNK A   1       2.445   4.292  17.784  0.00  0.00    +0.000 C 
BRANCH  21  22
ATOM     22  S   UNK A   1       1.825   4.671  19.469  0.00  0.00    +0.000 S 
BRANCH  22  23
ATOM     23  C   UNK A   1       2.934   6.081  19.848  0.00  0.00    +0.000 C 
BRANCH  23  30
ATOM     24  C   UNK A   1       3.493   7.497  17.198  0.00  0.00    +0.000 C 
ATOM     25  C   UNK A   1       2.620   8.092  18.269  0.00  0.00    +0.000 A 
ATOM     26  C   UNK A   1       2.004   9.330  17.999  0.00  0.00    +0.000 A 
ATOM     27  C   UNK A   1       1.125   9.911  18.916  0.00  0.00    +0.000 A 
ATOM     28  C   UNK A   1       0.842   9.259  20.104  0.00  0.00    +0.000 A 
ATOM     29  C   UNK A   1       1.444   8.032  20.389  0.00  0.00    +0.000 A 
ATOM     30  C   UNK A   1       2.338   7.426  19.483  0.00  0.00    +0.000 A 
ENDBRANCH  23  30
ENDBRANCH  22  23
ENDBRANCH  21  22
ENDBRANCH   1  21
TORSDOF 11
ENDMDL
MODEL 8
REMARK VINA RESULT:      -7.4      1.126      1.858
REMARK  Name = 
REMARK  12 active torsions:
REMARK  status: ('A' for Active; 'I' for Inactive)
REMARK    1  A    between atoms: C_1  and  C_2
REMARK    2  A    between atoms: C_7  and  C_8
REMARK    3  A    between atoms: C_8  and  S_9
REMARK    4  A    between atoms: S_9  and  C_10
REMARK    5  A    between atoms: C_10  and  C_11
REMARK    6  A    between atoms: C_11  and  N_12
REMARK    7  A    between atoms: C_11  and  C_25
REMARK    8  A    between atoms: N_12  and  C_13
REMARK    9  A    between atoms: C_16  and  C_17
REMARK   10  A    between atoms: C_17  and  O_19
REMARK   11  A    between atoms: C_21  and  N_22
REMARK   12  A    between atoms: C_25  and  O_27
REMARK                            x       y       z     vdW  Elec       q    Type
REMARK                         _______ _______ _______ _____ _____    ______ ____
ROOT
ATOM      1  C   UNK A   1       3.391   3.306  19.167  0.00  0.00    +0.000 C 
ENDROOT
BRANCH   1   2
ATOM      2  N   UNK A   1       4.331   4.419  18.831  0.00  0.00    +0.000 N 
ATOM      3  H   UNK A   1       4.861   4.736  19.655  0.00  0.00    +0.000 HD
BRANCH   2   4
ATOM      4  C   UNK A   0       5.054   4.560  17.641  0.00  0.00    +0.000 A 
ATOM      5  C   UNK A   0       4.421   4.383  16.399  0.00  0.00    +0.000 A 
ATOM      6  C   UNK A   0       5.102   4.469  15.185  0.00  0.00    +0.000 A 
ATOM      7  C   UNK A   0       6.456   4.781  15.176  0.00  0.00    +0.000 A 
ATOM      8  C   UNK A   0       7.093   5.121  16.370  0.00  0.00    +0.000 A 
ATOM      9  C   UNK A   0       6.396   5.029  17.593  0.00  0.00    +0.000 A 
BRANCH   9  10
ATOM     10  N   UNK A   0       7.107   5.493  18.803  0.00  0.00    +0.000 N 
ATOM     11  O   UNK A   0       6.870   4.930  19.883  0.00  0.00    +0.000 OA
ATOM     12  O   UNK A   0       7.904   6.435  18.679  0.00  0.00    +0.000 OA
ENDBRANCH   9  10
BRANCH   7  13
ATOM     13  C   UNK A   0       7.206   4.815  13.903  0.00  0.00    +0.000 C 
ATOM     14  O   UNK A   0       6.884   4.141  12.943  0.00  0.00    +0.000 OA
BRANCH  13  15
ATOM     15  O   UNK A   0       8.223   5.692  13.906  0.00  0.00    +0.000 OA
ATOM     16  H   UNK A   0       9.091   5.340  14.180  0.00  0.00    +0.000 HD
ENDBRANCH  13  15
ENDBRANCH   7  13
ENDBRANCH   2   4
ENDBRANCH   1   2
BRANCH   1  17
ATOM     17  C   UNK A   1       3.918   2.564  20.413  0.00  0.00    +0.000 C 
ATOM     18  O   UNK A   1       3.293   2.388  21.446  0.00  0.00    +0.000 OA
BRANCH  17  19
ATOM     19  O   UNK A   1       5.198   2.134  20.244  0.00  0.00    +0.000 OA
ATOM     20  H   UNK A   1       5.177   1.158  20.098  0.00  0.00    +0.000 HD
ENDBRANCH  17  19
ENDBRANCH   1  17
BRANCH   1  21
ATOM     21  C   UNK A   1       1.904   3.683  19.328  0.00  0.00    +0.000 C 
BRANCH  21  22
ATOM     22  S   UNK A   1       1.543   4.915  20.639  0.00  0.00    +0.000 S 
BRANCH  22  23
ATOM     23  C   UNK A   1       2.810   6.161  20.186  0.00  0.00    +0.000 C 
BRANCH  23  30
ATOM     24  C   UNK A   1       1.233   8.278  21.727  0.00  0.00    +0.000 C 
ATOM     25  C   UNK A   1       1.472   8.362  20.243  0.00  0.00    +0.000 A 
ATOM     26  C   UNK A   1       0.985   9.496  19.565  0.00  0.00    +0.000 A 
ATOM     27  C   UNK A   1       1.229   9.679  18.202  0.00  0.00    +0.000 A 
ATOM     28  C   UNK A   1       1.971   8.740  17.505  0.00  0.00    +0.000 A 
ATOM     29  C   UNK A   1       2.461   7.609  18.161  0.00  0.00    +0.000 A 
ATOM     30  C   UNK A   1       2.225   7.399  19.535  0.00  0.00    +0.000 A 
ENDBRANCH  23  30
ENDBRANCH  22  23
ENDBRANCH  21  22
ENDBRANCH   1  21
TORSDOF 11
ENDMDL
MODEL 9
REMARK VINA RESULT:      -7.4      0.905      1.495
REMARK  Name = 
REMARK  12 active torsions:
REMARK  status: ('A' for Active; 'I' for Inactive)
REMARK    1  A    between atoms: C_1  and  C_2
REMARK    2  A    between atoms: C_7  and  C_8
REMARK    3  A    between atoms: C_8  and  S_9
REMARK    4  A    between atoms: S_9  and  C_10
REMARK    5  A    between atoms: C_10  and  C_11
REMARK    6  A    between atoms: C_11  and  N_12
REMARK    7  A    between atoms: C_11  and  C_25
REMARK    8  A    between atoms: N_12  and  C_13
REMARK    9  A    between atoms: C_16  and  C_17
REMARK   10  A    between atoms: C_17  and  O_19
REMARK   11  A    between atoms: C_21  and  N_22
REMARK   12  A    between atoms: C_25  and  O_27
REMARK                            x       y       z     vdW  Elec       q    Type
REMARK                         _______ _______ _______ _____ _____    ______ ____
ROOT
ATOM      1  C   UNK A   1       3.634   3.863  18.330  0.00  0.00    +0.000 C 
ENDROOT
BRANCH   1   2
ATOM      2  N   UNK A   1       5.086   3.696  18.012  0.00  0.00    +0.000 N 
ATOM      3  H   UNK A   1       5.466   2.824  18.405  0.00  0.00    +0.000 HD
BRANCH   2   4
ATOM      4  C   UNK A   0       5.720   4.071  16.822  0.00  0.00    +0.000 A 
ATOM      5  C   UNK A   0       5.128   3.785  15.580  0.00  0.00    +0.000 A 
ATOM      6  C   UNK A   0       5.737   4.097  14.365  0.00  0.00    +0.000 A 
ATOM      7  C   UNK A   0       6.961   4.755  14.356  0.00  0.00    +0.000 A 
ATOM      8  C   UNK A   0       7.512   5.201  15.558  0.00  0.00    +0.000 A 
ATOM      9  C   UNK A   0       6.890   4.877  16.783  0.00  0.00    +0.000 A 
BRANCH   9  10
ATOM     10  N   UNK A   0       7.481   5.462  18.005  0.00  0.00    +0.000 N 
ATOM     11  O   UNK A   0       7.608   6.695  18.072  0.00  0.00    +0.000 OA
ATOM     12  O   UNK A   0       7.832   4.685  18.905  0.00  0.00    +0.000 OA
ENDBRANCH   9  10
BRANCH   7  13
ATOM     13  C   UNK A   0       7.647   5.037  13.079  0.00  0.00    +0.000 C 
ATOM     14  O   UNK A   0       7.304   4.524  12.030  0.00  0.00    +0.000 OA
BRANCH  13  15
ATOM     15  O   UNK A   0       8.633   5.943  13.191  0.00  0.00    +0.000 OA
ATOM     16  H   UNK A   0       8.914   6.160  14.100  0.00  0.00    +0.000 HD
ENDBRANCH  13  15
ENDBRANCH   7  13
ENDBRANCH   2   4
ENDBRANCH   1   2
BRANCH   1  17
ATOM     17  C   UNK A   1       2.852   2.666  17.747  0.00  0.00    +0.000 C 
ATOM     18  O   UNK A   1       1.949   2.744  16.930  0.00  0.00    +0.000 OA
BRANCH  17  19
ATOM     19  O   UNK A   1       3.270   1.483  18.273  0.00  0.00    +0.000 OA
ATOM     20  H   UNK A   1       2.522   1.093  18.784  0.00  0.00    +0.000 HD
ENDBRANCH  17  19
ENDBRANCH   1  17
BRANCH   1  21
ATOM     21  C   UNK A   1       3.274   4.098  19.811  0.00  0.00    +0.000 C 
BRANCH  21  22
ATOM     22  S   UNK A   1       1.744   5.066  20.104  0.00  0.00    +0.000 S 
BRANCH  22  23
ATOM     23  C   UNK A   1       2.524   6.669  20.535  0.00  0.00    +0.000 C 
BRANCH  23  30
ATOM     24  C   UNK A   1       3.328   7.397  17.678  0.00  0.00    +0.000 C 
ATOM     25  C   UNK A   1       2.329   8.196  18.470  0.00  0.00    +0.000 A 
ATOM     26  C   UNK A   1       1.712   9.291  17.832  0.00  0.00    +0.000 A 
ATOM     27  C   UNK A   1       0.723  10.036  18.479  0.00  0.00    +0.000 A 
ATOM     28  C   UNK A   1       0.332   9.691  19.761  0.00  0.00    +0.000 A 
ATOM     29  C   UNK A   1       0.933   8.610  20.409  0.00  0.00    +0.000 A 
ATOM     30  C   UNK A   1       1.935   7.844  19.780  0.00  0.00    +0.000 A 
ENDBRANCH  23  30
ENDBRANCH  22  23
ENDBRANCH  21  22
ENDBRANCH   1  21
TORSDOF 11
ENDMDL
