MODEL 1
REMARK VINA RESULT:      -7.8      0.000      0.000
REMARK  Name = 
REMARK  5 active torsions:
REMARK  status: ('A' for Active; 'I' for Inactive)
REMARK    1  A    between atoms: C_1  and  S_2
REMARK    2  A    between atoms: S_2  and  C_5
REMARK    3  A    between atoms: C_8  and  C_9
REMARK    4  A    between atoms: C_9  and  C_11
REMARK    5  A    between atoms: N_16  and  C_17
REMARK                            x       y       z     vdW  Elec       q    Type
REMARK                         _______ _______ _______ _____ _____    ______ ____
ROOT
ATOM      1  C   UNL     1       2.815   5.413  17.878  0.00  0.00    +0.000 A 
ATOM      2  C   UNL     1       1.643   4.684  17.775  0.00  0.00    +0.000 A 
ATOM      3  N   UNL     1       1.871   3.344  17.802  0.00  0.00    +0.000 NA
ATOM      4  C   UNL     1       3.170   3.209  17.899  0.00  0.00    +0.000 A 
ATOM      5  N   UNL     1       3.772   2.010  18.042  0.00  0.00    +0.000 N 
ATOM      6  N   UNL     1       3.828   4.448  17.950  0.00  0.00    +0.000 N 
ATOM      7  H   UNL     1       3.137   1.238  18.221  0.00  0.00    +0.000 HD
ATOM      8  H   UNL     1       4.623   1.944  18.590  0.00  0.00    +0.000 HD
ENDROOT
BRANCH   6   9
ATOM      9  C   UNL     1       5.234   4.658  18.109  0.00  0.00    +0.000 A 
ATOM     10  C   UNL     1       5.744   5.183  19.307  0.00  0.00    +0.000 A 
ATOM     11  C   UNL     1       7.112   5.432  19.447  0.00  0.00    +0.000 A 
ATOM     12  C   UNL     1       7.987   5.136  18.406  0.00  0.00    +0.000 A 
ATOM     13  C   UNL     1       7.495   4.593  17.222  0.00  0.00    +0.000 A 
ATOM     14  C   UNL     1       6.126   4.364  17.068  0.00  0.00    +0.000 A 
ENDBRANCH   6   9
BRANCH   1  15
ATOM     15  C   UNL     1       2.974   6.844  17.754  0.00  0.00    +0.000 C 
ATOM     16  O   UNL     1       3.646   7.367  16.869  0.00  0.00    +0.000 OA
BRANCH  15  20
ATOM     17  C   UNL     1       0.866   9.553  20.329  0.00  0.00    +0.000 A 
ATOM     18  C   UNL     1       1.124   9.898  19.002  0.00  0.00    +0.000 A 
ATOM     19  C   UNL     1       1.819   9.004  18.187  0.00  0.00    +0.000 A 
ATOM     20  C   UNL     1       2.263   7.771  18.693  0.00  0.00    +0.000 A 
ATOM     21  C   UNL     1       2.055   7.467  20.047  0.00  0.00    +0.000 A 
ATOM     22  C   UNL     1       1.350   8.356  20.865  0.00  0.00    +0.000 A 
BRANCH  17  24
ATOM     23  C   UNL     1      -1.293  11.285  20.215  0.00  0.00    +0.000 C 
ATOM     24  S   UNL     1      -0.083  10.653  21.350  0.00  0.00    +0.000 S 
ATOM     25  O   UNL     1       0.787  11.747  21.742  0.00  0.00    +0.000 OA
ATOM     26  O   UNL     1      -0.765   9.849  22.343  0.00  0.00    +0.000 OA
ENDBRANCH  17  24
ENDBRANCH  15  20
ENDBRANCH   1  15
TORSDOF 4
ENDMDL
MODEL 2
REMARK VINA RESULT:      -7.8      0.712      1.382
REMARK  Name = 
REMARK  5 active torsions:
REMARK  status: ('A' for Active; 'I' for Inactive)
REMARK    1  A    between atoms: C_1  and  S_2
REMARK    2  A    between atoms: S_2  and  C_5
REMARK    3  A    between atoms: C_8  and  C_9
REMARK    4  A    between atoms: C_9  and  C_11
REMARK    5  A    between atoms: N_16  and  C_17
REMARK                            x       y       z     vdW  Elec       q    Type
REMARK                         _______ _______ _______ _____ _____    ______ ____
ROOT
ATOM      1  C   UNL     1       2.802   5.443  17.884  0.00  0.00    +0.000 A 
ATOM      2  C   UNL     1       1.638   4.699  17.798  0.00  0.00    +0.000 A 
ATOM      3  N   UNL     1       1.880   3.363  17.852  0.00  0.00    +0.000 NA
ATOM      4  C   UNL     1       3.181   3.244  17.948  0.00  0.00    +0.000 A 
ATOM      5  N   UNL     1       3.796   2.055  18.113  0.00  0.00    +0.000 N 
ATOM      6  N   UNL     1       3.825   4.491  17.972  0.00  0.00    +0.000 N 
ATOM      7  H   UNL     1       3.170   1.279  18.309  0.00  0.00    +0.000 HD
ATOM      8  H   UNL     1       4.650   2.009  18.660  0.00  0.00    +0.000 HD
ENDROOT
BRANCH   6   9
ATOM      9  C   UNL     1       5.230   4.719  18.123  0.00  0.00    +0.000 A 
ATOM     10  C   UNL     1       6.119   4.396  17.087  0.00  0.00    +0.000 A 
ATOM     11  C   UNL     1       7.495   4.575  17.249  0.00  0.00    +0.000 A 
ATOM     12  C   UNL     1       7.995   5.104  18.436  0.00  0.00    +0.000 A 
ATOM     13  C   UNL     1       7.121   5.450  19.462  0.00  0.00    +0.000 A 
ATOM     14  C   UNL     1       5.746   5.251  19.313  0.00  0.00    +0.000 A 
ENDBRANCH   6   9
BRANCH   1  15
ATOM     15  C   UNL     1       2.945   6.872  17.730  0.00  0.00    +0.000 C 
ATOM     16  O   UNL     1       3.594   7.386  16.823  0.00  0.00    +0.000 OA
BRANCH  15  20
ATOM     17  C   UNL     1       0.870   9.615  20.298  0.00  0.00    +0.000 A 
ATOM     18  C   UNL     1       1.150   9.961  18.975  0.00  0.00    +0.000 A 
ATOM     19  C   UNL     1       1.833   9.055  18.163  0.00  0.00    +0.000 A 
ATOM     20  C   UNL     1       2.244   7.810  18.667  0.00  0.00    +0.000 A 
ATOM     21  C   UNL     1       2.015   7.504  20.017  0.00  0.00    +0.000 A 
ATOM     22  C   UNL     1       1.321   8.404  20.833  0.00  0.00    +0.000 A 
BRANCH  17  24
ATOM     23  C   UNL     1      -0.420   9.742  22.747  0.00  0.00    +0.000 C 
ATOM     24  S   UNL     1      -0.066  10.730  21.315  0.00  0.00    +0.000 S 
ATOM     25  O   UNL     1      -1.317  11.002  20.630  0.00  0.00    +0.000 OA
ATOM     26  O   UNL     1       0.818  11.806  21.710  0.00  0.00    +0.000 OA
ENDBRANCH  17  24
ENDBRANCH  15  20
ENDBRANCH   1  15
TORSDOF 4
ENDMDL
MODEL 3
REMARK VINA RESULT:      -7.8      1.955      2.461
REMARK  Name = 
REMARK  5 active torsions:
REMARK  status: ('A' for Active; 'I' for Inactive)
REMARK    1  A    between atoms: C_1  and  S_2
REMARK    2  A    between atoms: S_2  and  C_5
REMARK    3  A    between atoms: C_8  and  C_9
REMARK    4  A    between atoms: C_9  and  C_11
REMARK    5  A    between atoms: N_16  and  C_17
REMARK                            x       y       z     vdW  Elec       q    Type
REMARK                         _______ _______ _______ _____ _____    ______ ____
ROOT
ATOM      1  C   UNL     1       3.049   4.867  18.518  0.00  0.00    +0.000 A 
ATOM      2  C   UNL     1       2.191   4.006  17.856  0.00  0.00    +0.000 A 
ATOM      3  N   UNL     1       2.767   3.457  16.754  0.00  0.00    +0.000 NA
ATOM      4  C   UNL     1       3.970   3.972  16.692  0.00  0.00    +0.000 A 
ATOM      5  N   UNL     1       4.880   3.596  15.770  0.00  0.00    +0.000 N 
ATOM      6  N   UNL     1       4.221   4.859  17.750  0.00  0.00    +0.000 N 
ATOM      7  H   UNL     1       4.617   2.778  15.227  0.00  0.00    +0.000 HD
ATOM      8  H   UNL     1       5.865   3.595  16.016  0.00  0.00    +0.000 HD
ENDROOT
BRANCH   6   9
ATOM      9  C   UNL     1       5.447   5.549  18.010  0.00  0.00    +0.000 A 
ATOM     10  C   UNL     1       5.812   6.665  17.241  0.00  0.00    +0.000 A 
ATOM     11  C   UNL     1       7.031   7.312  17.462  0.00  0.00    +0.000 A 
ATOM     12  C   UNL     1       7.884   6.869  18.469  0.00  0.00    +0.000 A 
ATOM     13  C   UNL     1       7.522   5.778  19.254  0.00  0.00    +0.000 A 
ATOM     14  C   UNL     1       6.315   5.113  19.021  0.00  0.00    +0.000 A 
ENDBRANCH   6   9
BRANCH   1  15
ATOM     15  C   UNL     1       2.742   5.723  19.640  0.00  0.00    +0.000 C 
ATOM     16  O   UNL     1       2.910   5.381  20.808  0.00  0.00    +0.000 OA
BRANCH  15  20
ATOM     17  C   UNL     1       1.327   9.743  19.139  0.00  0.00    +0.000 A 
ATOM     18  C   UNL     1       1.131   9.072  20.347  0.00  0.00    +0.000 A 
ATOM     19  C   UNL     1       1.592   7.762  20.482  0.00  0.00    +0.000 A 
ATOM     20  C   UNL     1       2.242   7.118  19.416  0.00  0.00    +0.000 A 
ATOM     21  C   UNL     1       2.371   7.783  18.187  0.00  0.00    +0.000 A 
ATOM     22  C   UNL     1       1.919   9.099  18.049  0.00  0.00    +0.000 A 
BRANCH  17  24
ATOM     23  C   UNL     1       0.705  11.962  20.679  0.00  0.00    +0.000 C 
ATOM     24  S   UNL     1       0.810  11.436  18.986  0.00  0.00    +0.000 S 
ATOM     25  O   UNL     1      -0.529  11.435  18.426  0.00  0.00    +0.000 OA
ATOM     26  O   UNL     1       1.886  12.164  18.347  0.00  0.00    +0.000 OA
ENDBRANCH  17  24
ENDBRANCH  15  20
ENDBRANCH   1  15
TORSDOF 4
ENDMDL
MODEL 4
REMARK VINA RESULT:      -7.7      0.176      1.406
REMARK  Name = 
REMARK  5 active torsions:
REMARK  status: ('A' for Active; 'I' for Inactive)
REMARK    1  A    between atoms: C_1  and  S_2
REMARK    2  A    between atoms: S_2  and  C_5
REMARK    3  A    between atoms: C_8  and  C_9
REMARK    4  A    between atoms: C_9  and  C_11
REMARK    5  A    between atoms: N_16  and  C_17
REMARK                            x       y       z     vdW  Elec       q    Type
REMARK                         _______ _______ _______ _____ _____    ______ ____
ROOT
ATOM      1  C   UNL     1       2.925   5.461  17.966  0.00  0.00    +0.000 A 
ATOM      2  C   UNL     1       1.758   4.719  17.911  0.00  0.00    +0.000 A 
ATOM      3  N   UNL     1       1.995   3.384  17.998  0.00  0.00    +0.000 NA
ATOM      4  C   UNL     1       3.296   3.262  18.085  0.00  0.00    +0.000 A 
ATOM      5  N   UNL     1       3.909   2.075  18.276  0.00  0.00    +0.000 N 
ATOM      6  N   UNL     1       3.946   4.507  18.070  0.00  0.00    +0.000 N 
ATOM      7  H   UNL     1       3.281   1.308  18.499  0.00  0.00    +0.000 HD
ATOM      8  H   UNL     1       4.767   2.041  18.816  0.00  0.00    +0.000 HD
ENDROOT
BRANCH   6   9
ATOM      9  C   UNL     1       5.352   4.733  18.201  0.00  0.00    +0.000 A 
ATOM     10  C   UNL     1       6.229   4.384  17.163  0.00  0.00    +0.000 A 
ATOM     11  C   UNL     1       7.608   4.562  17.307  0.00  0.00    +0.000 A 
ATOM     12  C   UNL     1       8.122   5.114  18.476  0.00  0.00    +0.000 A 
ATOM     13  C   UNL     1       7.260   5.487  19.504  0.00  0.00    +0.000 A 
ATOM     14  C   UNL     1       5.883   5.290  19.374  0.00  0.00    +0.000 A 
ENDBRANCH   6   9
BRANCH   1  15
ATOM     15  C   UNL     1       3.072   6.884  17.773  0.00  0.00    +0.000 C 
ATOM     16  O   UNL     1       3.816   7.371  16.926  0.00  0.00    +0.000 OA
BRANCH  15  20
ATOM     17  C   UNL     1       0.822   9.603  20.216  0.00  0.00    +0.000 A 
ATOM     18  C   UNL     1       1.346   8.430  20.763  0.00  0.00    +0.000 A 
ATOM     19  C   UNL     1       2.066   7.558  19.946  0.00  0.00    +0.000 A 
ATOM     20  C   UNL     1       2.260   7.848  18.585  0.00  0.00    +0.000 A 
ATOM     21  C   UNL     1       1.671   8.997  18.035  0.00  0.00    +0.000 A 
ATOM     22  C   UNL     1       0.956   9.879  18.852  0.00  0.00    +0.000 A 
BRANCH  17  24
ATOM     23  C   UNL     1      -1.261  11.428  20.179  0.00  0.00    +0.000 C 
ATOM     24  S   UNL     1      -0.030  10.753  21.266  0.00  0.00    +0.000 S 
ATOM     25  O   UNL     1       0.905  11.811  21.607  0.00  0.00    +0.000 OA
ATOM     26  O   UNL     1      -0.701   9.989  22.297  0.00  0.00    +0.000 OA
ENDBRANCH  17  24
ENDBRANCH  15  20
ENDBRANCH   1  15
TORSDOF 4
ENDMDL
MODEL 5
REMARK VINA RESULT:      -7.7      2.086      2.582
REMARK  Name = 
REMARK  5 active torsions:
REMARK  status: ('A' for Active; 'I' for Inactive)
REMARK    1  A    between atoms: C_1  and  S_2
REMARK    2  A    between atoms: S_2  and  C_5
REMARK    3  A    between atoms: C_8  and  C_9
REMARK    4  A    between atoms: C_9  and  C_11
REMARK    5  A    between atoms: N_16  and  C_17
REMARK                            x       y       z     vdW  Elec       q    Type
REMARK                         _______ _______ _______ _____ _____    ______ ____
ROOT
ATOM      1  C   UNL     1       3.684   4.730  18.110  0.00  0.00    +0.000 A 
ATOM      2  C   UNL     1       2.972   3.824  17.343  0.00  0.00    +0.000 A 
ATOM      3  N   UNL     1       3.661   3.437  16.237  0.00  0.00    +0.000 NA
ATOM      4  C   UNL     1       4.791   4.098  16.277  0.00  0.00    +0.000 A 
ATOM      5  N   UNL     1       5.781   3.908  15.381  0.00  0.00    +0.000 N 
ATOM      6  N   UNL     1       4.881   4.925  17.408  0.00  0.00    +0.000 N 
ATOM      7  H   UNL     1       5.648   3.109  14.767  0.00  0.00    +0.000 HD
ATOM      8  H   UNL     1       6.746   4.009  15.678  0.00  0.00    +0.000 HD
ENDROOT
BRANCH   6   9
ATOM      9  C   UNL     1       5.998   5.737  17.781  0.00  0.00    +0.000 A 
ATOM     10  C   UNL     1       6.881   5.313  18.787  0.00  0.00    +0.000 A 
ATOM     11  C   UNL     1       7.946   6.126  19.185  0.00  0.00    +0.000 A 
ATOM     12  C   UNL     1       8.156   7.355  18.567  0.00  0.00    +0.000 A 
ATOM     13  C   UNL     1       7.300   7.775  17.552  0.00  0.00    +0.000 A 
ATOM     14  C   UNL     1       6.221   6.977  17.166  0.00  0.00    +0.000 A 
ENDBRANCH   6   9
BRANCH   1  15
ATOM     15  C   UNL     1       3.222   5.452  19.272  0.00  0.00    +0.000 C 
ATOM     16  O   UNL     1       3.355   5.030  20.418  0.00  0.00    +0.000 OA
BRANCH  15  20
ATOM     17  C   UNL     1       1.438   9.345  18.991  0.00  0.00    +0.000 A 
ATOM     18  C   UNL     1       1.341   8.609  20.172  0.00  0.00    +0.000 A 
ATOM     19  C   UNL     1       1.922   7.342  20.236  0.00  0.00    +0.000 A 
ATOM     20  C   UNL     1       2.593   6.805  19.125  0.00  0.00    +0.000 A 
ATOM     21  C   UNL     1       2.623   7.529  17.923  0.00  0.00    +0.000 A 
ATOM     22  C   UNL     1       2.052   8.804  17.857  0.00  0.00    +0.000 A 
BRANCH  17  24
ATOM     23  C   UNL     1       0.527  11.373  20.644  0.00  0.00    +0.000 C 
ATOM     24  S   UNL     1       0.768  10.989  18.928  0.00  0.00    +0.000 S 
ATOM     25  O   UNL     1      -0.535  10.905  18.293  0.00  0.00    +0.000 OA
ATOM     26  O   UNL     1       1.799  11.861  18.405  0.00  0.00    +0.000 OA
ENDBRANCH  17  24
ENDBRANCH  15  20
ENDBRANCH   1  15
TORSDOF 4
ENDMDL
MODEL 6
REMARK VINA RESULT:      -7.7      1.916      2.412
REMARK  Name = 
REMARK  5 active torsions:
REMARK  status: ('A' for Active; 'I' for Inactive)
REMARK    1  A    between atoms: C_1  and  S_2
REMARK    2  A    between atoms: S_2  and  C_5
REMARK    3  A    between atoms: C_8  and  C_9
REMARK    4  A    between atoms: C_9  and  C_11
REMARK    5  A    between atoms: N_16  and  C_17
REMARK                            x       y       z     vdW  Elec       q    Type
REMARK                         _______ _______ _______ _____ _____    ______ ____
ROOT
ATOM      1  C   UNL     1       3.551   4.681  18.267  0.00  0.00    +0.000 A 
ATOM      2  C   UNL     1       2.809   3.786  17.516  0.00  0.00    +0.000 A 
ATOM      3  N   UNL     1       3.461   3.400  16.388  0.00  0.00    +0.000 NA
ATOM      4  C   UNL     1       4.598   4.051  16.399  0.00  0.00    +0.000 A 
ATOM      5  N   UNL     1       5.560   3.858  15.473  0.00  0.00    +0.000 N 
ATOM      6  N   UNL     1       4.729   4.869  17.532  0.00  0.00    +0.000 N 
ATOM      7  H   UNL     1       5.401   3.064  14.859  0.00  0.00    +0.000 HD
ATOM      8  H   UNL     1       6.534   3.947  15.743  0.00  0.00    +0.000 HD
ENDROOT
BRANCH   6   9
ATOM      9  C   UNL     1       5.863   5.669  17.877  0.00  0.00    +0.000 A 
ATOM     10  C   UNL     1       6.120   6.871  17.199  0.00  0.00    +0.000 A 
ATOM     11  C   UNL     1       7.253   7.630  17.504  0.00  0.00    +0.000 A 
ATOM     12  C   UNL     1       8.125   7.213  18.504  0.00  0.00    +0.000 A 
ATOM     13  C   UNL     1       7.869   6.034  19.200  0.00  0.00    +0.000 A 
ATOM     14  C   UNL     1       6.750   5.260  18.884  0.00  0.00    +0.000 A 
ENDBRANCH   6   9
BRANCH   1  15
ATOM     15  C   UNL     1       3.130   5.400  19.447  0.00  0.00    +0.000 C 
ATOM     16  O   UNL     1       3.291   4.969  20.586  0.00  0.00    +0.000 OA
BRANCH  15  20
ATOM     17  C   UNL     1       1.379   9.312  19.242  0.00  0.00    +0.000 A 
ATOM     18  C   UNL     1       1.293   8.562  20.416  0.00  0.00    +0.000 A 
ATOM     19  C   UNL     1       1.863   7.289  20.454  0.00  0.00    +0.000 A 
ATOM     20  C   UNL     1       2.511   6.760  19.326  0.00  0.00    +0.000 A 
ATOM     21  C   UNL     1       2.530   7.499  18.133  0.00  0.00    +0.000 A 
ATOM     22  C   UNL     1       1.969   8.780  18.093  0.00  0.00    +0.000 A 
BRANCH  17  24
ATOM     23  C   UNL     1      -0.819  10.747  18.355  0.00  0.00    +0.000 C 
ATOM     24  S   UNL     1       0.723  10.962  19.210  0.00  0.00    +0.000 S 
ATOM     25  O   UNL     1       1.598  11.765  18.375  0.00  0.00    +0.000 OA
ATOM     26  O   UNL     1       0.437  11.345  20.577  0.00  0.00    +0.000 OA
ENDBRANCH  17  24
ENDBRANCH  15  20
ENDBRANCH   1  15
TORSDOF 4
ENDMDL
MODEL 7
REMARK VINA RESULT:      -7.7      2.031      2.391
REMARK  Name = 
REMARK  5 active torsions:
REMARK  status: ('A' for Active; 'I' for Inactive)
REMARK    1  A    between atoms: C_1  and  S_2
REMARK    2  A    between atoms: S_2  and  C_5
REMARK    3  A    between atoms: C_8  and  C_9
REMARK    4  A    between atoms: C_9  and  C_11
REMARK    5  A    between atoms: N_16  and  C_17
REMARK                            x       y       z     vdW  Elec       q    Type
REMARK                         _______ _______ _______ _____ _____    ______ ____
ROOT
ATOM      1  C   UNL     1       3.381   4.711  18.376  0.00  0.00    +0.000 A 
ATOM      2  C   UNL     1       2.591   3.846  17.640  0.00  0.00    +0.000 A 
ATOM      3  N   UNL     1       3.202   3.444  16.494  0.00  0.00    +0.000 NA
ATOM      4  C   UNL     1       4.360   4.055  16.479  0.00  0.00    +0.000 A 
ATOM      5  N   UNL     1       5.292   3.835  15.529  0.00  0.00    +0.000 N 
ATOM      6  N   UNL     1       4.546   4.863  17.613  0.00  0.00    +0.000 N 
ATOM      7  H   UNL     1       5.091   3.050  14.916  0.00  0.00    +0.000 HD
ATOM      8  H   UNL     1       6.275   3.890  15.775  0.00  0.00    +0.000 HD
ENDROOT
BRANCH   6   9
ATOM      9  C   UNL     1       5.715   5.622  17.933  0.00  0.00    +0.000 A 
ATOM     10  C   UNL     1       6.006   6.808  17.241  0.00  0.00    +0.000 A 
ATOM     11  C   UNL     1       7.171   7.527  17.521  0.00  0.00    +0.000 A 
ATOM     12  C   UNL     1       8.043   7.085  18.511  0.00  0.00    +0.000 A 
ATOM     13  C   UNL     1       7.754   5.922  19.221  0.00  0.00    +0.000 A 
ATOM     14  C   UNL     1       6.602   5.188  18.929  0.00  0.00    +0.000 A 
ENDBRANCH   6   9
BRANCH   1  15
ATOM     15  C   UNL     1       3.014   5.438  19.569  0.00  0.00    +0.000 C 
ATOM     16  O   UNL     1       3.209   5.006  20.702  0.00  0.00    +0.000 OA
BRANCH  15  20
ATOM     17  C   UNL     1       1.267   9.334  19.139  0.00  0.00    +0.000 A 
ATOM     18  C   UNL     1       1.936   8.739  18.068  0.00  0.00    +0.000 A 
ATOM     19  C   UNL     1       2.503   7.475  18.236  0.00  0.00    +0.000 A 
ATOM     20  C   UNL     1       2.411   6.807  19.468  0.00  0.00    +0.000 A 
ATOM     21  C   UNL     1       1.794   7.447  20.554  0.00  0.00    +0.000 A 
ATOM     22  C   UNL     1       1.215   8.709  20.388  0.00  0.00    +0.000 A 
BRANCH  17  24
ATOM     23  C   UNL     1      -0.028  11.329  20.560  0.00  0.00    +0.000 C 
ATOM     24  S   UNL     1       0.478  10.909  18.910  0.00  0.00    +0.000 S 
ATOM     25  O   UNL     1      -0.714  10.689  18.111  0.00  0.00    +0.000 OA
ATOM     26  O   UNL     1       1.495  11.850  18.491  0.00  0.00    +0.000 OA
ENDBRANCH  17  24
ENDBRANCH  15  20
ENDBRANCH   1  15
TORSDOF 4
ENDMDL
MODEL 8
REMARK VINA RESULT:      -7.7      1.004      1.673
REMARK  Name = 
REMARK  5 active torsions:
REMARK  status: ('A' for Active; 'I' for Inactive)
REMARK    1  A    between atoms: C_1  and  S_2
REMARK    2  A    between atoms: S_2  and  C_5
REMARK    3  A    between atoms: C_8  and  C_9
REMARK    4  A    between atoms: C_9  and  C_11
REMARK    5  A    between atoms: N_16  and  C_17
REMARK                            x       y       z     vdW  Elec       q    Type
REMARK                         _______ _______ _______ _____ _____    ______ ____
ROOT
ATOM      1  C   UNL     1       2.714   5.365  18.203  0.00  0.00    +0.000 A 
ATOM      2  C   UNL     1       1.532   4.787  18.634  0.00  0.00    +0.000 A 
ATOM      3  N   UNL     1       1.557   3.432  18.531  0.00  0.00    +0.000 NA
ATOM      4  C   UNL     1       2.727   3.139  18.021  0.00  0.00    +0.000 A 
ATOM      5  N   UNL     1       3.154   1.871  17.852  0.00  0.00    +0.000 N 
ATOM      6  N   UNL     1       3.504   4.285  17.787  0.00  0.00    +0.000 N 
ATOM      7  H   UNL     1       2.567   1.166  18.288  0.00  0.00    +0.000 HD
ATOM      8  H   UNL     1       4.143   1.663  17.949  0.00  0.00    +0.000 HD
ENDROOT
BRANCH   6   9
ATOM      9  C   UNL     1       4.845   4.317  17.290  0.00  0.00    +0.000 A 
ATOM     10  C   UNL     1       5.924   4.513  18.165  0.00  0.00    +0.000 A 
ATOM     11  C   UNL     1       7.231   4.590  17.675  0.00  0.00    +0.000 A 
ATOM     12  C   UNL     1       7.476   4.445  16.313  0.00  0.00    +0.000 A 
ATOM     13  C   UNL     1       6.415   4.226  15.438  0.00  0.00    +0.000 A 
ATOM     14  C   UNL     1       5.105   4.172  15.920  0.00  0.00    +0.000 A 
ENDBRANCH   6   9
BRANCH   1  15
ATOM     15  C   UNL     1       2.998   6.772  18.045  0.00  0.00    +0.000 C 
ATOM     16  O   UNL     1       3.854   7.199  17.275  0.00  0.00    +0.000 OA
BRANCH  15  20
ATOM     17  C   UNL     1       0.785   9.666  20.312  0.00  0.00    +0.000 A 
ATOM     18  C   UNL     1       1.257   8.503  20.923  0.00  0.00    +0.000 A 
ATOM     19  C   UNL     1       1.966   7.573  20.162  0.00  0.00    +0.000 A 
ATOM     20  C   UNL     1       2.200   7.796  18.795  0.00  0.00    +0.000 A 
ATOM     21  C   UNL     1       1.662   8.937  18.181  0.00  0.00    +0.000 A 
ATOM     22  C   UNL     1       0.959   9.877  18.942  0.00  0.00    +0.000 A 
BRANCH  17  24
ATOM     23  C   UNL     1      -0.473   9.985  22.760  0.00  0.00    +0.000 C 
ATOM     24  S   UNL     1      -0.052  10.889  21.291  0.00  0.00    +0.000 S 
ATOM     25  O   UNL     1      -1.282  11.235  20.602  0.00  0.00    +0.000 OA
ATOM     26  O   UNL     1       0.917  11.906  21.643  0.00  0.00    +0.000 OA
ENDBRANCH  17  24
ENDBRANCH  15  20
ENDBRANCH   1  15
TORSDOF 4
ENDMDL
MODEL 9
REMARK VINA RESULT:      -7.5      1.455      1.925
REMARK  Name = 
REMARK  5 active torsions:
REMARK  status: ('A' for Active; 'I' for Inactive)
REMARK    1  A    between atoms: C_1  and  S_2
REMARK    2  A    between atoms: S_2  and  C_5
REMARK    3  A    between atoms: C_8  and  C_9
REMARK    4  A    between atoms: C_9  and  C_11
REMARK    5  A    between atoms: N_16  and  C_17
REMARK                            x       y       z     vdW  Elec       q    Type
REMARK                         _______ _______ _______ _____ _____    ______ ____
ROOT
ATOM      1  C   UNL     1       3.140   5.298  19.235  0.00  0.00    +0.000 A 
ATOM      2  C   UNL     1       2.434   4.696  20.262  0.00  0.00    +0.000 A 
ATOM      3  N   UNL     1       2.914   3.459  20.555  0.00  0.00    +0.000 NA
ATOM      4  C   UNL     1       3.899   3.255  19.718  0.00  0.00    +0.000 A 
ATOM      5  N   UNL     1       4.683   2.157  19.763  0.00  0.00    +0.000 N 
ATOM      6  N   UNL     1       4.101   4.350  18.863  0.00  0.00    +0.000 N 
ATOM      7  H   UNL     1       4.549   1.577  20.586  0.00  0.00    +0.000 HD
ATOM      8  H   UNL     1       5.660   2.233  19.499  0.00  0.00    +0.000 HD
ENDROOT
BRANCH   6   9
ATOM      9  C   UNL     1       5.124   4.477  17.870  0.00  0.00    +0.000 A 
ATOM     10  C   UNL     1       4.956   3.907  16.599  0.00  0.00    +0.000 A 
ATOM     11  C   UNL     1       5.973   3.990  15.643  0.00  0.00    +0.000 A 
ATOM     12  C   UNL     1       7.154   4.664  15.937  0.00  0.00    +0.000 A 
ATOM     13  C   UNL     1       7.323   5.253  17.188  0.00  0.00    +0.000 A 
ATOM     14  C   UNL     1       6.319   5.153  18.154  0.00  0.00    +0.000 A 
ENDBRANCH   6   9
BRANCH   1  15
ATOM     15  C   UNL     1       2.836   6.545  18.573  0.00  0.00    +0.000 C 
ATOM     16  O   UNL     1       3.090   6.754  17.390  0.00  0.00    +0.000 OA
BRANCH  15  20
ATOM     17  C   UNL     1       0.760   9.732  20.561  0.00  0.00    +0.000 A 
ATOM     18  C   UNL     1       1.119   9.854  19.217  0.00  0.00    +0.000 A 
ATOM     19  C   UNL     1       1.801   8.808  18.596  0.00  0.00    +0.000 A 
ATOM     20  C   UNL     1       2.132   7.644  19.311  0.00  0.00    +0.000 A 
ATOM     21  C   UNL     1       1.823   7.565  20.677  0.00  0.00    +0.000 A 
ATOM     22  C   UNL     1       1.131   8.607  21.302  0.00  0.00    +0.000 A 
BRANCH  17  24
ATOM     23  C   UNL     1      -0.679  10.276  22.865  0.00  0.00    +0.000 C 
ATOM     24  S   UNL     1      -0.175  11.028  21.337  0.00  0.00    +0.000 S 
ATOM     25  O   UNL     1      -1.360  11.256  20.530  0.00  0.00    +0.000 OA
ATOM     26  O   UNL     1       0.742  12.106  21.639  0.00  0.00    +0.000 OA
ENDBRANCH  17  24
ENDBRANCH  15  20
ENDBRANCH   1  15
TORSDOF 4
ENDMDL
