MODEL 1
REMARK VINA RESULT:      -8.7      0.000      0.000
REMARK  Name = 
REMARK  3 active torsions:
REMARK  status: ('A' for Active; 'I' for Inactive)
REMARK    1  A    between atoms: C_2  and  C_18
REMARK    2  A    between atoms: N_3  and  C_4
REMARK    3  A    between atoms: C_7  and  C_8
REMARK                            x       y       z     vdW  Elec       q    Type
REMARK                         _______ _______ _______ _____ _____    ______ ____
ROOT
ATOM      1  C   UNL     1       8.057   7.786  18.374  0.00  0.00    +0.000 A 
ATOM      2  C   UNL     1       7.123   7.887  17.342  0.00  0.00    +0.000 A 
ATOM      3  C   UNL     1       6.302   6.800  17.020  0.00  0.00    +0.000 A 
ATOM      4  C   UNL     1       6.408   5.598  17.726  0.00  0.00    +0.000 A 
ATOM      5  C   UNL     1       7.372   5.483  18.733  0.00  0.00    +0.000 A 
ATOM      6  C   UNL     1       8.171   6.579  19.071  0.00  0.00    +0.000 A 
ENDROOT
BRANCH   4   7
ATOM      7  C   UNL     1       5.579   4.448  17.275  0.00  0.00    +0.000 C 
ATOM      8  O   UNL     1       5.992   3.816  16.302  0.00  0.00    +0.000 OA
ATOM      9  N   UNL     1       4.407   4.098  17.948  0.00  0.00    +0.000 N 
ATOM     10  C   UNL     1       3.823   2.787  17.669  0.00  0.00    +0.000 C 
ATOM     11  C   UNL     1       2.347   2.896  17.307  0.00  0.00    +0.000 C 
ATOM     12  C   UNL     1       1.577   3.660  18.380  0.00  0.00    +0.000 C 
ATOM     13  C   UNL     1       2.211   5.026  18.618  0.00  0.00    +0.000 C 
ATOM     14  C   UNL     1       3.699   4.910  18.939  0.00  0.00    +0.000 C 
ENDBRANCH   4   7
BRANCH   1  17
ATOM     15  O   UNL     1       7.948  10.651  17.706  0.00  0.00    +0.000 OA
ATOM     16  C   UNL     1       8.850  10.152  18.375  0.00  0.00    +0.000 C 
ATOM     17  N   UNL     1       8.937   8.826  18.741  0.00  0.00    +0.000 N 
ATOM     18  H   UNL     1       9.683   8.566  19.373  0.00  0.00    +0.000 HD
BRANCH  16  19
ATOM     19  C   UNL     1       9.961  11.048  18.813  0.00  0.00    +0.000 A 
ATOM     20  C   UNL     1      10.861  11.432  17.798  0.00  0.00    +0.000 A 
ATOM     21  C   UNL     1      11.928  12.290  18.067  0.00  0.00    +0.000 A 
ATOM     22  C   UNL     1      12.113  12.776  19.355  0.00  0.00    +0.000 A 
ATOM     23  C   UNL     1      11.234  12.406  20.373  0.00  0.00    +0.000 A 
ATOM     24  C   UNL     1      10.159  11.545  20.110  0.00  0.00    +0.000 A 
ATOM     25 CL   UNL     1       9.125  11.187  21.451  0.00  0.00    +0.000 Cl
ENDBRANCH  16  19
ENDBRANCH   1  17
TORSDOF 3
ENDMDL
MODEL 2
REMARK VINA RESULT:      -8.6      0.260      1.015
REMARK  Name = 
REMARK  3 active torsions:
REMARK  status: ('A' for Active; 'I' for Inactive)
REMARK    1  A    between atoms: C_2  and  C_18
REMARK    2  A    between atoms: N_3  and  C_4
REMARK    3  A    between atoms: C_7  and  C_8
REMARK                            x       y       z     vdW  Elec       q    Type
REMARK                         _______ _______ _______ _____ _____    ______ ____
ROOT
ATOM      1  C   UNL     1       8.159   7.589  18.476  0.00  0.00    +0.000 A 
ATOM      2  C   UNL     1       8.163   6.341  19.102  0.00  0.00    +0.000 A 
ATOM      3  C   UNL     1       7.325   5.317  18.646  0.00  0.00    +0.000 A 
ATOM      4  C   UNL     1       6.471   5.530  17.561  0.00  0.00    +0.000 A 
ATOM      5  C   UNL     1       6.436   6.792  16.960  0.00  0.00    +0.000 A 
ATOM      6  C   UNL     1       7.294   7.804  17.398  0.00  0.00    +0.000 A 
ENDROOT
BRANCH   4   7
ATOM      7  C   UNL     1       5.534   4.437  17.185  0.00  0.00    +0.000 C 
ATOM      8  O   UNL     1       5.852   3.743  16.218  0.00  0.00    +0.000 OA
ATOM      9  N   UNL     1       4.368   4.204  17.917  0.00  0.00    +0.000 N 
ATOM     10  C   UNL     1       3.670   2.937  17.709  0.00  0.00    +0.000 C 
ATOM     11  C   UNL     1       2.193   3.154  17.404  0.00  0.00    +0.000 C 
ATOM     12  C   UNL     1       1.534   4.012  18.480  0.00  0.00    +0.000 C 
ATOM     13  C   UNL     1       2.285   5.328  18.644  0.00  0.00    +0.000 C 
ATOM     14  C   UNL     1       3.771   5.102  18.907  0.00  0.00    +0.000 C 
ENDBRANCH   4   7
BRANCH   1  17
ATOM     15  O   UNL     1       7.980  10.428  17.717  0.00  0.00    +0.000 OA
ATOM     16  C   UNL     1       8.838   9.990  18.479  0.00  0.00    +0.000 C 
ATOM     17  N   UNL     1       8.953   8.679  18.890  0.00  0.00    +0.000 N 
ATOM     18  H   UNL     1       9.649   8.471  19.594  0.00  0.00    +0.000 HD
BRANCH  16  19
ATOM     19  C   UNL     1       9.862  10.950  18.990  0.00  0.00    +0.000 A 
ATOM     20  C   UNL     1      10.819  11.369  18.044  0.00  0.00    +0.000 A 
ATOM     21  C   UNL     1      11.814  12.286  18.384  0.00  0.00    +0.000 A 
ATOM     22  C   UNL     1      11.869  12.798  19.674  0.00  0.00    +0.000 A 
ATOM     23  C   UNL     1      10.931  12.393  20.624  0.00  0.00    +0.000 A 
ATOM     24  C   UNL     1       9.928  11.472  20.290  0.00  0.00    +0.000 A 
ATOM     25 CL   UNL     1       8.809  11.076  21.550  0.00  0.00    +0.000 Cl
ENDBRANCH  16  19
ENDBRANCH   1  17
TORSDOF 3
ENDMDL
MODEL 3
REMARK VINA RESULT:      -8.1      1.498      1.650
REMARK  Name = 
REMARK  3 active torsions:
REMARK  status: ('A' for Active; 'I' for Inactive)
REMARK    1  A    between atoms: C_2  and  C_18
REMARK    2  A    between atoms: N_3  and  C_4
REMARK    3  A    between atoms: C_7  and  C_8
REMARK                            x       y       z     vdW  Elec       q    Type
REMARK                         _______ _______ _______ _____ _____    ______ ____
ROOT
ATOM      1  C   UNL     1       7.826   8.276  17.816  0.00  0.00    +0.000 A 
ATOM      2  C   UNL     1       6.634   8.149  17.101  0.00  0.00    +0.000 A 
ATOM      3  C   UNL     1       5.878   6.974  17.187  0.00  0.00    +0.000 A 
ATOM      4  C   UNL     1       6.309   5.910  17.985  0.00  0.00    +0.000 A 
ATOM      5  C   UNL     1       7.524   6.021  18.668  0.00  0.00    +0.000 A 
ATOM      6  C   UNL     1       8.262   7.207  18.604  0.00  0.00    +0.000 A 
ENDROOT
BRANCH   4   7
ATOM      7  C   UNL     1       5.516   4.652  17.959  0.00  0.00    +0.000 C 
ATOM      8  O   UNL     1       5.848   3.806  17.128  0.00  0.00    +0.000 OA
ATOM      9  N   UNL     1       4.466   4.444  18.855  0.00  0.00    +0.000 N 
ATOM     10  C   UNL     1       3.948   3.084  19.000  0.00  0.00    +0.000 C 
ATOM     11  C   UNL     1       2.435   3.039  18.832  0.00  0.00    +0.000 C 
ATOM     12  C   UNL     1       1.752   4.025  19.775  0.00  0.00    +0.000 C 
ATOM     13  C   UNL     1       2.310   5.429  19.570  0.00  0.00    +0.000 C 
ATOM     14  C   UNL     1       3.830   5.457  19.698  0.00  0.00    +0.000 C 
ENDBRANCH   4   7
BRANCH   1  17
ATOM     15  O   UNL     1       8.861   9.939  20.013  0.00  0.00    +0.000 OA
ATOM     16  C   UNL     1       9.091  10.174  18.829  0.00  0.00    +0.000 C 
ATOM     17  N   UNL     1       8.657   9.415  17.762  0.00  0.00    +0.000 N 
ATOM     18  H   UNL     1       8.996   9.668  16.844  0.00  0.00    +0.000 HD
BRANCH  16  19
ATOM     19  C   UNL     1       9.887  11.395  18.509  0.00  0.00    +0.000 A 
ATOM     20  C   UNL     1      11.223  11.378  18.959  0.00  0.00    +0.000 A 
ATOM     21  C   UNL     1      12.084  12.446  18.701  0.00  0.00    +0.000 A 
ATOM     22  C   UNL     1      11.623  13.547  17.992  0.00  0.00    +0.000 A 
ATOM     23  C   UNL     1      10.304  13.583  17.540  0.00  0.00    +0.000 A 
ATOM     24  C   UNL     1       9.432  12.514  17.795  0.00  0.00    +0.000 A 
ATOM     25 CL   UNL     1       7.831  12.668  17.156  0.00  0.00    +0.000 Cl
ENDBRANCH  16  19
ENDBRANCH   1  17
TORSDOF 3
ENDMDL
MODEL 4
REMARK VINA RESULT:      -7.9      1.551      1.983
REMARK  Name = 
REMARK  3 active torsions:
REMARK  status: ('A' for Active; 'I' for Inactive)
REMARK    1  A    between atoms: C_2  and  C_18
REMARK    2  A    between atoms: N_3  and  C_4
REMARK    3  A    between atoms: C_7  and  C_8
REMARK                            x       y       z     vdW  Elec       q    Type
REMARK                         _______ _______ _______ _____ _____    ______ ____
ROOT
ATOM      1  C   UNL     1       7.851   8.126  17.789  0.00  0.00    +0.000 A 
ATOM      2  C   UNL     1       8.170   7.020  18.579  0.00  0.00    +0.000 A 
ATOM      3  C   UNL     1       7.338   5.895  18.593  0.00  0.00    +0.000 A 
ATOM      4  C   UNL     1       6.175   5.863  17.819  0.00  0.00    +0.000 A 
ATOM      5  C   UNL     1       5.833   6.986  17.059  0.00  0.00    +0.000 A 
ATOM      6  C   UNL     1       6.680   8.097  17.024  0.00  0.00    +0.000 A 
ENDROOT
BRANCH   4   7
ATOM      7  C   UNL     1       5.281   4.681  17.950  0.00  0.00    +0.000 C 
ATOM      8  O   UNL     1       5.477   3.749  17.170  0.00  0.00    +0.000 OA
ATOM      9  N   UNL     1       4.289   4.635  18.931  0.00  0.00    +0.000 N 
ATOM     10  C   UNL     1       3.673   3.341  19.222  0.00  0.00    +0.000 C 
ATOM     11  C   UNL     1       2.152   3.418  19.164  0.00  0.00    +0.000 C 
ATOM     12  C   UNL     1       1.628   4.529  20.069  0.00  0.00    +0.000 C 
ATOM     13  C   UNL     1       2.283   5.859  19.712  0.00  0.00    +0.000 C 
ATOM     14  C   UNL     1       3.806   5.761  19.731  0.00  0.00    +0.000 C 
ENDBRANCH   4   7
BRANCH   1  17
ATOM     15  O   UNL     1       8.854   9.795  19.996  0.00  0.00    +0.000 OA
ATOM     16  C   UNL     1       9.043  10.064  18.812  0.00  0.00    +0.000 C 
ATOM     17  N   UNL     1       8.622   9.306  17.740  0.00  0.00    +0.000 N 
ATOM     18  H   UNL     1       8.926   9.593  16.819  0.00  0.00    +0.000 HD
BRANCH  16  19
ATOM     19  C   UNL     1       9.771  11.330  18.500  0.00  0.00    +0.000 A 
ATOM     20  C   UNL     1      11.103  11.389  18.958  0.00  0.00    +0.000 A 
ATOM     21  C   UNL     1      11.902  12.504  18.707  0.00  0.00    +0.000 A 
ATOM     22  C   UNL     1      11.383  13.579  17.997  0.00  0.00    +0.000 A 
ATOM     23  C   UNL     1      10.067  13.540  17.537  0.00  0.00    +0.000 A 
ATOM     24  C   UNL     1       9.257  12.422  17.785  0.00  0.00    +0.000 A 
ATOM     25 CL   UNL     1       7.654  12.485  17.135  0.00  0.00    +0.000 Cl
ENDBRANCH  16  19
ENDBRANCH   1  17
TORSDOF 3
ENDMDL
MODEL 5
REMARK VINA RESULT:      -7.7      6.431      8.476
REMARK  Name = 
REMARK  3 active torsions:
REMARK  status: ('A' for Active; 'I' for Inactive)
REMARK    1  A    between atoms: C_2  and  C_18
REMARK    2  A    between atoms: N_3  and  C_4
REMARK    3  A    between atoms: C_7  and  C_8
REMARK                            x       y       z     vdW  Elec       q    Type
REMARK                         _______ _______ _______ _____ _____    ______ ____
ROOT
ATOM      1  C   UNL     1       0.673   9.564  19.665  0.00  0.00    +0.000 A 
ATOM      2  C   UNL     1       1.080   9.583  18.330  0.00  0.00    +0.000 A 
ATOM      3  C   UNL     1       1.944   8.598  17.839  0.00  0.00    +0.000 A 
ATOM      4  C   UNL     1       2.413   7.582  18.678  0.00  0.00    +0.000 A 
ATOM      5  C   UNL     1       2.038   7.587  20.025  0.00  0.00    +0.000 A 
ATOM      6  C   UNL     1       1.153   8.556  20.506  0.00  0.00    +0.000 A 
ENDROOT
BRANCH   4   7
ATOM      7  C   UNL     1       3.404   6.621  18.125  0.00  0.00    +0.000 C 
ATOM      8  O   UNL     1       4.343   7.100  17.488  0.00  0.00    +0.000 OA
ATOM      9  N   UNL     1       3.277   5.249  18.347  0.00  0.00    +0.000 N 
ATOM     10  C   UNL     1       4.435   4.400  18.068  0.00  0.00    +0.000 C 
ATOM     11  C   UNL     1       4.068   3.232  17.161  0.00  0.00    +0.000 C 
ATOM     12  C   UNL     1       2.893   2.445  17.734  0.00  0.00    +0.000 C 
ATOM     13  C   UNL     1       1.707   3.368  17.986  0.00  0.00    +0.000 C 
ATOM     14  C   UNL     1       2.093   4.558  18.860  0.00  0.00    +0.000 C 
ENDBRANCH   4   7
BRANCH   1  17
ATOM     15  O   UNL     1       1.368  11.931  21.272  0.00  0.00    +0.000 OA
ATOM     16  C   UNL     1       0.210  11.614  21.011  0.00  0.00    +0.000 C 
ATOM     17  N   UNL     1      -0.173  10.535  20.242  0.00  0.00    +0.000 N 
ATOM     18  H   UNL     1      -1.157  10.442  20.028  0.00  0.00    +0.000 HD
BRANCH  16  19
ATOM     19  C   UNL     1      -0.882  12.450  21.592  0.00  0.00    +0.000 A 
ATOM     20  C   UNL     1      -1.521  11.904  22.724  0.00  0.00    +0.000 A 
ATOM     21  C   UNL     1      -2.539  12.597  23.381  0.00  0.00    +0.000 A 
ATOM     22  C   UNL     1      -2.936  13.844  22.915  0.00  0.00    +0.000 A 
ATOM     23  C   UNL     1      -2.317  14.399  21.795  0.00  0.00    +0.000 A 
ATOM     24  C   UNL     1      -1.292  13.709  21.130  0.00  0.00    +0.000 A 
ATOM     25 CL   UNL     1      -0.586  14.519  19.773  0.00  0.00    +0.000 Cl
ENDBRANCH  16  19
ENDBRANCH   1  17
TORSDOF 3
ENDMDL
MODEL 6
REMARK VINA RESULT:      -7.7      6.467      8.262
REMARK  Name = 
REMARK  3 active torsions:
REMARK  status: ('A' for Active; 'I' for Inactive)
REMARK    1  A    between atoms: C_2  and  C_18
REMARK    2  A    between atoms: N_3  and  C_4
REMARK    3  A    between atoms: C_7  and  C_8
REMARK                            x       y       z     vdW  Elec       q    Type
REMARK                         _______ _______ _______ _____ _____    ______ ____
ROOT
ATOM      1  C   UNL     1       0.795   9.638  19.468  0.00  0.00    +0.000 A 
ATOM      2  C   UNL     1       1.225   9.520  18.146  0.00  0.00    +0.000 A 
ATOM      3  C   UNL     1       2.046   8.454  17.760  0.00  0.00    +0.000 A 
ATOM      4  C   UNL     1       2.450   7.496  18.694  0.00  0.00    +0.000 A 
ATOM      5  C   UNL     1       2.054   7.637  20.028  0.00  0.00    +0.000 A 
ATOM      6  C   UNL     1       1.211   8.687  20.404  0.00  0.00    +0.000 A 
ENDROOT
BRANCH   4   7
ATOM      7  C   UNL     1       3.402   6.443  18.248  0.00  0.00    +0.000 C 
ATOM      8  O   UNL     1       4.411   6.825  17.655  0.00  0.00    +0.000 OA
ATOM      9  N   UNL     1       3.162   5.095  18.518  0.00  0.00    +0.000 N 
ATOM     10  C   UNL     1       4.269   4.155  18.351  0.00  0.00    +0.000 C 
ATOM     11  C   UNL     1       3.877   2.975  17.471  0.00  0.00    +0.000 C 
ATOM     12  C   UNL     1       2.613   2.299  17.997  0.00  0.00    +0.000 C 
ATOM     13  C   UNL     1       1.484   3.314  18.132  0.00  0.00    +0.000 C 
ATOM     14  C   UNL     1       1.901   4.513  18.980  0.00  0.00    +0.000 C 
ENDBRANCH   4   7
BRANCH   1  17
ATOM     15  O   UNL     1       1.548  11.992  21.069  0.00  0.00    +0.000 OA
ATOM     16  C   UNL     1       0.395  11.764  20.713  0.00  0.00    +0.000 C 
ATOM     17  N   UNL     1      -0.011  10.696  19.941  0.00  0.00    +0.000 N 
ATOM     18  H   UNL     1      -0.976  10.679  19.641  0.00  0.00    +0.000 HD
BRANCH  16  19
ATOM     19  C   UNL     1      -0.667  12.708  21.171  0.00  0.00    +0.000 A 
ATOM     20  C   UNL     1      -0.771  13.904  20.430  0.00  0.00    +0.000 A 
ATOM     21  C   UNL     1      -1.741  14.858  20.736  0.00  0.00    +0.000 A 
ATOM     22  C   UNL     1      -2.621  14.635  21.787  0.00  0.00    +0.000 A 
ATOM     23  C   UNL     1      -2.533  13.459  22.532  0.00  0.00    +0.000 A 
ATOM     24  C   UNL     1      -1.561  12.494  22.231  0.00  0.00    +0.000 A 
ATOM     25 CL   UNL     1      -1.576  11.067  23.210  0.00  0.00    +0.000 Cl
ENDBRANCH  16  19
ENDBRANCH   1  17
TORSDOF 3
ENDMDL
MODEL 7
REMARK VINA RESULT:      -7.7      1.145      1.550
REMARK  Name = 
REMARK  3 active torsions:
REMARK  status: ('A' for Active; 'I' for Inactive)
REMARK    1  A    between atoms: C_2  and  C_18
REMARK    2  A    between atoms: N_3  and  C_4
REMARK    3  A    between atoms: C_7  and  C_8
REMARK                            x       y       z     vdW  Elec       q    Type
REMARK                         _______ _______ _______ _____ _____    ______ ____
ROOT
ATOM      1  C   UNL     1       8.341   8.135  18.512  0.00  0.00    +0.000 A 
ATOM      2  C   UNL     1       8.417   6.909  19.174  0.00  0.00    +0.000 A 
ATOM      3  C   UNL     1       7.658   5.818  18.735  0.00  0.00    +0.000 A 
ATOM      4  C   UNL     1       6.812   5.943  17.629  0.00  0.00    +0.000 A 
ATOM      5  C   UNL     1       6.704   7.182  16.991  0.00  0.00    +0.000 A 
ATOM      6  C   UNL     1       7.485   8.262  17.415  0.00  0.00    +0.000 A 
ENDROOT
BRANCH   4   7
ATOM      7  C   UNL     1       5.957   4.779  17.269  0.00  0.00    +0.000 C 
ATOM      8  O   UNL     1       6.418   3.989  16.445  0.00  0.00    +0.000 OA
ATOM      9  N   UNL     1       4.708   4.592  17.864  0.00  0.00    +0.000 N 
ATOM     10  C   UNL     1       4.071   3.284  17.721  0.00  0.00    +0.000 C 
ATOM     11  C   UNL     1       2.645   3.409  17.200  0.00  0.00    +0.000 C 
ATOM     12  C   UNL     1       1.829   4.363  18.067  0.00  0.00    +0.000 C 
ATOM     13  C   UNL     1       2.523   5.717  18.166  0.00  0.00    +0.000 C 
ATOM     14  C   UNL     1       3.964   5.578  18.649  0.00  0.00    +0.000 C 
ENDBRANCH   4   7
BRANCH   1  17
ATOM     15  O   UNL     1       8.142  10.895  17.505  0.00  0.00    +0.000 OA
ATOM     16  C   UNL     1       8.935  10.556  18.380  0.00  0.00    +0.000 C 
ATOM     17  N   UNL     1       9.052   9.288  18.909  0.00  0.00    +0.000 N 
ATOM     18  H   UNL     1       9.682   9.166  19.692  0.00  0.00    +0.000 HD
BRANCH  16  19
ATOM     19  C   UNL     1       9.869  11.595  18.905  0.00  0.00    +0.000 A 
ATOM     20  C   UNL     1      11.140  11.123  19.291  0.00  0.00    +0.000 A 
ATOM     21  C   UNL     1      12.117  11.995  19.772  0.00  0.00    +0.000 A 
ATOM     22  C   UNL     1      11.840  13.352  19.875  0.00  0.00    +0.000 A 
ATOM     23  C   UNL     1      10.587  13.838  19.500  0.00  0.00    +0.000 A 
ATOM     24  C   UNL     1       9.600  12.968  19.015  0.00  0.00    +0.000 A 
ATOM     25 CL   UNL     1       8.100  13.699  18.555  0.00  0.00    +0.000 Cl
ENDBRANCH  16  19
ENDBRANCH   1  17
TORSDOF 3
ENDMDL
MODEL 8
REMARK VINA RESULT:      -7.7      5.873      8.250
REMARK  Name = 
REMARK  3 active torsions:
REMARK  status: ('A' for Active; 'I' for Inactive)
REMARK    1  A    between atoms: C_2  and  C_18
REMARK    2  A    between atoms: N_3  and  C_4
REMARK    3  A    between atoms: C_7  and  C_8
REMARK                            x       y       z     vdW  Elec       q    Type
REMARK                         _______ _______ _______ _____ _____    ______ ____
ROOT
ATOM      1  C   UNL     1       1.305   8.938  19.769  0.00  0.00    +0.000 A 
ATOM      2  C   UNL     1       1.663   7.771  20.447  0.00  0.00    +0.000 A 
ATOM      3  C   UNL     1       2.341   6.744  19.781  0.00  0.00    +0.000 A 
ATOM      4  C   UNL     1       2.668   6.871  18.428  0.00  0.00    +0.000 A 
ATOM      5  C   UNL     1       2.273   8.021  17.738  0.00  0.00    +0.000 A 
ATOM      6  C   UNL     1       1.620   9.057  18.412  0.00  0.00    +0.000 A 
ENDROOT
BRANCH   4   7
ATOM      7  C   UNL     1       3.301   5.707  17.750  0.00  0.00    +0.000 C 
ATOM      8  O   UNL     1       2.680   4.645  17.780  0.00  0.00    +0.000 OA
ATOM      9  N   UNL     1       4.526   5.836  17.094  0.00  0.00    +0.000 N 
ATOM     10  C   UNL     1       4.931   4.767  16.183  0.00  0.00    +0.000 C 
ATOM     11  C   UNL     1       6.334   4.262  16.499  0.00  0.00    +0.000 C 
ATOM     12  C   UNL     1       7.334   5.414  16.526  0.00  0.00    +0.000 C 
ATOM     13  C   UNL     1       6.879   6.491  17.504  0.00  0.00    +0.000 C 
ATOM     14  C   UNL     1       5.458   6.960  17.207  0.00  0.00    +0.000 C 
ENDBRANCH   4   7
BRANCH   1  17
ATOM     15  O   UNL     1       1.286   9.841  22.571  0.00  0.00    +0.000 OA
ATOM     16  C   UNL     1       0.608  10.367  21.692  0.00  0.00    +0.000 C 
ATOM     17  N   UNL     1       0.598  10.005  20.362  0.00  0.00    +0.000 N 
ATOM     18  H   UNL     1       0.064  10.583  19.726  0.00  0.00    +0.000 HD
BRANCH  16  19
ATOM     19  C   UNL     1      -0.303  11.479  22.096  0.00  0.00    +0.000 A 
ATOM     20  C   UNL     1      -1.422  11.094  22.862  0.00  0.00    +0.000 A 
ATOM     21  C   UNL     1      -2.337  12.039  23.327  0.00  0.00    +0.000 A 
ATOM     22  C   UNL     1      -2.148  13.383  23.035  0.00  0.00    +0.000 A 
ATOM     23  C   UNL     1      -1.048  13.784  22.277  0.00  0.00    +0.000 A 
ATOM     24  C   UNL     1      -0.124  12.840  21.805  0.00  0.00    +0.000 A 
ATOM     25 CL   UNL     1       1.213  13.468  20.903  0.00  0.00    +0.000 Cl
ENDBRANCH  16  19
ENDBRANCH   1  17
TORSDOF 3
ENDMDL
MODEL 9
REMARK VINA RESULT:      -7.7      6.354      8.579
REMARK  Name = 
REMARK  3 active torsions:
REMARK  status: ('A' for Active; 'I' for Inactive)
REMARK    1  A    between atoms: C_2  and  C_18
REMARK    2  A    between atoms: N_3  and  C_4
REMARK    3  A    between atoms: C_7  and  C_8
REMARK                            x       y       z     vdW  Elec       q    Type
REMARK                         _______ _______ _______ _____ _____    ______ ____
ROOT
ATOM      1  C   UNL     1       0.764   9.359  19.895  0.00  0.00    +0.000 A 
ATOM      2  C   UNL     1       1.302   8.306  20.637  0.00  0.00    +0.000 A 
ATOM      3  C   UNL     1       2.193   7.404  20.044  0.00  0.00    +0.000 A 
ATOM      4  C   UNL     1       2.555   7.544  18.701  0.00  0.00    +0.000 A 
ATOM      5  C   UNL     1       1.984   8.574  17.947  0.00  0.00    +0.000 A 
ATOM      6  C   UNL     1       1.117   9.490  18.549  0.00  0.00    +0.000 A 
ENDROOT
BRANCH   4   7
ATOM      7  C   UNL     1       3.427   6.499  18.100  0.00  0.00    +0.000 C 
ATOM      8  O   UNL     1       4.358   6.893  17.396  0.00  0.00    +0.000 OA
ATOM      9  N   UNL     1       3.205   5.144  18.352  0.00  0.00    +0.000 N 
ATOM     10  C   UNL     1       4.270   4.201  18.013  0.00  0.00    +0.000 C 
ATOM     11  C   UNL     1       3.752   3.057  17.150  0.00  0.00    +0.000 C 
ATOM     12  C   UNL     1       2.558   2.374  17.810  0.00  0.00    +0.000 C 
ATOM     13  C   UNL     1       1.468   3.394  18.124  0.00  0.00    +0.000 C 
ATOM     14  C   UNL     1       2.006   4.557  18.952  0.00  0.00    +0.000 C 
ENDBRANCH   4   7
BRANCH   1  17
ATOM     15  O   UNL     1       1.261  11.886  21.322  0.00  0.00    +0.000 OA
ATOM     16  C   UNL     1       0.134  11.453  21.098  0.00  0.00    +0.000 C 
ATOM     17  N   UNL     1      -0.159  10.293  20.412  0.00  0.00    +0.000 N 
ATOM     18  H   UNL     1      -1.132  10.101  20.216  0.00  0.00    +0.000 HD
BRANCH  16  19
ATOM     19  C   UNL     1      -1.023  12.232  21.631  0.00  0.00    +0.000 A 
ATOM     20  C   UNL     1      -1.677  11.657  22.740  0.00  0.00    +0.000 A 
ATOM     21  C   UNL     1      -2.756  12.296  23.351  0.00  0.00    +0.000 A 
ATOM     22  C   UNL     1      -3.199  13.519  22.864  0.00  0.00    +0.000 A 
ATOM     23  C   UNL     1      -2.566  14.103  21.767  0.00  0.00    +0.000 A 
ATOM     24  C   UNL     1      -1.481  13.466  21.147  0.00  0.00    +0.000 A 
ATOM     25 CL   UNL     1      -0.765  14.308  19.815  0.00  0.00    +0.000 Cl
ENDBRANCH  16  19
ENDBRANCH   1  17
TORSDOF 3
ENDMDL
