MODEL 1
REMARK VINA RESULT:      -8.4      0.000      0.000
REMARK  Name = 
REMARK  6 active torsions:
REMARK  status: ('A' for Active; 'I' for Inactive)
REMARK    1  A    between atoms: C_1  and  C_2
REMARK    2  A    between atoms: C_2  and  O_3
REMARK    3  A    between atoms: O_3  and  C_4
REMARK    4  A    between atoms: C_6  and  O_7
REMARK    5  A    between atoms: C_12  and  C_14
REMARK    6  A    between atoms: C_16  and  C_17
REMARK                            x       y       z     vdW  Elec       q    Type
REMARK                         _______ _______ _______ _____ _____    ______ ____
ROOT
ATOM      1  C   UNL     1       2.701   6.968  19.232  0.00  0.00    +0.000 C 
ATOM      2  C   UNL     1       2.128   6.085  20.367  0.00  0.00    +0.000 C 
ATOM      3  C   UNL     1       2.499   4.850  19.520  0.00  0.00    +0.000 C 
ATOM      4  C   UNL     1       3.578   5.734  18.802  0.00  0.00    +0.000 C 
ATOM      5  C   UNL     1       3.697   5.525  17.281  0.00  0.00    +0.000 C 
ATOM      6  C   UNL     1       4.430   4.219  17.026  0.00  0.00    +0.000 C 
ATOM      7  N   UNL     1       5.777   4.331  17.583  0.00  0.00    +0.000 N 
ATOM      8  C   UNL     1       6.972   4.381  16.853  0.00  0.00    +0.000 C 
ATOM      9  O   UNL     1       8.058   4.357  17.434  0.00  0.00    +0.000 OA
ATOM     10  C   UNL     1       5.795   4.484  19.036  0.00  0.00    +0.000 C 
ATOM     11  C   UNL     1       4.980   5.713  19.464  0.00  0.00    +0.000 C 
ENDROOT
BRANCH   8  12
ATOM     12  C   UNL     1       6.917   4.436  15.405  0.00  0.00    +0.000 A 
ATOM     13  C   UNL     1       6.256   3.648  14.487  0.00  0.00    +0.000 A 
ATOM     14  C   UNL     1       6.603   4.200  13.237  0.00  0.00    +0.000 A 
ATOM     15  N   UNL     1       7.452   5.221  13.365  0.00  0.00    +0.000 NA
ATOM     16  O   UNL     1       7.682   5.335  14.724  0.00  0.00    +0.000 OA
BRANCH  14  17
ATOM     17  C   UNL     1       6.128   3.747  11.868  0.00  0.00    +0.000 C 
ATOM     18  C   UNL     1       5.822   2.281  11.638  0.00  0.00    +0.000 C 
ATOM     19  C   UNL     1       4.704   3.266  11.677  0.00  0.00    +0.000 C 
ENDBRANCH  14  17
ENDBRANCH   8  12
BRANCH   3  20
ATOM     20  O   UNL     1       1.428   4.334  18.696  0.00  0.00    +0.000 OA
ATOM     21  H   UNL     1       1.592   4.701  17.807  0.00  0.00    +0.000 HD
ENDBRANCH   3  20
BRANCH   1  22
ATOM     22  O   UNL     1       1.728   7.412  18.252  0.00  0.00    +0.000 OA
BRANCH  22  24
ATOM     23  C   UNL     1       0.894   9.654  18.260  0.00  0.00    +0.000 C 
ATOM     24  C   UNL     1       1.936   8.709  17.699  0.00  0.00    +0.000 C 
ENDBRANCH  22  24
ENDBRANCH   1  22
TORSDOF 5
ENDMDL
MODEL 2
REMARK VINA RESULT:      -7.6      3.437      5.665
REMARK  Name = 
REMARK  6 active torsions:
REMARK  status: ('A' for Active; 'I' for Inactive)
REMARK    1  A    between atoms: C_1  and  C_2
REMARK    2  A    between atoms: C_2  and  O_3
REMARK    3  A    between atoms: O_3  and  C_4
REMARK    4  A    between atoms: C_6  and  O_7
REMARK    5  A    between atoms: C_12  and  C_14
REMARK    6  A    between atoms: C_16  and  C_17
REMARK                            x       y       z     vdW  Elec       q    Type
REMARK                         _______ _______ _______ _____ _____    ______ ____
ROOT
ATOM      1  C   UNL     1       3.566   2.592  18.921  0.00  0.00    +0.000 C 
ATOM      2  C   UNL     1       2.237   2.493  18.133  0.00  0.00    +0.000 C 
ATOM      3  C   UNL     1       2.396   3.988  17.785  0.00  0.00    +0.000 C 
ATOM      4  C   UNL     1       3.939   3.820  18.011  0.00  0.00    +0.000 C 
ATOM      5  C   UNL     1       4.628   4.984  18.748  0.00  0.00    +0.000 C 
ATOM      6  C   UNL     1       4.778   6.148  17.783  0.00  0.00    +0.000 C 
ATOM      7  N   UNL     1       5.640   5.725  16.682  0.00  0.00    +0.000 N 
ATOM      8  C   UNL     1       6.934   6.195  16.417  0.00  0.00    +0.000 C 
ATOM      9  O   UNL     1       7.523   5.852  15.390  0.00  0.00    +0.000 OA
ATOM     10  C   UNL     1       5.067   4.651  15.873  0.00  0.00    +0.000 C 
ATOM     11  C   UNL     1       4.743   3.429  16.744  0.00  0.00    +0.000 C 
ENDROOT
BRANCH   8  12
ATOM     12  C   UNL     1       7.562   7.109  17.352  0.00  0.00    +0.000 A 
ATOM     13  C   UNL     1       7.782   8.468  17.290  0.00  0.00    +0.000 A 
ATOM     14  C   UNL     1       8.441   8.772  18.498  0.00  0.00    +0.000 A 
ATOM     15  N   UNL     1       8.659   7.679  19.232  0.00  0.00    +0.000 NA
ATOM     16  O   UNL     1       8.147   6.632  18.487  0.00  0.00    +0.000 OA
BRANCH  14  17
ATOM     17  C   UNL     1       8.894  10.138  18.979  0.00  0.00    +0.000 C 
ATOM     18  C   UNL     1      10.147  10.754  18.390  0.00  0.00    +0.000 C 
ATOM     19  C   UNL     1       8.816  11.336  18.055  0.00  0.00    +0.000 C 
ENDBRANCH  14  17
ENDBRANCH   8  12
BRANCH   3  20
ATOM     20  O   UNL     1       1.703   4.896  18.671  0.00  0.00    +0.000 OA
ATOM     21  H   UNL     1       1.159   5.456  18.086  0.00  0.00    +0.000 HD
ENDBRANCH   3  20
BRANCH   1  22
ATOM     22  O   UNL     1       3.420   2.885  20.334  0.00  0.00    +0.000 OA
BRANCH  22  24
ATOM     23  C   UNL     1       1.440   3.189  21.641  0.00  0.00    +0.000 C 
ATOM     24  C   UNL     1       2.387   2.183  21.021  0.00  0.00    +0.000 C 
ENDBRANCH  22  24
ENDBRANCH   1  22
TORSDOF 5
ENDMDL
MODEL 3
REMARK VINA RESULT:      -7.2      1.981      3.069
REMARK  Name = 
REMARK  6 active torsions:
REMARK  status: ('A' for Active; 'I' for Inactive)
REMARK    1  A    between atoms: C_1  and  C_2
REMARK    2  A    between atoms: C_2  and  O_3
REMARK    3  A    between atoms: O_3  and  C_4
REMARK    4  A    between atoms: C_6  and  O_7
REMARK    5  A    between atoms: C_12  and  C_14
REMARK    6  A    between atoms: C_16  and  C_17
REMARK                            x       y       z     vdW  Elec       q    Type
REMARK                         _______ _______ _______ _____ _____    ______ ____
ROOT
ATOM      1  C   UNL     1       3.546   5.516  18.442  0.00  0.00    +0.000 C 
ATOM      2  C   UNL     1       4.294   5.233  19.768  0.00  0.00    +0.000 C 
ATOM      3  C   UNL     1       5.101   4.152  19.018  0.00  0.00    +0.000 C 
ATOM      4  C   UNL     1       4.792   4.923  17.686  0.00  0.00    +0.000 C 
ATOM      5  C   UNL     1       4.450   4.036  16.475  0.00  0.00    +0.000 C 
ATOM      6  C   UNL     1       5.733   3.413  15.952  0.00  0.00    +0.000 C 
ATOM      7  N   UNL     1       6.617   4.487  15.503  0.00  0.00    +0.000 N 
ATOM      8  C   UNL     1       6.984   4.755  14.178  0.00  0.00    +0.000 C 
ATOM      9  O   UNL     1       7.831   5.616  13.928  0.00  0.00    +0.000 OA
ATOM     10  C   UNL     1       7.053   5.372  16.581  0.00  0.00    +0.000 C 
ATOM     11  C   UNL     1       5.844   5.993  17.296  0.00  0.00    +0.000 C 
ENDROOT
BRANCH   8  12
ATOM     12  C   UNL     1       6.377   3.992  13.105  0.00  0.00    +0.000 A 
ATOM     13  C   UNL     1       5.125   4.060  12.533  0.00  0.00    +0.000 A 
ATOM     14  C   UNL     1       5.135   3.055  11.545  0.00  0.00    +0.000 A 
ATOM     15  N   UNL     1       6.287   2.381  11.537  0.00  0.00    +0.000 NA
ATOM     16  O   UNL     1       7.044   2.943  12.548  0.00  0.00    +0.000 OA
BRANCH  14  17
ATOM     17  C   UNL     1       4.019   2.705  10.577  0.00  0.00    +0.000 C 
ATOM     18  C   UNL     1       2.580   2.929  10.993  0.00  0.00    +0.000 C 
ATOM     19  C   UNL     1       3.185   3.802   9.948  0.00  0.00    +0.000 C 
ENDBRANCH  14  17
ENDBRANCH   8  12
BRANCH   3  20
ATOM     20  O   UNL     1       4.572   2.811  19.131  0.00  0.00    +0.000 OA
ATOM     21  H   UNL     1       4.717   2.406  18.255  0.00  0.00    +0.000 HD
ENDBRANCH   3  20
BRANCH   1  22
ATOM     22  O   UNL     1       2.307   4.783  18.270  0.00  0.00    +0.000 OA
BRANCH  22  24
ATOM     23  C   UNL     1       1.030   3.123  19.428  0.00  0.00    +0.000 C 
ATOM     24  C   UNL     1       1.543   4.548  19.452  0.00  0.00    +0.000 C 
ENDBRANCH  22  24
ENDBRANCH   1  22
TORSDOF 5
ENDMDL
MODEL 4
REMARK VINA RESULT:      -7.1      2.239      2.759
REMARK  Name = 
REMARK  6 active torsions:
REMARK  status: ('A' for Active; 'I' for Inactive)
REMARK    1  A    between atoms: C_1  and  C_2
REMARK    2  A    between atoms: C_2  and  O_3
REMARK    3  A    between atoms: O_3  and  C_4
REMARK    4  A    between atoms: C_6  and  O_7
REMARK    5  A    between atoms: C_12  and  C_14
REMARK    6  A    between atoms: C_16  and  C_17
REMARK                            x       y       z     vdW  Elec       q    Type
REMARK                         _______ _______ _______ _____ _____    ______ ____
ROOT
ATOM      1  C   UNL     1       2.696   3.918  19.009  0.00  0.00    +0.000 C 
ATOM      2  C   UNL     1       3.165   3.362  20.375  0.00  0.00    +0.000 C 
ATOM      3  C   UNL     1       4.446   2.865  19.671  0.00  0.00    +0.000 C 
ATOM      4  C   UNL     1       4.210   3.969  18.582  0.00  0.00    +0.000 C 
ATOM      5  C   UNL     1       4.487   3.534  17.131  0.00  0.00    +0.000 C 
ATOM      6  C   UNL     1       5.991   3.482  16.918  0.00  0.00    +0.000 C 
ATOM      7  N   UNL     1       6.529   4.827  17.108  0.00  0.00    +0.000 N 
ATOM      8  C   UNL     1       7.080   5.645  16.112  0.00  0.00    +0.000 C 
ATOM      9  O   UNL     1       7.612   6.716  16.410  0.00  0.00    +0.000 OA
ATOM     10  C   UNL     1       6.369   5.332  18.470  0.00  0.00    +0.000 C 
ATOM     11  C   UNL     1       4.889   5.331  18.880  0.00  0.00    +0.000 C 
ENDROOT
BRANCH   8  12
ATOM     12  C   UNL     1       7.040   5.205  14.731  0.00  0.00    +0.000 A 
ATOM     13  C   UNL     1       6.173   4.366  14.065  0.00  0.00    +0.000 A 
ATOM     14  C   UNL     1       6.665   4.328  12.745  0.00  0.00    +0.000 A 
ATOM     15  N   UNL     1       7.781   5.047  12.612  0.00  0.00    +0.000 NA
ATOM     16  O   UNL     1       8.037   5.558  13.871  0.00  0.00    +0.000 OA
BRANCH  14  17
ATOM     17  C   UNL     1       6.074   3.579  11.564  0.00  0.00    +0.000 C 
ATOM     18  C   UNL     1       5.742   2.108  11.710  0.00  0.00    +0.000 C 
ATOM     19  C   UNL     1       4.637   3.102  11.608  0.00  0.00    +0.000 C 
ENDBRANCH  14  17
ENDBRANCH   8  12
BRANCH   3  20
ATOM     20  O   UNL     1       4.400   1.491  19.225  0.00  0.00    +0.000 OA
ATOM     21  H   UNL     1       4.482   0.956  20.037  0.00  0.00    +0.000 HD
ENDBRANCH   3  20
BRANCH   1  22
ATOM     22  O   UNL     1       1.862   3.019  18.235  0.00  0.00    +0.000 OA
BRANCH  22  24
ATOM     23  C   UNL     1       0.296   3.336  20.016  0.00  0.00    +0.000 C 
ATOM     24  C   UNL     1       0.788   2.395  18.936  0.00  0.00    +0.000 C 
ENDBRANCH  22  24
ENDBRANCH   1  22
TORSDOF 5
ENDMDL
MODEL 5
REMARK VINA RESULT:      -6.5      2.117      7.455
REMARK  Name = 
REMARK  6 active torsions:
REMARK  status: ('A' for Active; 'I' for Inactive)
REMARK    1  A    between atoms: C_1  and  C_2
REMARK    2  A    between atoms: C_2  and  O_3
REMARK    3  A    between atoms: O_3  and  C_4
REMARK    4  A    between atoms: C_6  and  O_7
REMARK    5  A    between atoms: C_12  and  C_14
REMARK    6  A    between atoms: C_16  and  C_17
REMARK                            x       y       z     vdW  Elec       q    Type
REMARK                         _______ _______ _______ _____ _____    ______ ____
ROOT
ATOM      1  C   UNL     1       5.541   4.119  15.404  0.00  0.00    +0.000 C 
ATOM      2  C   UNL     1       6.930   3.688  15.933  0.00  0.00    +0.000 C 
ATOM      3  C   UNL     1       6.916   4.942  16.833  0.00  0.00    +0.000 C 
ATOM      4  C   UNL     1       5.349   4.920  16.744  0.00  0.00    +0.000 C 
ATOM      5  C   UNL     1       4.678   6.297  16.584  0.00  0.00    +0.000 C 
ATOM      6  C   UNL     1       4.708   7.011  17.925  0.00  0.00    +0.000 C 
ATOM      7  N   UNL     1       3.930   6.226  18.881  0.00  0.00    +0.000 N 
ATOM      8  C   UNL     1       2.706   6.599  19.454  0.00  0.00    +0.000 C 
ATOM      9  O   UNL     1       2.198   5.909  20.340  0.00  0.00    +0.000 OA
ATOM     10  C   UNL     1       4.500   4.909  19.155  0.00  0.00    +0.000 C 
ATOM     11  C   UNL     1       4.647   4.100  17.858  0.00  0.00    +0.000 C 
ENDROOT
BRANCH   8  12
ATOM     12  C   UNL     1       2.057   7.818  19.012  0.00  0.00    +0.000 A 
ATOM     13  C   UNL     1       1.363   8.785  19.706  0.00  0.00    +0.000 A 
ATOM     14  C   UNL     1       0.972   9.712  18.719  0.00  0.00    +0.000 A 
ATOM     15  N   UNL     1       1.350   9.326  17.499  0.00  0.00    +0.000 NA
ATOM     16  O   UNL     1       1.990   8.114  17.683  0.00  0.00    +0.000 OA
BRANCH  14  17
ATOM     17  C   UNL     1       0.205  11.006  18.925  0.00  0.00    +0.000 C 
ATOM     18  C   UNL     1      -1.302  10.958  19.079  0.00  0.00    +0.000 C 
ATOM     19  C   UNL     1      -0.455  11.296  20.258  0.00  0.00    +0.000 C 
ENDBRANCH  14  17
ENDBRANCH   8  12
BRANCH   3  20
ATOM     20  O   UNL     1       7.582   6.098  16.276  0.00  0.00    +0.000 OA
ATOM     21  H   UNL     1       8.508   6.027  16.577  0.00  0.00    +0.000 HD
ENDBRANCH   3  20
BRANCH   1  22
ATOM     22  O   UNL     1       5.568   4.924  14.197  0.00  0.00    +0.000 OA
BRANCH  22  24
ATOM     23  C   UNL     1       5.820   3.362  12.402  0.00  0.00    +0.000 C 
ATOM     24  C   UNL     1       6.464   4.496  13.174  0.00  0.00    +0.000 C 
ENDBRANCH  22  24
ENDBRANCH   1  22
TORSDOF 5
ENDMDL
MODEL 6
REMARK VINA RESULT:      -6.5      2.495      4.485
REMARK  Name = 
REMARK  6 active torsions:
REMARK  status: ('A' for Active; 'I' for Inactive)
REMARK    1  A    between atoms: C_1  and  C_2
REMARK    2  A    between atoms: C_2  and  O_3
REMARK    3  A    between atoms: O_3  and  C_4
REMARK    4  A    between atoms: C_6  and  O_7
REMARK    5  A    between atoms: C_12  and  C_14
REMARK    6  A    between atoms: C_16  and  C_17
REMARK                            x       y       z     vdW  Elec       q    Type
REMARK                         _______ _______ _______ _____ _____    ______ ____
ROOT
ATOM      1  C   UNL     1       1.467  11.154  19.416  0.00  0.00    +0.000 C 
ATOM      2  C   UNL     1      -0.060  11.130  19.673  0.00  0.00    +0.000 C 
ATOM      3  C   UNL     1      -0.128   9.844  18.823  0.00  0.00    +0.000 C 
ATOM      4  C   UNL     1       1.384   9.603  19.167  0.00  0.00    +0.000 C 
ATOM      5  C   UNL     1       2.251   9.088  18.002  0.00  0.00    +0.000 C 
ATOM      6  C   UNL     1       1.946   7.616  17.784  0.00  0.00    +0.000 C 
ATOM      7  N   UNL     1       2.317   6.885  18.993  0.00  0.00    +0.000 N 
ATOM      8  C   UNL     1       3.372   5.970  19.116  0.00  0.00    +0.000 C 
ATOM      9  O   UNL     1       3.518   5.324  20.155  0.00  0.00    +0.000 OA
ATOM     10  C   UNL     1       1.522   7.253  20.163  0.00  0.00    +0.000 C 
ATOM     11  C   UNL     1       1.634   8.759  20.443  0.00  0.00    +0.000 C 
ENDROOT
BRANCH   8  12
ATOM     12  C   UNL     1       4.275   5.775  17.998  0.00  0.00    +0.000 A 
ATOM     13  C   UNL     1       4.704   4.630  17.362  0.00  0.00    +0.000 A 
ATOM     14  C   UNL     1       5.577   5.093  16.358  0.00  0.00    +0.000 A 
ATOM     15  N   UNL     1       5.721   6.419  16.399  0.00  0.00    +0.000 NA
ATOM     16  O   UNL     1       4.937   6.837  17.459  0.00  0.00    +0.000 OA
BRANCH  14  17
ATOM     17  C   UNL     1       6.317   4.260  15.326  0.00  0.00    +0.000 C 
ATOM     18  C   UNL     1       5.712   4.079  13.949  0.00  0.00    +0.000 C 
ATOM     19  C   UNL     1       6.929   4.923  14.109  0.00  0.00    +0.000 C 
ENDBRANCH  14  17
ENDBRANCH   8  12
BRANCH   3  20
ATOM     20  O   UNL     1      -0.453  10.052  17.430  0.00  0.00    +0.000 OA
ATOM     21  H   UNL     1      -0.350  11.011  17.285  0.00  0.00    +0.000 HD
ENDBRANCH   3  20
BRANCH   1  22
ATOM     22  O   UNL     1       1.883  11.946  18.274  0.00  0.00    +0.000 OA
BRANCH  22  24
ATOM     23  C   UNL     1       2.956  14.084  18.229  0.00  0.00    +0.000 C 
ATOM     24  C   UNL     1       1.638  13.348  18.356  0.00  0.00    +0.000 C 
ENDBRANCH  22  24
ENDBRANCH   1  22
TORSDOF 5
ENDMDL
MODEL 7
REMARK VINA RESULT:      -6.4      3.392      5.633
REMARK  Name = 
REMARK  6 active torsions:
REMARK  status: ('A' for Active; 'I' for Inactive)
REMARK    1  A    between atoms: C_1  and  C_2
REMARK    2  A    between atoms: C_2  and  O_3
REMARK    3  A    between atoms: O_3  and  C_4
REMARK    4  A    between atoms: C_6  and  O_7
REMARK    5  A    between atoms: C_12  and  C_14
REMARK    6  A    between atoms: C_16  and  C_17
REMARK                            x       y       z     vdW  Elec       q    Type
REMARK                         _______ _______ _______ _____ _____    ______ ____
ROOT
ATOM      1  C   UNL     1       3.359   2.989  19.196  0.00  0.00    +0.000 C 
ATOM      2  C   UNL     1       2.177   2.569  18.288  0.00  0.00    +0.000 C 
ATOM      3  C   UNL     1       2.324   3.924  17.564  0.00  0.00    +0.000 C 
ATOM      4  C   UNL     1       3.817   3.956  18.044  0.00  0.00    +0.000 C 
ATOM      5  C   UNL     1       4.328   5.329  18.519  0.00  0.00    +0.000 C 
ATOM      6  C   UNL     1       4.580   6.201  17.300  0.00  0.00    +0.000 C 
ATOM      7  N   UNL     1       5.624   5.574  16.492  0.00  0.00    +0.000 N 
ATOM      8  C   UNL     1       6.921   6.065  16.293  0.00  0.00    +0.000 C 
ATOM      9  O   UNL     1       7.680   5.512  15.495  0.00  0.00    +0.000 OA
ATOM     10  C   UNL     1       5.234   4.278  15.941  0.00  0.00    +0.000 C 
ATOM     11  C   UNL     1       4.829   3.310  17.062  0.00  0.00    +0.000 C 
ENDROOT
BRANCH   8  12
ATOM     12  C   UNL     1       7.352   7.246  17.016  0.00  0.00    +0.000 A 
ATOM     13  C   UNL     1       8.260   7.408  18.041  0.00  0.00    +0.000 A 
ATOM     14  C   UNL     1       8.232   8.789  18.319  0.00  0.00    +0.000 A 
ATOM     15  N   UNL     1       7.340   9.429  17.560  0.00  0.00    +0.000 NA
ATOM     16  O   UNL     1       6.758   8.449  16.777  0.00  0.00    +0.000 OA
BRANCH  14  17
ATOM     17  C   UNL     1       9.067   9.537  19.342  0.00  0.00    +0.000 C 
ATOM     18  C   UNL     1      10.110  10.527  18.867  0.00  0.00    +0.000 C 
ATOM     19  C   UNL     1       8.877  11.027  19.537  0.00  0.00    +0.000 C 
ENDBRANCH  14  17
ENDBRANCH   8  12
BRANCH   3  20
ATOM     20  O   UNL     1       1.460   4.973  18.057  0.00  0.00    +0.000 OA
ATOM     21  H   UNL     1       2.053   5.598  18.514  0.00  0.00    +0.000 HD
ENDBRANCH   3  20
BRANCH   1  22
ATOM     22  O   UNL     1       2.977   3.636  20.437  0.00  0.00    +0.000 OA
BRANCH  22  24
ATOM     23  C   UNL     1       1.193   2.696  21.725  0.00  0.00    +0.000 C 
ATOM     24  C   UNL     1       2.694   2.774  21.537  0.00  0.00    +0.000 C 
ENDBRANCH  22  24
ENDBRANCH   1  22
TORSDOF 5
ENDMDL
MODEL 8
REMARK VINA RESULT:      -6.4      2.095      3.340
REMARK  Name = 
REMARK  6 active torsions:
REMARK  status: ('A' for Active; 'I' for Inactive)
REMARK    1  A    between atoms: C_1  and  C_2
REMARK    2  A    between atoms: C_2  and  O_3
REMARK    3  A    between atoms: O_3  and  C_4
REMARK    4  A    between atoms: C_6  and  O_7
REMARK    5  A    between atoms: C_12  and  C_14
REMARK    6  A    between atoms: C_16  and  C_17
REMARK                            x       y       z     vdW  Elec       q    Type
REMARK                         _______ _______ _______ _____ _____    ______ ____
ROOT
ATOM      1  C   UNL     1       3.325   5.328  18.269  0.00  0.00    +0.000 C 
ATOM      2  C   UNL     1       4.156   5.428  19.571  0.00  0.00    +0.000 C 
ATOM      3  C   UNL     1       5.179   4.469  18.927  0.00  0.00    +0.000 C 
ATOM      4  C   UNL     1       4.655   4.940  17.525  0.00  0.00    +0.000 C 
ATOM      5  C   UNL     1       4.505   3.829  16.469  0.00  0.00    +0.000 C 
ATOM      6  C   UNL     1       5.886   3.456  15.957  0.00  0.00    +0.000 C 
ATOM      7  N   UNL     1       6.470   4.630  15.311  0.00  0.00    +0.000 N 
ATOM      8  C   UNL     1       6.724   4.779  13.941  0.00  0.00    +0.000 C 
ATOM      9  O   UNL     1       7.330   5.768  13.525  0.00  0.00    +0.000 OA
ATOM     10  C   UNL     1       6.708   5.741  16.230  0.00  0.00    +0.000 C 
ATOM     11  C   UNL     1       5.406   6.159  16.927  0.00  0.00    +0.000 C 
ENDROOT
BRANCH   8  12
ATOM     12  C   UNL     1       6.290   3.745  13.023  0.00  0.00    +0.000 A 
ATOM     13  C   UNL     1       6.973   2.701  12.435  0.00  0.00    +0.000 A 
ATOM     14  C   UNL     1       6.007   2.054  11.639  0.00  0.00    +0.000 A 
ATOM     15  N   UNL     1       4.827   2.676  11.688  0.00  0.00    +0.000 NA
ATOM     16  O   UNL     1       5.023   3.763  12.521  0.00  0.00    +0.000 OA
BRANCH  14  17
ATOM     17  C   UNL     1       6.198   0.810  10.791  0.00  0.00    +0.000 C 
ATOM     18  C   UNL     1       6.938  -0.378  11.372  0.00  0.00    +0.000 C 
ATOM     19  C   UNL     1       5.469  -0.471  11.141  0.00  0.00    +0.000 C 
ENDBRANCH  14  17
ENDBRANCH   8  12
BRANCH   3  20
ATOM     20  O   UNL     1       4.995   3.073  19.254  0.00  0.00    +0.000 OA
ATOM     21  H   UNL     1       5.739   2.611  18.826  0.00  0.00    +0.000 HD
ENDBRANCH   3  20
BRANCH   1  22
ATOM     22  O   UNL     1       2.296   4.306  18.277  0.00  0.00    +0.000 OA
BRANCH  22  24
ATOM     23  C   UNL     1       1.344   2.911  19.972  0.00  0.00    +0.000 C 
ATOM     24  C   UNL     1       1.411   4.310  19.395  0.00  0.00    +0.000 C 
ENDBRANCH  22  24
ENDBRANCH   1  22
TORSDOF 5
ENDMDL
MODEL 9
REMARK VINA RESULT:      -6.4      3.371      6.901
REMARK  Name = 
REMARK  6 active torsions:
REMARK  status: ('A' for Active; 'I' for Inactive)
REMARK    1  A    between atoms: C_1  and  C_2
REMARK    2  A    between atoms: C_2  and  O_3
REMARK    3  A    between atoms: O_3  and  C_4
REMARK    4  A    between atoms: C_6  and  O_7
REMARK    5  A    between atoms: C_12  and  C_14
REMARK    6  A    between atoms: C_16  and  C_17
REMARK                            x       y       z     vdW  Elec       q    Type
REMARK                         _______ _______ _______ _____ _____    ______ ____
ROOT
ATOM      1  C   UNL     1       3.796   2.139  19.642  0.00  0.00    +0.000 C 
ATOM      2  C   UNL     1       3.957   1.132  18.478  0.00  0.00    +0.000 C 
ATOM      3  C   UNL     1       3.134   2.098  17.601  0.00  0.00    +0.000 C 
ATOM      4  C   UNL     1       3.577   3.258  18.559  0.00  0.00    +0.000 C 
ATOM      5  C   UNL     1       2.482   4.285  18.903  0.00  0.00    +0.000 C 
ATOM      6  C   UNL     1       2.277   5.196  17.705  0.00  0.00    +0.000 C 
ATOM      7  N   UNL     1       3.524   5.918  17.458  0.00  0.00    +0.000 N 
ATOM      8  C   UNL     1       3.733   7.292  17.636  0.00  0.00    +0.000 C 
ATOM      9  O   UNL     1       4.793   7.811  17.282  0.00  0.00    +0.000 OA
ATOM     10  C   UNL     1       4.633   5.049  17.071  0.00  0.00    +0.000 C 
ATOM     11  C   UNL     1       4.886   3.980  18.145  0.00  0.00    +0.000 C 
ENDROOT
BRANCH   8  12
ATOM     12  C   UNL     1       2.679   8.101  18.217  0.00  0.00    +0.000 A 
ATOM     13  C   UNL     1       1.988   9.188  17.726  0.00  0.00    +0.000 A 
ATOM     14  C   UNL     1       1.098   9.535  18.762  0.00  0.00    +0.000 A 
ATOM     15  N   UNL     1       1.257   8.755  19.833  0.00  0.00    +0.000 NA
ATOM     16  O   UNL     1       2.282   7.887  19.503  0.00  0.00    +0.000 OA
BRANCH  14  17
ATOM     17  C   UNL     1       0.065  10.647  18.753  0.00  0.00    +0.000 C 
ATOM     18  C   UNL     1      -1.380  10.314  18.440  0.00  0.00    +0.000 C 
ATOM     19  C   UNL     1      -1.002  10.704  19.828  0.00  0.00    +0.000 C 
ENDBRANCH  14  17
ENDBRANCH   8  12
BRANCH   3  20
ATOM     20  O   UNL     1       1.719   1.809  17.540  0.00  0.00    +0.000 OA
ATOM     21  H   UNL     1       1.573   1.439  16.649  0.00  0.00    +0.000 HD
ENDBRANCH   3  20
BRANCH   1  22
ATOM     22  O   UNL     1       2.665   1.888  20.516  0.00  0.00    +0.000 OA
BRANCH  22  24
ATOM     23  C   UNL     1       1.157   2.627  22.220  0.00  0.00    +0.000 C 
ATOM     24  C   UNL     1       2.568   2.714  21.674  0.00  0.00    +0.000 C 
ENDBRANCH  22  24
ENDBRANCH   1  22
TORSDOF 5
ENDMDL
