MODEL 1
REMARK VINA RESULT:      -8.3      0.000      0.000
REMARK  Name = 
REMARK  2 active torsions:
REMARK  status: ('A' for Active; 'I' for Inactive)
REMARK    1  A    between atoms: C_6  and  C_7
REMARK    2  A    between atoms: C_10  and  C_11
REMARK                            x       y       z     vdW  Elec       q    Type
REMARK                         _______ _______ _______ _____ _____    ______ ____
ROOT
ATOM      1  C   UNL     1       2.207   6.568  19.719  0.00  0.00    +0.000 A 
ATOM      2  C   UNL     1       3.105   5.994  18.894  0.00  0.00    +0.000 A 
ATOM      3  N   UNL     1       3.533   4.703  19.161  0.00  0.00    +0.000 N 
ATOM      4  C   UNL     1       4.457   3.859  18.570  0.00  0.00    +0.000 A 
ATOM      5  C   UNL     1       4.348   2.688  19.317  0.00  0.00    +0.000 A 
ATOM      6  N   UNL     1       3.441   2.802  20.342  0.00  0.00    +0.000 NA
ATOM      7  C   UNL     1       2.985   4.027  20.226  0.00  0.00    +0.000 A 
ATOM      8  C   UNL     1       2.013   4.696  21.043  0.00  0.00    +0.000 A 
ATOM      9  N   UNL     1       1.642   5.927  20.810  0.00  0.00    +0.000 NA
ENDROOT
BRANCH   1  15
ATOM     10  F   UNL     1       0.260  10.775  21.129  0.00  0.00    +0.000 F 
ATOM     11  C   UNL     1       0.859  10.047  20.178  0.00  0.00    +0.000 A 
ATOM     12  C   UNL     1       1.153  10.634  18.951  0.00  0.00    +0.000 A 
ATOM     13  C   UNL     1       1.783   9.882  17.961  0.00  0.00    +0.000 A 
ATOM     14  C   UNL     1       2.116   8.547  18.208  0.00  0.00    +0.000 A 
ATOM     15  C   UNL     1       1.818   7.959  19.446  0.00  0.00    +0.000 A 
ATOM     16  C   UNL     1       1.186   8.719  20.436  0.00  0.00    +0.000 A 
ENDBRANCH   1  15
BRANCH   4  17
ATOM     17  C   UNL     1       5.302   4.161  17.408  0.00  0.00    +0.000 A 
ATOM     18  C   UNL     1       4.817   4.067  16.095  0.00  0.00    +0.000 A 
ATOM     19  C   UNL     1       5.655   4.280  14.998  0.00  0.00    +0.000 A 
ATOM     20  C   UNL     1       6.980   4.650  15.197  0.00  0.00    +0.000 A 
ATOM     21  C   UNL     1       7.465   4.812  16.492  0.00  0.00    +0.000 A 
ATOM     22  C   UNL     1       6.633   4.565  17.590  0.00  0.00    +0.000 A 
ENDBRANCH   4  17
TORSDOF 2
ENDMDL
MODEL 2
REMARK VINA RESULT:      -8.2      0.080      1.028
REMARK  Name = 
REMARK  2 active torsions:
REMARK  status: ('A' for Active; 'I' for Inactive)
REMARK    1  A    between atoms: C_6  and  C_7
REMARK    2  A    between atoms: C_10  and  C_11
REMARK                            x       y       z     vdW  Elec       q    Type
REMARK                         _______ _______ _______ _____ _____    ______ ____
ROOT
ATOM      1  C   UNL     1       2.246   6.509  19.724  0.00  0.00    +0.000 A 
ATOM      2  C   UNL     1       3.147   5.939  18.900  0.00  0.00    +0.000 A 
ATOM      3  N   UNL     1       3.583   4.651  19.171  0.00  0.00    +0.000 N 
ATOM      4  C   UNL     1       4.512   3.811  18.582  0.00  0.00    +0.000 A 
ATOM      5  C   UNL     1       4.412   2.642  19.332  0.00  0.00    +0.000 A 
ATOM      6  N   UNL     1       3.504   2.753  20.358  0.00  0.00    +0.000 NA
ATOM      7  C   UNL     1       3.041   3.974  20.238  0.00  0.00    +0.000 A 
ATOM      8  C   UNL     1       2.064   4.640  21.054  0.00  0.00    +0.000 A 
ATOM      9  N   UNL     1       1.686   5.868  20.818  0.00  0.00    +0.000 NA
ENDROOT
BRANCH   1  15
ATOM     10  F   UNL     1       0.281  10.711  21.126  0.00  0.00    +0.000 F 
ATOM     11  C   UNL     1       0.880   9.982  20.175  0.00  0.00    +0.000 A 
ATOM     12  C   UNL     1       1.166  10.566  18.945  0.00  0.00    +0.000 A 
ATOM     13  C   UNL     1       1.796   9.814  17.956  0.00  0.00    +0.000 A 
ATOM     14  C   UNL     1       2.138   8.483  18.206  0.00  0.00    +0.000 A 
ATOM     15  C   UNL     1       1.848   7.898  19.448  0.00  0.00    +0.000 A 
ATOM     16  C   UNL     1       1.216   8.657  20.437  0.00  0.00    +0.000 A 
ENDBRANCH   1  15
BRANCH   4  17
ATOM     17  C   UNL     1       5.355   4.116  17.418  0.00  0.00    +0.000 A 
ATOM     18  C   UNL     1       6.698   4.497  17.556  0.00  0.00    +0.000 A 
ATOM     19  C   UNL     1       7.463   4.860  16.444  0.00  0.00    +0.000 A 
ATOM     20  C   UNL     1       6.913   4.792  15.170  0.00  0.00    +0.000 A 
ATOM     21  C   UNL     1       5.601   4.355  15.005  0.00  0.00    +0.000 A 
ATOM     22  C   UNL     1       4.826   4.023  16.122  0.00  0.00    +0.000 A 
ENDBRANCH   4  17
TORSDOF 2
ENDMDL
MODEL 3
REMARK VINA RESULT:      -8.1      0.958      1.406
REMARK  Name = 
REMARK  2 active torsions:
REMARK  status: ('A' for Active; 'I' for Inactive)
REMARK    1  A    between atoms: C_6  and  C_7
REMARK    2  A    between atoms: C_10  and  C_11
REMARK                            x       y       z     vdW  Elec       q    Type
REMARK                         _______ _______ _______ _____ _____    ______ ____
ROOT
ATOM      1  C   UNL     1       2.199   6.267  20.013  0.00  0.00    +0.000 A 
ATOM      2  C   UNL     1       3.090   5.773  19.131  0.00  0.00    +0.000 A 
ATOM      3  N   UNL     1       3.519   4.462  19.273  0.00  0.00    +0.000 N 
ATOM      4  C   UNL     1       4.438   3.677  18.599  0.00  0.00    +0.000 A 
ATOM      5  C   UNL     1       4.335   2.442  19.233  0.00  0.00    +0.000 A 
ATOM      6  N   UNL     1       3.436   2.459  20.272  0.00  0.00    +0.000 NA
ATOM      7  C   UNL     1       2.980   3.689  20.274  0.00  0.00    +0.000 A 
ATOM      8  C   UNL     1       2.014   4.279  21.158  0.00  0.00    +0.000 A 
ATOM      9  N   UNL     1       1.642   5.527  21.044  0.00  0.00    +0.000 NA
ENDROOT
BRANCH   1  15
ATOM     10  F   UNL     1       1.852  10.326  17.390  0.00  0.00    +0.000 F 
ATOM     11  C   UNL     1       1.634   9.680  18.543  0.00  0.00    +0.000 A 
ATOM     12  C   UNL     1       0.991  10.340  19.585  0.00  0.00    +0.000 A 
ATOM     13  C   UNL     1       0.755   9.669  20.783  0.00  0.00    +0.000 A 
ATOM     14  C   UNL     1       1.161   8.340  20.928  0.00  0.00    +0.000 A 
ATOM     15  C   UNL     1       1.809   7.677  19.874  0.00  0.00    +0.000 A 
ATOM     16  C   UNL     1       2.043   8.356  18.673  0.00  0.00    +0.000 A 
ENDBRANCH   1  15
BRANCH   4  17
ATOM     17  C   UNL     1       5.274   4.087  17.463  0.00  0.00    +0.000 A 
ATOM     18  C   UNL     1       4.794   4.067  16.145  0.00  0.00    +0.000 A 
ATOM     19  C   UNL     1       5.627   4.384  15.069  0.00  0.00    +0.000 A 
ATOM     20  C   UNL     1       6.938   4.782  15.297  0.00  0.00    +0.000 A 
ATOM     21  C   UNL     1       7.416   4.871  16.603  0.00  0.00    +0.000 A 
ATOM     22  C   UNL     1       6.591   4.521  17.678  0.00  0.00    +0.000 A 
ENDBRANCH   4  17
TORSDOF 2
ENDMDL
MODEL 4
REMARK VINA RESULT:      -8.0      0.963      1.743
REMARK  Name = 
REMARK  2 active torsions:
REMARK  status: ('A' for Active; 'I' for Inactive)
REMARK    1  A    between atoms: C_6  and  C_7
REMARK    2  A    between atoms: C_10  and  C_11
REMARK                            x       y       z     vdW  Elec       q    Type
REMARK                         _______ _______ _______ _____ _____    ______ ____
ROOT
ATOM      1  C   UNL     1       2.199   6.261  20.015  0.00  0.00    +0.000 A 
ATOM      2  C   UNL     1       3.101   5.772  19.141  0.00  0.00    +0.000 A 
ATOM      3  N   UNL     1       3.531   4.462  19.283  0.00  0.00    +0.000 N 
ATOM      4  C   UNL     1       4.459   3.681  18.616  0.00  0.00    +0.000 A 
ATOM      5  C   UNL     1       4.351   2.443  19.245  0.00  0.00    +0.000 A 
ATOM      6  N   UNL     1       3.441   2.455  20.274  0.00  0.00    +0.000 NA
ATOM      7  C   UNL     1       2.982   3.684  20.275  0.00  0.00    +0.000 A 
ATOM      8  C   UNL     1       2.005   4.269  21.151  0.00  0.00    +0.000 A 
ATOM      9  N   UNL     1       1.632   5.516  21.037  0.00  0.00    +0.000 NA
ENDROOT
BRANCH   1  15
ATOM     10  F   UNL     1       1.840  10.319  17.392  0.00  0.00    +0.000 F 
ATOM     11  C   UNL     1       1.626   9.673  18.545  0.00  0.00    +0.000 A 
ATOM     12  C   UNL     1       0.988  10.333  19.590  0.00  0.00    +0.000 A 
ATOM     13  C   UNL     1       0.757   9.662  20.790  0.00  0.00    +0.000 A 
ATOM     14  C   UNL     1       1.164   8.334  20.933  0.00  0.00    +0.000 A 
ATOM     15  C   UNL     1       1.808   7.671  19.877  0.00  0.00    +0.000 A 
ATOM     16  C   UNL     1       2.037   8.350  18.675  0.00  0.00    +0.000 A 
ENDBRANCH   1  15
BRANCH   4  17
ATOM     17  C   UNL     1       5.307   4.097  17.491  0.00  0.00    +0.000 A 
ATOM     18  C   UNL     1       6.624   4.541  17.681  0.00  0.00    +0.000 A 
ATOM     19  C   UNL     1       7.389   5.008  16.610  0.00  0.00    +0.000 A 
ATOM     20  C   UNL     1       6.871   4.984  15.321  0.00  0.00    +0.000 A 
ATOM     21  C   UNL     1       5.589   4.487  15.102  0.00  0.00    +0.000 A 
ATOM     22  C   UNL     1       4.810   4.050  16.180  0.00  0.00    +0.000 A 
ENDBRANCH   4  17
TORSDOF 2
ENDMDL
MODEL 5
REMARK VINA RESULT:      -7.9      4.351      7.226
REMARK  Name = 
REMARK  2 active torsions:
REMARK  status: ('A' for Active; 'I' for Inactive)
REMARK    1  A    between atoms: C_6  and  C_7
REMARK    2  A    between atoms: C_10  and  C_11
REMARK                            x       y       z     vdW  Elec       q    Type
REMARK                         _______ _______ _______ _____ _____    ______ ____
ROOT
ATOM      1  C   UNL     1       6.216   4.650  15.229  0.00  0.00    +0.000 A 
ATOM      2  C   UNL     1       5.214   4.342  16.075  0.00  0.00    +0.000 A 
ATOM      3  N   UNL     1       5.307   4.744  17.399  0.00  0.00    +0.000 N 
ATOM      4  C   UNL     1       4.510   4.555  18.515  0.00  0.00    +0.000 A 
ATOM      5  C   UNL     1       5.171   5.274  19.509  0.00  0.00    +0.000 A 
ATOM      6  N   UNL     1       6.336   5.845  19.057  0.00  0.00    +0.000 NA
ATOM      7  C   UNL     1       6.390   5.493  17.794  0.00  0.00    +0.000 A 
ATOM      8  C   UNL     1       7.405   5.804  16.826  0.00  0.00    +0.000 A 
ATOM      9  N   UNL     1       7.332   5.389  15.588  0.00  0.00    +0.000 NA
ENDROOT
BRANCH   1  15
ATOM     10  F   UNL     1       3.614   2.947  11.513  0.00  0.00    +0.000 F 
ATOM     11  C   UNL     1       4.799   3.327  12.008  0.00  0.00    +0.000 A 
ATOM     12  C   UNL     1       5.923   3.299  11.188  0.00  0.00    +0.000 A 
ATOM     13  C   UNL     1       7.156   3.702  11.697  0.00  0.00    +0.000 A 
ATOM     14  C   UNL     1       7.254   4.132  13.023  0.00  0.00    +0.000 A 
ATOM     15  C   UNL     1       6.119   4.159  13.846  0.00  0.00    +0.000 A 
ATOM     16  C   UNL     1       4.883   3.754  13.330  0.00  0.00    +0.000 A 
ENDBRANCH   1  15
BRANCH   4  17
ATOM     17  C   UNL     1       3.253   3.799  18.576  0.00  0.00    +0.000 A 
ATOM     18  C   UNL     1       2.071   4.279  17.994  0.00  0.00    +0.000 A 
ATOM     19  C   UNL     1       0.866   3.586  18.130  0.00  0.00    +0.000 A 
ATOM     20  C   UNL     1       0.835   2.369  18.801  0.00  0.00    +0.000 A 
ATOM     21  C   UNL     1       2.010   1.843  19.331  0.00  0.00    +0.000 A 
ATOM     22  C   UNL     1       3.210   2.555  19.223  0.00  0.00    +0.000 A 
ENDBRANCH   4  17
TORSDOF 2
ENDMDL
MODEL 6
REMARK VINA RESULT:      -7.8      4.706      7.658
REMARK  Name = 
REMARK  2 active torsions:
REMARK  status: ('A' for Active; 'I' for Inactive)
REMARK    1  A    between atoms: C_6  and  C_7
REMARK    2  A    between atoms: C_10  and  C_11
REMARK                            x       y       z     vdW  Elec       q    Type
REMARK                         _______ _______ _______ _____ _____    ______ ____
ROOT
ATOM      1  C   UNL     1       6.132   4.424  14.889  0.00  0.00    +0.000 A 
ATOM      2  C   UNL     1       5.194   4.190  15.827  0.00  0.00    +0.000 A 
ATOM      3  N   UNL     1       5.393   4.675  17.111  0.00  0.00    +0.000 N 
ATOM      4  C   UNL     1       4.682   4.574  18.294  0.00  0.00    +0.000 A 
ATOM      5  C   UNL     1       5.427   5.343  19.185  0.00  0.00    +0.000 A 
ATOM      6  N   UNL     1       6.561   5.861  18.610  0.00  0.00    +0.000 NA
ATOM      7  C   UNL     1       6.514   5.427  17.373  0.00  0.00    +0.000 A 
ATOM      8  C   UNL     1       7.455   5.656  16.313  0.00  0.00    +0.000 A 
ATOM      9  N   UNL     1       7.282   5.164  15.115  0.00  0.00    +0.000 NA
ENDROOT
BRANCH   1  15
ATOM     10  F   UNL     1       7.804   2.157  10.947  0.00  0.00    +0.000 F 
ATOM     11  C   UNL     1       6.777   2.703  11.610  0.00  0.00    +0.000 A 
ATOM     12  C   UNL     1       5.506   2.673  11.045  0.00  0.00    +0.000 A 
ATOM     13  C   UNL     1       4.433   3.233  11.736  0.00  0.00    +0.000 A 
ATOM     14  C   UNL     1       4.640   3.817  12.988  0.00  0.00    +0.000 A 
ATOM     15  C   UNL     1       5.923   3.846  13.554  0.00  0.00    +0.000 A 
ATOM     16  C   UNL     1       6.997   3.282  12.856  0.00  0.00    +0.000 A 
ENDBRANCH   1  15
BRANCH   4  17
ATOM     17  C   UNL     1       3.422   3.846  18.500  0.00  0.00    +0.000 A 
ATOM     18  C   UNL     1       3.380   2.613  19.166  0.00  0.00    +0.000 A 
ATOM     19  C   UNL     1       2.187   1.896  19.283  0.00  0.00    +0.000 A 
ATOM     20  C   UNL     1       1.004   2.428  18.786  0.00  0.00    +0.000 A 
ATOM     21  C   UNL     1       1.012   3.681  18.177  0.00  0.00    +0.000 A 
ATOM     22  C   UNL     1       2.214   4.383  18.031  0.00  0.00    +0.000 A 
ENDBRANCH   4  17
TORSDOF 2
ENDMDL
MODEL 7
REMARK VINA RESULT:      -7.8      4.324      7.317
REMARK  Name = 
REMARK  2 active torsions:
REMARK  status: ('A' for Active; 'I' for Inactive)
REMARK    1  A    between atoms: C_6  and  C_7
REMARK    2  A    between atoms: C_10  and  C_11
REMARK                            x       y       z     vdW  Elec       q    Type
REMARK                         _______ _______ _______ _____ _____    ______ ____
ROOT
ATOM      1  C   UNL     1       6.201   4.549  15.107  0.00  0.00    +0.000 A 
ATOM      2  C   UNL     1       5.227   4.270  15.996  0.00  0.00    +0.000 A 
ATOM      3  N   UNL     1       5.365   4.712  17.303  0.00  0.00    +0.000 N 
ATOM      4  C   UNL     1       4.606   4.560  18.450  0.00  0.00    +0.000 A 
ATOM      5  C   UNL     1       5.301   5.307  19.398  0.00  0.00    +0.000 A 
ATOM      6  N   UNL     1       6.451   5.861  18.890  0.00  0.00    +0.000 NA
ATOM      7  C   UNL     1       6.462   5.470  17.637  0.00  0.00    +0.000 A 
ATOM      8  C   UNL     1       7.444   5.748  16.627  0.00  0.00    +0.000 A 
ATOM      9  N   UNL     1       7.329   5.296  15.406  0.00  0.00    +0.000 NA
ENDROOT
BRANCH   1  15
ATOM     10  F   UNL     1       3.449   2.921  11.466  0.00  0.00    +0.000 F 
ATOM     11  C   UNL     1       4.664   3.223  11.943  0.00  0.00    +0.000 A 
ATOM     12  C   UNL     1       5.777   3.075  11.122  0.00  0.00    +0.000 A 
ATOM     13  C   UNL     1       7.041   3.396  11.612  0.00  0.00    +0.000 A 
ATOM     14  C   UNL     1       7.181   3.866  12.920  0.00  0.00    +0.000 A 
ATOM     15  C   UNL     1       6.057   4.015  13.744  0.00  0.00    +0.000 A 
ATOM     16  C   UNL     1       4.789   3.691  13.247  0.00  0.00    +0.000 A 
ENDBRANCH   1  15
BRANCH   4  17
ATOM     17  C   UNL     1       3.350   3.809  18.577  0.00  0.00    +0.000 A 
ATOM     18  C   UNL     1       3.310   2.524  19.138  0.00  0.00    +0.000 A 
ATOM     19  C   UNL     1       2.121   1.791  19.179  0.00  0.00    +0.000 A 
ATOM     20  C   UNL     1       0.940   2.354  18.710  0.00  0.00    +0.000 A 
ATOM     21  C   UNL     1       0.946   3.653  18.207  0.00  0.00    +0.000 A 
ATOM     22  C   UNL     1       2.144   4.373  18.137  0.00  0.00    +0.000 A 
ENDBRANCH   4  17
TORSDOF 2
ENDMDL
MODEL 8
REMARK VINA RESULT:      -7.8      4.757      7.632
REMARK  Name = 
REMARK  2 active torsions:
REMARK  status: ('A' for Active; 'I' for Inactive)
REMARK    1  A    between atoms: C_6  and  C_7
REMARK    2  A    between atoms: C_10  and  C_11
REMARK                            x       y       z     vdW  Elec       q    Type
REMARK                         _______ _______ _______ _____ _____    ______ ____
ROOT
ATOM      1  C   UNL     1       6.120   4.415  14.880  0.00  0.00    +0.000 A 
ATOM      2  C   UNL     1       5.174   4.180  15.811  0.00  0.00    +0.000 A 
ATOM      3  N   UNL     1       5.366   4.659  17.098  0.00  0.00    +0.000 N 
ATOM      4  C   UNL     1       4.646   4.556  18.276  0.00  0.00    +0.000 A 
ATOM      5  C   UNL     1       5.387   5.319  19.175  0.00  0.00    +0.000 A 
ATOM      6  N   UNL     1       6.527   5.837  18.609  0.00  0.00    +0.000 NA
ATOM      7  C   UNL     1       6.487   5.407  17.370  0.00  0.00    +0.000 A 
ATOM      8  C   UNL     1       7.436   5.638  16.317  0.00  0.00    +0.000 A 
ATOM      9  N   UNL     1       7.270   5.151  15.116  0.00  0.00    +0.000 NA
ENDROOT
BRANCH   1  15
ATOM     10  F   UNL     1       7.815   2.171  10.935  0.00  0.00    +0.000 F 
ATOM     11  C   UNL     1       6.783   2.711  11.596  0.00  0.00    +0.000 A 
ATOM     12  C   UNL     1       5.515   2.680  11.025  0.00  0.00    +0.000 A 
ATOM     13  C   UNL     1       4.437   3.234  11.714  0.00  0.00    +0.000 A 
ATOM     14  C   UNL     1       4.637   3.813  12.969  0.00  0.00    +0.000 A 
ATOM     15  C   UNL     1       5.918   3.842  13.541  0.00  0.00    +0.000 A 
ATOM     16  C   UNL     1       6.996   3.285  12.846  0.00  0.00    +0.000 A 
ENDBRANCH   1  15
BRANCH   4  17
ATOM     17  C   UNL     1       3.384   3.831  18.470  0.00  0.00    +0.000 A 
ATOM     18  C   UNL     1       2.186   4.258  17.878  0.00  0.00    +0.000 A 
ATOM     19  C   UNL     1       0.979   3.604  18.136  0.00  0.00    +0.000 A 
ATOM     20  C   UNL     1       0.960   2.475  18.947  0.00  0.00    +0.000 A 
ATOM     21  C   UNL     1       2.148   1.996  19.493  0.00  0.00    +0.000 A 
ATOM     22  C   UNL     1       3.351   2.672  19.259  0.00  0.00    +0.000 A 
ENDBRANCH   4  17
TORSDOF 2
ENDMDL
MODEL 9
REMARK VINA RESULT:      -7.8      3.363      7.650
REMARK  Name = 
REMARK  2 active torsions:
REMARK  status: ('A' for Active; 'I' for Inactive)
REMARK    1  A    between atoms: C_6  and  C_7
REMARK    2  A    between atoms: C_10  and  C_11
REMARK                            x       y       z     vdW  Elec       q    Type
REMARK                         _______ _______ _______ _____ _____    ______ ____
ROOT
ATOM      1  C   UNL     1       2.560   6.181  19.235  0.00  0.00    +0.000 A 
ATOM      2  C   UNL     1       1.869   7.164  19.846  0.00  0.00    +0.000 A 
ATOM      3  N   UNL     1       1.803   8.412  19.245  0.00  0.00    +0.000 N 
ATOM      4  C   UNL     1       1.242   9.623  19.611  0.00  0.00    +0.000 A 
ATOM      5  C   UNL     1       1.504  10.444  18.517  0.00  0.00    +0.000 A 
ATOM      6  N   UNL     1       2.223   9.801  17.539  0.00  0.00    +0.000 NA
ATOM      7  C   UNL     1       2.396   8.592  18.018  0.00  0.00    +0.000 A 
ATOM      8  C   UNL     1       3.091   7.488  17.417  0.00  0.00    +0.000 A 
ATOM      9  N   UNL     1       3.184   6.325  18.006  0.00  0.00    +0.000 NA
ENDROOT
BRANCH   1  15
ATOM     10  F   UNL     1       4.751   1.916  19.928  0.00  0.00    +0.000 F 
ATOM     11  C   UNL     1       3.782   2.778  20.261  0.00  0.00    +0.000 A 
ATOM     12  C   UNL     1       2.910   2.459  21.297  0.00  0.00    +0.000 A 
ATOM     13  C   UNL     1       1.906   3.357  21.653  0.00  0.00    +0.000 A 
ATOM     14  C   UNL     1       1.783   4.569  20.969  0.00  0.00    +0.000 A 
ATOM     15  C   UNL     1       2.664   4.887  19.925  0.00  0.00    +0.000 A 
ATOM     16  C   UNL     1       3.671   3.982  19.573  0.00  0.00    +0.000 A 
ENDBRANCH   1  15
BRANCH   4  17
ATOM     17  C   UNL     1       0.519   9.912  20.857  0.00  0.00    +0.000 A 
ATOM     18  C   UNL     1       0.748   9.183  22.033  0.00  0.00    +0.000 A 
ATOM     19  C   UNL     1      -0.004   9.417  23.186  0.00  0.00    +0.000 A 
ATOM     20  C   UNL     1      -0.960  10.426  23.200  0.00  0.00    +0.000 A 
ATOM     21  C   UNL     1      -1.159  11.204  22.062  0.00  0.00    +0.000 A 
ATOM     22  C   UNL     1      -0.428  10.946  20.897  0.00  0.00    +0.000 A 
ENDBRANCH   4  17
TORSDOF 2
ENDMDL
