MODEL 1
REMARK VINA RESULT:      -7.7      0.000      0.000
REMARK  Name = 
REMARK  6 active torsions:
REMARK  status: ('A' for Active; 'I' for Inactive)
REMARK    1  A    between atoms: C_2  and  C_3
REMARK    2  A    between atoms: C_3  and  N_4
REMARK    3  A    between atoms: C_5  and  C_7
REMARK    4  A    between atoms: N_13  and  C_14
REMARK    5  A    between atoms: N_17  and  C_18
REMARK    6  A    between atoms: C_18  and  C_19
REMARK                            x       y       z     vdW  Elec       q    Type
REMARK                         _______ _______ _______ _____ _____    ______ ____
ROOT
ATOM      1  O   UNL     1       2.555   9.028  17.026  0.00  0.00    +0.000 OA
ATOM      2  C   UNL     1       1.968   8.771  18.071  0.00  0.00    +0.000 C 
ATOM      3  N   UNL     1       1.987   7.534  18.683  0.00  0.00    +0.000 N 
ATOM      4  H   UNL     1       1.766   7.529  19.679  0.00  0.00    +0.000 HD
ENDROOT
BRANCH   3   5
ATOM      5  C   UNL     1       2.670   6.372  18.111  0.00  0.00    +0.000 C 
ATOM      6  C   UNL     1       2.117   5.071  18.689  0.00  0.00    +0.000 C 
ATOM      7  C   UNL     1       2.921   4.945  19.968  0.00  0.00    +0.000 C 
ATOM      8  N   UNL     1       4.309   5.252  19.564  0.00  0.00    +0.000 NA
ATOM      9  C   UNL     1       4.162   6.312  18.531  0.00  0.00    +0.000 C 
BRANCH   8  10
ATOM     10  C   UNL     1       4.941   4.027  19.036  0.00  0.00    +0.000 C 
BRANCH  10  11
ATOM     11  C   UNL     1       5.576   4.169  17.669  0.00  0.00    +0.000 A 
ATOM     12  C   UNL     1       4.848   3.892  16.505  0.00  0.00    +0.000 A 
ATOM     13  C   UNL     1       5.412   4.134  15.247  0.00  0.00    +0.000 A 
ATOM     14  C   UNL     1       6.701   4.651  15.152  0.00  0.00    +0.000 A 
ATOM     15 CL   UNL     1       7.378   4.997  13.607  0.00  0.00    +0.000 Cl
ATOM     16  C   UNL     1       7.444   4.908  16.299  0.00  0.00    +0.000 A 
ATOM     17  C   UNL     1       6.882   4.668  17.554  0.00  0.00    +0.000 A 
ENDBRANCH  10  11
ENDBRANCH   8  10
ENDBRANCH   3   5
BRANCH   2  18
ATOM     18  C   UNL     1       1.183   9.829  18.848  0.00  0.00    +0.000 C 
BRANCH  18  19
ATOM     19  N   UNL     1      -0.063  10.156  18.188  0.00  0.00    +0.000 N 
ATOM     20  C   UNL     1      -1.116  10.689  18.896  0.00  0.00    +0.000 C 
ATOM     21  O   UNL     1      -1.036  10.971  20.088  0.00  0.00    +0.000 OA
ATOM     22  H   UNL     1      -0.056  10.224  17.178  0.00  0.00    +0.000 HD
BRANCH  20  23
ATOM     23  C   UNL     1      -2.361  10.956  18.126  0.00  0.00    +0.000 A 
ATOM     24  C   UNL     1      -3.447  11.641  18.689  0.00  0.00    +0.000 A 
ATOM     25  C   UNL     1      -4.601  11.862  17.933  0.00  0.00    +0.000 A 
ATOM     26  C   UNL     1      -4.670  11.408  16.616  0.00  0.00    +0.000 A 
ATOM     27  C   UNL     1      -3.582  10.749  16.044  0.00  0.00    +0.000 A 
ATOM     28  C   UNL     1      -2.426  10.531  16.795  0.00  0.00    +0.000 A 
ENDBRANCH  20  23
ENDBRANCH  18  19
ENDBRANCH   2  18
TORSDOF 6
ENDMDL
MODEL 2
REMARK VINA RESULT:      -7.6      2.421      3.101
REMARK  Name = 
REMARK  6 active torsions:
REMARK  status: ('A' for Active; 'I' for Inactive)
REMARK    1  A    between atoms: C_2  and  C_3
REMARK    2  A    between atoms: C_3  and  N_4
REMARK    3  A    between atoms: C_5  and  C_7
REMARK    4  A    between atoms: N_13  and  C_14
REMARK    5  A    between atoms: N_17  and  C_18
REMARK    6  A    between atoms: C_18  and  C_19
REMARK                            x       y       z     vdW  Elec       q    Type
REMARK                         _______ _______ _______ _____ _____    ______ ____
ROOT
ATOM      1  O   UNL     1       1.425   8.768  19.474  0.00  0.00    +0.000 OA
ATOM      2  C   UNL     1       1.531   8.219  20.565  0.00  0.00    +0.000 C 
ATOM      3  N   UNL     1       1.899   6.899  20.733  0.00  0.00    +0.000 N 
ATOM      4  H   UNL     1       2.278   6.658  21.649  0.00  0.00    +0.000 HD
ENDROOT
BRANCH   3   5
ATOM      5  C   UNL     1       2.147   5.992  19.611  0.00  0.00    +0.000 C 
ATOM      6  C   UNL     1       1.707   4.569  19.948  0.00  0.00    +0.000 C 
ATOM      7  C   UNL     1       2.928   4.042  20.677  0.00  0.00    +0.000 C 
ATOM      8  N   UNL     1       4.069   4.476  19.845  0.00  0.00    +0.000 NA
ATOM      9  C   UNL     1       3.662   5.812  19.335  0.00  0.00    +0.000 C 
BRANCH   8  10
ATOM     10  C   UNL     1       4.281   3.494  18.763  0.00  0.00    +0.000 C 
BRANCH  10  11
ATOM     11  C   UNL     1       5.074   4.003  17.578  0.00  0.00    +0.000 A 
ATOM     12  C   UNL     1       6.423   4.353  17.712  0.00  0.00    +0.000 A 
ATOM     13  C   UNL     1       7.173   4.715  16.586  0.00  0.00    +0.000 A 
ATOM     14  C   UNL     1       6.573   4.728  15.329  0.00  0.00    +0.000 A 
ATOM     15 CL   UNL     1       7.506   5.123  13.936  0.00  0.00    +0.000 Cl
ATOM     16  C   UNL     1       5.229   4.406  15.186  0.00  0.00    +0.000 A 
ATOM     17  C   UNL     1       4.481   4.044  16.307  0.00  0.00    +0.000 A 
ENDBRANCH  10  11
ENDBRANCH   8  10
ENDBRANCH   3   5
BRANCH   2  18
ATOM     18  C   UNL     1       1.316   8.969  21.881  0.00  0.00    +0.000 C 
BRANCH  18  19
ATOM     19  N   UNL     1       0.059   9.687  21.882  0.00  0.00    +0.000 N 
ATOM     20  C   UNL     1       0.033  11.059  21.771  0.00  0.00    +0.000 C 
ATOM     21  O   UNL     1       1.048  11.729  21.607  0.00  0.00    +0.000 OA
ATOM     22  H   UNL     1      -0.785   9.157  21.708  0.00  0.00    +0.000 HD
BRANCH  20  23
ATOM     23  C   UNL     1      -1.310  11.699  21.816  0.00  0.00    +0.000 A 
ATOM     24  C   UNL     1      -1.912  12.235  20.670  0.00  0.00    +0.000 A 
ATOM     25  C   UNL     1      -3.171  12.835  20.758  0.00  0.00    +0.000 A 
ATOM     26  C   UNL     1      -3.832  12.895  21.985  0.00  0.00    +0.000 A 
ATOM     27  C   UNL     1      -3.247  12.340  23.123  0.00  0.00    +0.000 A 
ATOM     28  C   UNL     1      -1.992  11.735  23.038  0.00  0.00    +0.000 A 
ENDBRANCH  20  23
ENDBRANCH  18  19
ENDBRANCH   2  18
TORSDOF 6
ENDMDL
MODEL 3
REMARK VINA RESULT:      -7.6      6.137      8.779
REMARK  Name = 
REMARK  6 active torsions:
REMARK  status: ('A' for Active; 'I' for Inactive)
REMARK    1  A    between atoms: C_2  and  C_3
REMARK    2  A    between atoms: C_3  and  N_4
REMARK    3  A    between atoms: C_5  and  C_7
REMARK    4  A    between atoms: N_13  and  C_14
REMARK    5  A    between atoms: N_17  and  C_18
REMARK    6  A    between atoms: C_18  and  C_19
REMARK                            x       y       z     vdW  Elec       q    Type
REMARK                         _______ _______ _______ _____ _____    ______ ____
ROOT
ATOM      1  O   UNL     1       8.648   7.712  18.901  0.00  0.00    +0.000 OA
ATOM      2  C   UNL     1       8.061   8.175  17.929  0.00  0.00    +0.000 C 
ATOM      3  N   UNL     1       7.034   7.532  17.268  0.00  0.00    +0.000 N 
ATOM      4  H   UNL     1       6.415   8.131  16.722  0.00  0.00    +0.000 HD
ENDROOT
BRANCH   3   5
ATOM      5  C   UNL     1       6.573   6.189  17.627  0.00  0.00    +0.000 C 
ATOM      6  C   UNL     1       7.125   5.143  16.662  0.00  0.00    +0.000 C 
ATOM      7  C   UNL     1       6.117   5.215  15.532  0.00  0.00    +0.000 C 
ATOM      8  N   UNL     1       4.804   5.234  16.210  0.00  0.00    +0.000 NA
ATOM      9  C   UNL     1       5.041   6.034  17.441  0.00  0.00    +0.000 C 
BRANCH   8  10
ATOM     10  C   UNL     1       4.391   3.848  16.503  0.00  0.00    +0.000 C 
BRANCH  10  11
ATOM     11  C   UNL     1       3.608   3.667  17.787  0.00  0.00    +0.000 A 
ATOM     12  C   UNL     1       2.238   3.948  17.841  0.00  0.00    +0.000 A 
ATOM     13  C   UNL     1       1.506   3.671  19.002  0.00  0.00    +0.000 A 
ATOM     14  C   UNL     1       2.145   3.114  20.107  0.00  0.00    +0.000 A 
ATOM     15 CL   UNL     1       1.238   2.725  21.518  0.00  0.00    +0.000 Cl
ATOM     16  C   UNL     1       3.510   2.852  20.075  0.00  0.00    +0.000 A 
ATOM     17  C   UNL     1       4.240   3.128  18.918  0.00  0.00    +0.000 A 
ENDBRANCH  10  11
ENDBRANCH   8  10
ENDBRANCH   3   5
BRANCH   2  18
ATOM     18  C   UNL     1       8.376   9.565  17.371  0.00  0.00    +0.000 C 
BRANCH  18  19
ATOM     19  N   UNL     1       8.523  10.540  18.431  0.00  0.00    +0.000 N 
ATOM     20  C   UNL     1       9.635  11.348  18.493  0.00  0.00    +0.000 C 
ATOM     21  O   UNL     1      10.514  11.332  17.637  0.00  0.00    +0.000 OA
ATOM     22  H   UNL     1       7.696  10.787  18.959  0.00  0.00    +0.000 HD
BRANCH  20  23
ATOM     23  C   UNL     1       9.700  12.292  19.642  0.00  0.00    +0.000 A 
ATOM     24  C   UNL     1      10.008  13.649  19.468  0.00  0.00    +0.000 A 
ATOM     25  C   UNL     1      10.067  14.499  20.576  0.00  0.00    +0.000 A 
ATOM     26  C   UNL     1       9.815  13.999  21.854  0.00  0.00    +0.000 A 
ATOM     27  C   UNL     1       9.483  12.655  22.027  0.00  0.00    +0.000 A 
ATOM     28  C   UNL     1       9.418  11.805  20.923  0.00  0.00    +0.000 A 
ENDBRANCH  20  23
ENDBRANCH  18  19
ENDBRANCH   2  18
TORSDOF 6
ENDMDL
MODEL 4
REMARK VINA RESULT:      -7.6      6.156      8.740
REMARK  Name = 
REMARK  6 active torsions:
REMARK  status: ('A' for Active; 'I' for Inactive)
REMARK    1  A    between atoms: C_2  and  C_3
REMARK    2  A    between atoms: C_3  and  N_4
REMARK    3  A    between atoms: C_5  and  C_7
REMARK    4  A    between atoms: N_13  and  C_14
REMARK    5  A    between atoms: N_17  and  C_18
REMARK    6  A    between atoms: C_18  and  C_19
REMARK                            x       y       z     vdW  Elec       q    Type
REMARK                         _______ _______ _______ _____ _____    ______ ____
ROOT
ATOM      1  O   UNL     1       8.603   7.583  18.892  0.00  0.00    +0.000 OA
ATOM      2  C   UNL     1       8.001   8.063  17.937  0.00  0.00    +0.000 C 
ATOM      3  N   UNL     1       7.000   7.411  17.247  0.00  0.00    +0.000 N 
ATOM      4  H   UNL     1       6.361   8.009  16.723  0.00  0.00    +0.000 HD
ENDROOT
BRANCH   3   5
ATOM      5  C   UNL     1       6.588   6.038  17.549  0.00  0.00    +0.000 C 
ATOM      6  C   UNL     1       7.167   5.056  16.534  0.00  0.00    +0.000 C 
ATOM      7  C   UNL     1       6.147   5.143  15.416  0.00  0.00    +0.000 C 
ATOM      8  N   UNL     1       4.840   5.087  16.104  0.00  0.00    +0.000 NA
ATOM      9  C   UNL     1       5.061   5.839  17.368  0.00  0.00    +0.000 C 
BRANCH   8  10
ATOM     10  C   UNL     1       4.476   3.676  16.338  0.00  0.00    +0.000 C 
BRANCH  10  11
ATOM     11  C   UNL     1       3.626   3.426  17.565  0.00  0.00    +0.000 A 
ATOM     12  C   UNL     1       4.197   2.956  18.753  0.00  0.00    +0.000 A 
ATOM     13  C   UNL     1       3.419   2.836  19.911  0.00  0.00    +0.000 A 
ATOM     14  C   UNL     1       2.071   3.184  19.880  0.00  0.00    +0.000 A 
ATOM     15 CL   UNL     1       1.124   3.086  21.315  0.00  0.00    +0.000 Cl
ATOM     16  C   UNL     1       1.485   3.630  18.701  0.00  0.00    +0.000 A 
ATOM     17  C   UNL     1       2.261   3.750  17.546  0.00  0.00    +0.000 A 
ENDBRANCH  10  11
ENDBRANCH   8  10
ENDBRANCH   3   5
BRANCH   2  18
ATOM     18  C   UNL     1       8.266   9.485  17.438  0.00  0.00    +0.000 C 
BRANCH  18  19
ATOM     19  N   UNL     1       8.415  10.414  18.538  0.00  0.00    +0.000 N 
ATOM     20  C   UNL     1       9.480  11.285  18.584  0.00  0.00    +0.000 C 
ATOM     21  O   UNL     1      10.309  11.364  17.683  0.00  0.00    +0.000 OA
ATOM     22  H   UNL     1       7.606  10.584  19.122  0.00  0.00    +0.000 HD
BRANCH  20  23
ATOM     23  C   UNL     1       9.555  12.172  19.776  0.00  0.00    +0.000 A 
ATOM     24  C   UNL     1       9.216  11.719  21.059  0.00  0.00    +0.000 A 
ATOM     25  C   UNL     1       9.292  12.590  22.149  0.00  0.00    +0.000 A 
ATOM     26  C   UNL     1       9.710  13.907  21.964  0.00  0.00    +0.000 A 
ATOM     27  C   UNL     1      10.072  14.355  20.693  0.00  0.00    +0.000 A 
ATOM     28  C   UNL     1      10.003  13.487  19.602  0.00  0.00    +0.000 A 
ENDBRANCH  20  23
ENDBRANCH  18  19
ENDBRANCH   2  18
TORSDOF 6
ENDMDL
MODEL 5
REMARK VINA RESULT:      -7.6      2.456      3.030
REMARK  Name = 
REMARK  6 active torsions:
REMARK  status: ('A' for Active; 'I' for Inactive)
REMARK    1  A    between atoms: C_2  and  C_3
REMARK    2  A    between atoms: C_3  and  N_4
REMARK    3  A    between atoms: C_5  and  C_7
REMARK    4  A    between atoms: N_13  and  C_14
REMARK    5  A    between atoms: N_17  and  C_18
REMARK    6  A    between atoms: C_18  and  C_19
REMARK                            x       y       z     vdW  Elec       q    Type
REMARK                         _______ _______ _______ _____ _____    ______ ____
ROOT
ATOM      1  O   UNL     1       1.747   8.550  19.256  0.00  0.00    +0.000 OA
ATOM      2  C   UNL     1       1.641   7.975  20.334  0.00  0.00    +0.000 C 
ATOM      3  N   UNL     1       1.813   6.616  20.505  0.00  0.00    +0.000 N 
ATOM      4  H   UNL     1       2.038   6.314  21.453  0.00  0.00    +0.000 HD
ENDROOT
BRANCH   3   5
ATOM      5  C   UNL     1       2.085   5.701  19.395  0.00  0.00    +0.000 C 
ATOM      6  C   UNL     1       1.934   4.247  19.833  0.00  0.00    +0.000 C 
ATOM      7  C   UNL     1       3.301   3.969  20.429  0.00  0.00    +0.000 C 
ATOM      8  N   UNL     1       4.252   4.539  19.452  0.00  0.00    +0.000 NA
ATOM      9  C   UNL     1       3.569   5.759  18.947  0.00  0.00    +0.000 C 
BRANCH   8  10
ATOM     10  C   UNL     1       4.505   3.547  18.389  0.00  0.00    +0.000 C 
BRANCH  10  11
ATOM     11  C   UNL     1       5.277   4.067  17.195  0.00  0.00    +0.000 A 
ATOM     12  C   UNL     1       6.583   4.549  17.336  0.00  0.00    +0.000 A 
ATOM     13  C   UNL     1       7.323   4.922  16.207  0.00  0.00    +0.000 A 
ATOM     14  C   UNL     1       6.756   4.814  14.940  0.00  0.00    +0.000 A 
ATOM     15 CL   UNL     1       7.681   5.224  13.546  0.00  0.00    +0.000 Cl
ATOM     16  C   UNL     1       5.451   4.360  14.787  0.00  0.00    +0.000 A 
ATOM     17  C   UNL     1       4.713   3.987  15.912  0.00  0.00    +0.000 A 
ENDBRANCH  10  11
ENDBRANCH   8  10
ENDBRANCH   3   5
BRANCH   2  18
ATOM     18  C   UNL     1       1.356   8.727  21.636  0.00  0.00    +0.000 C 
BRANCH  18  19
ATOM     19  N   UNL     1       0.368   9.768  21.441  0.00  0.00    +0.000 N 
ATOM     20  C   UNL     1      -0.304  10.309  22.512  0.00  0.00    +0.000 C 
ATOM     21  O   UNL     1      -0.064   9.991  23.673  0.00  0.00    +0.000 OA
ATOM     22  H   UNL     1       0.370  10.256  20.554  0.00  0.00    +0.000 HD
BRANCH  20  23
ATOM     23  C   UNL     1      -1.321  11.348  22.196  0.00  0.00    +0.000 A 
ATOM     24  C   UNL     1      -2.194  11.851  23.171  0.00  0.00    +0.000 A 
ATOM     25  C   UNL     1      -3.140  12.820  22.828  0.00  0.00    +0.000 A 
ATOM     26  C   UNL     1      -3.213  13.293  21.518  0.00  0.00    +0.000 A 
ATOM     27  C   UNL     1      -2.329  12.814  20.551  0.00  0.00    +0.000 A 
ATOM     28  C   UNL     1      -1.379  11.850  20.890  0.00  0.00    +0.000 A 
ENDBRANCH  20  23
ENDBRANCH  18  19
ENDBRANCH   2  18
TORSDOF 6
ENDMDL
MODEL 6
REMARK VINA RESULT:      -7.5      4.509      9.586
REMARK  Name = 
REMARK  6 active torsions:
REMARK  status: ('A' for Active; 'I' for Inactive)
REMARK    1  A    between atoms: C_2  and  C_3
REMARK    2  A    between atoms: C_3  and  N_4
REMARK    3  A    between atoms: C_5  and  C_7
REMARK    4  A    between atoms: N_13  and  C_14
REMARK    5  A    between atoms: N_17  and  C_18
REMARK    6  A    between atoms: C_18  and  C_19
REMARK                            x       y       z     vdW  Elec       q    Type
REMARK                         _______ _______ _______ _____ _____    ______ ____
ROOT
ATOM      1  O   UNL     1       4.381   3.208  18.729  0.00  0.00    +0.000 OA
ATOM      2  C   UNL     1       4.880   4.316  18.564  0.00  0.00    +0.000 C 
ATOM      3  N   UNL     1       4.201   5.504  18.743  0.00  0.00    +0.000 N 
ATOM      4  H   UNL     1       4.782   6.325  18.913  0.00  0.00    +0.000 HD
ENDROOT
BRANCH   3   5
ATOM      5  C   UNL     1       2.781   5.565  19.096  0.00  0.00    +0.000 C 
ATOM      6  C   UNL     1       2.033   6.543  18.193  0.00  0.00    +0.000 C 
ATOM      7  C   UNL     1       2.291   7.860  18.899  0.00  0.00    +0.000 C 
ATOM      8  N   UNL     1       2.054   7.566  20.327  0.00  0.00    +0.000 NA
ATOM      9  C   UNL     1       2.560   6.179  20.503  0.00  0.00    +0.000 C 
BRANCH   8  10
ATOM     10  C   UNL     1       0.611   7.686  20.613  0.00  0.00    +0.000 C 
BRANCH  10  11
ATOM     11  C   UNL     1       0.189   8.988  21.260  0.00  0.00    +0.000 A 
ATOM     12  C   UNL     1       0.111  10.170  20.514  0.00  0.00    +0.000 A 
ATOM     13  C   UNL     1      -0.388  11.341  21.099  0.00  0.00    +0.000 A 
ATOM     14  C   UNL     1      -0.806  11.329  22.427  0.00  0.00    +0.000 A 
ATOM     15 CL   UNL     1      -1.467  12.754  23.134  0.00  0.00    +0.000 Cl
ATOM     16  C   UNL     1      -0.712  10.168  23.186  0.00  0.00    +0.000 A 
ATOM     17  C   UNL     1      -0.216   9.000  22.603  0.00  0.00    +0.000 A 
ENDBRANCH  10  11
ENDBRANCH   8  10
ENDBRANCH   3   5
BRANCH   2  18
ATOM     18  C   UNL     1       6.352   4.500  18.188  0.00  0.00    +0.000 C 
BRANCH  18  19
ATOM     19  N   UNL     1       6.580   4.215  16.787  0.00  0.00    +0.000 N 
ATOM     20  C   UNL     1       6.303   5.157  15.824  0.00  0.00    +0.000 C 
ATOM     21  O   UNL     1       5.915   6.289  16.097  0.00  0.00    +0.000 OA
ATOM     22  H   UNL     1       7.175   3.428  16.559  0.00  0.00    +0.000 HD
BRANCH  20  23
ATOM     23  C   UNL     1       6.543   4.748  14.413  0.00  0.00    +0.000 A 
ATOM     24  C   UNL     1       5.770   3.761  13.787  0.00  0.00    +0.000 A 
ATOM     25  C   UNL     1       6.036   3.400  12.463  0.00  0.00    +0.000 A 
ATOM     26  C   UNL     1       7.066   4.027  11.762  0.00  0.00    +0.000 A 
ATOM     27  C   UNL     1       7.821   5.028  12.374  0.00  0.00    +0.000 A 
ATOM     28  C   UNL     1       7.555   5.394  13.694  0.00  0.00    +0.000 A 
ENDBRANCH  20  23
ENDBRANCH  18  19
ENDBRANCH   2  18
TORSDOF 6
ENDMDL
MODEL 7
REMARK VINA RESULT:      -7.5      0.548      1.083
REMARK  Name = 
REMARK  6 active torsions:
REMARK  status: ('A' for Active; 'I' for Inactive)
REMARK    1  A    between atoms: C_2  and  C_3
REMARK    2  A    between atoms: C_3  and  N_4
REMARK    3  A    between atoms: C_5  and  C_7
REMARK    4  A    between atoms: N_13  and  C_14
REMARK    5  A    between atoms: N_17  and  C_18
REMARK    6  A    between atoms: C_18  and  C_19
REMARK                            x       y       z     vdW  Elec       q    Type
REMARK                         _______ _______ _______ _____ _____    ______ ____
ROOT
ATOM      1  O   UNL     1       2.476   9.057  17.200  0.00  0.00    +0.000 OA
ATOM      2  C   UNL     1       1.891   8.783  18.242  0.00  0.00    +0.000 C 
ATOM      3  N   UNL     1       1.884   7.529  18.818  0.00  0.00    +0.000 N 
ATOM      4  H   UNL     1       1.670   7.501  19.815  0.00  0.00    +0.000 HD
ENDROOT
BRANCH   3   5
ATOM      5  C   UNL     1       2.533   6.368  18.207  0.00  0.00    +0.000 C 
ATOM      6  C   UNL     1       2.008   5.066  18.807  0.00  0.00    +0.000 C 
ATOM      7  C   UNL     1       2.876   4.933  20.043  0.00  0.00    +0.000 C 
ATOM      8  N   UNL     1       4.241   5.238  19.569  0.00  0.00    +0.000 NA
ATOM      9  C   UNL     1       4.044   6.303  18.550  0.00  0.00    +0.000 C 
BRANCH   8  10
ATOM     10  C   UNL     1       4.842   4.014  19.005  0.00  0.00    +0.000 C 
BRANCH  10  11
ATOM     11  C   UNL     1       5.506   4.187  17.655  0.00  0.00    +0.000 A 
ATOM     12  C   UNL     1       4.792   3.977  16.470  0.00  0.00    +0.000 A 
ATOM     13  C   UNL     1       5.386   4.248  15.231  0.00  0.00    +0.000 A 
ATOM     14  C   UNL     1       6.692   4.727  15.179  0.00  0.00    +0.000 A 
ATOM     15 CL   UNL     1       7.408   5.110  13.660  0.00  0.00    +0.000 Cl
ATOM     16  C   UNL     1       7.421   4.917  16.347  0.00  0.00    +0.000 A 
ATOM     17  C   UNL     1       6.829   4.648  17.582  0.00  0.00    +0.000 A 
ENDBRANCH  10  11
ENDBRANCH   8  10
ENDBRANCH   3   5
BRANCH   2  18
ATOM     18  C   UNL     1       1.138   9.838  19.056  0.00  0.00    +0.000 C 
BRANCH  18  19
ATOM     19  N   UNL     1      -0.221  10.002  18.582  0.00  0.00    +0.000 N 
ATOM     20  C   UNL     1      -0.737  11.256  18.349  0.00  0.00    +0.000 C 
ATOM     21  O   UNL     1      -0.069  12.279  18.467  0.00  0.00    +0.000 OA
ATOM     22  H   UNL     1      -0.682   9.192  18.190  0.00  0.00    +0.000 HD
BRANCH  20  23
ATOM     23  C   UNL     1      -2.153  11.312  17.897  0.00  0.00    +0.000 A 
ATOM     24  C   UNL     1      -2.533  10.924  16.604  0.00  0.00    +0.000 A 
ATOM     25  C   UNL     1      -3.874  11.001  16.217  0.00  0.00    +0.000 A 
ATOM     26  C   UNL     1      -4.835  11.458  17.118  0.00  0.00    +0.000 A 
ATOM     27  C   UNL     1      -4.465  11.822  18.413  0.00  0.00    +0.000 A 
ATOM     28  C   UNL     1      -3.128  11.741  18.805  0.00  0.00    +0.000 A 
ENDBRANCH  20  23
ENDBRANCH  18  19
ENDBRANCH   2  18
TORSDOF 6
ENDMDL
MODEL 8
REMARK VINA RESULT:      -7.3      6.298      9.035
REMARK  Name = 
REMARK  6 active torsions:
REMARK  status: ('A' for Active; 'I' for Inactive)
REMARK    1  A    between atoms: C_2  and  C_3
REMARK    2  A    between atoms: C_3  and  N_4
REMARK    3  A    between atoms: C_5  and  C_7
REMARK    4  A    between atoms: N_13  and  C_14
REMARK    5  A    between atoms: N_17  and  C_18
REMARK    6  A    between atoms: C_18  and  C_19
REMARK                            x       y       z     vdW  Elec       q    Type
REMARK                         _______ _______ _______ _____ _____    ______ ____
ROOT
ATOM      1  O   UNL     1       8.387   7.650  18.752  0.00  0.00    +0.000 OA
ATOM      2  C   UNL     1       7.647   8.109  17.888  0.00  0.00    +0.000 C 
ATOM      3  N   UNL     1       6.575   7.428  17.348  0.00  0.00    +0.000 N 
ATOM      4  H   UNL     1       5.855   8.007  16.915  0.00  0.00    +0.000 HD
ENDROOT
BRANCH   3   5
ATOM      5  C   UNL     1       6.241   6.050  17.712  0.00  0.00    +0.000 C 
ATOM      6  C   UNL     1       7.118   5.055  16.957  0.00  0.00    +0.000 C 
ATOM      7  C   UNL     1       6.361   4.919  15.650  0.00  0.00    +0.000 C 
ATOM      8  N   UNL     1       4.948   4.772  16.055  0.00  0.00    +0.000 NA
ATOM      9  C   UNL     1       4.816   5.656  17.244  0.00  0.00    +0.000 C 
BRANCH   8  10
ATOM     10  C   UNL     1       4.679   3.355  16.368  0.00  0.00    +0.000 C 
BRANCH  10  11
ATOM     11  C   UNL     1       3.801   3.118  17.578  0.00  0.00    +0.000 A 
ATOM     12  C   UNL     1       4.361   2.895  18.841  0.00  0.00    +0.000 A 
ATOM     13  C   UNL     1       3.538   2.789  19.969  0.00  0.00    +0.000 A 
ATOM     14  C   UNL     1       2.157   2.905  19.833  0.00  0.00    +0.000 A 
ATOM     15 CL   UNL     1       1.145   2.827  21.225  0.00  0.00    +0.000 Cl
ATOM     16  C   UNL     1       1.586   3.103  18.581  0.00  0.00    +0.000 A 
ATOM     17  C   UNL     1       2.406   3.210  17.456  0.00  0.00    +0.000 A 
ENDBRANCH  10  11
ENDBRANCH   8  10
ENDBRANCH   3   5
BRANCH   2  18
ATOM     18  C   UNL     1       7.807   9.532  17.348  0.00  0.00    +0.000 C 
BRANCH  18  19
ATOM     19  N   UNL     1       8.837  10.257  18.062  0.00  0.00    +0.000 N 
ATOM     20  C   UNL     1       8.930  11.626  17.963  0.00  0.00    +0.000 C 
ATOM     21  O   UNL     1       8.124  12.300  17.329  0.00  0.00    +0.000 OA
ATOM     22  H   UNL     1       9.310   9.778  18.817  0.00  0.00    +0.000 HD
BRANCH  20  23
ATOM     23  C   UNL     1      10.045  12.267  18.711  0.00  0.00    +0.000 A 
ATOM     24  C   UNL     1      11.314  11.678  18.795  0.00  0.00    +0.000 A 
ATOM     25  C   UNL     1      12.331  12.309  19.516  0.00  0.00    +0.000 A 
ATOM     26  C   UNL     1      12.086  13.529  20.147  0.00  0.00    +0.000 A 
ATOM     27  C   UNL     1      10.832  14.130  20.045  0.00  0.00    +0.000 A 
ATOM     28  C   UNL     1       9.815  13.505  19.322  0.00  0.00    +0.000 A 
ENDBRANCH  20  23
ENDBRANCH  18  19
ENDBRANCH   2  18
TORSDOF 6
ENDMDL
MODEL 9
REMARK VINA RESULT:      -7.2      2.597      3.391
REMARK  Name = 
REMARK  6 active torsions:
REMARK  status: ('A' for Active; 'I' for Inactive)
REMARK    1  A    between atoms: C_2  and  C_3
REMARK    2  A    between atoms: C_3  and  N_4
REMARK    3  A    between atoms: C_5  and  C_7
REMARK    4  A    between atoms: N_13  and  C_14
REMARK    5  A    between atoms: N_17  and  C_18
REMARK    6  A    between atoms: C_18  and  C_19
REMARK                            x       y       z     vdW  Elec       q    Type
REMARK                         _______ _______ _______ _____ _____    ______ ____
ROOT
ATOM      1  O   UNL     1       2.030   9.105  17.402  0.00  0.00    +0.000 OA
ATOM      2  C   UNL     1       1.781   8.734  18.543  0.00  0.00    +0.000 C 
ATOM      3  N   UNL     1       2.095   7.483  19.034  0.00  0.00    +0.000 N 
ATOM      4  H   UNL     1       2.157   7.408  20.050  0.00  0.00    +0.000 HD
ENDROOT
BRANCH   3   5
ATOM      5  C   UNL     1       2.713   6.438  18.216  0.00  0.00    +0.000 C 
ATOM      6  C   UNL     1       2.134   5.065  18.550  0.00  0.00    +0.000 C 
ATOM      7  C   UNL     1       2.979   4.665  19.743  0.00  0.00    +0.000 C 
ATOM      8  N   UNL     1       4.361   5.004  19.347  0.00  0.00    +0.000 NA
ATOM      9  C   UNL     1       4.216   6.252  18.550  0.00  0.00    +0.000 C 
BRANCH   8  10
ATOM     10  C   UNL     1       4.927   3.890  18.562  0.00  0.00    +0.000 C 
BRANCH  10  11
ATOM     11  C   UNL     1       5.563   4.288  17.247  0.00  0.00    +0.000 A 
ATOM     12  C   UNL     1       6.902   4.689  17.186  0.00  0.00    +0.000 A 
ATOM     13  C   UNL     1       7.507   4.946  15.950  0.00  0.00    +0.000 A 
ATOM     14  C   UNL     1       6.772   4.803  14.776  0.00  0.00    +0.000 A 
ATOM     15 CL   UNL     1       7.526   5.068  13.251  0.00  0.00    +0.000 Cl
ATOM     16  C   UNL     1       5.434   4.428  14.823  0.00  0.00    +0.000 A 
ATOM     17  C   UNL     1       4.831   4.171  16.055  0.00  0.00    +0.000 A 
ENDBRANCH  10  11
ENDBRANCH   8  10
ENDBRANCH   3   5
BRANCH   2  18
ATOM     18  C   UNL     1       1.133   9.655  19.579  0.00  0.00    +0.000 C 
BRANCH  18  19
ATOM     19  N   UNL     1       1.202  11.042  19.170  0.00  0.00    +0.000 N 
ATOM     20  C   UNL     1       1.206  12.052  20.105  0.00  0.00    +0.000 C 
ATOM     21  O   UNL     1       1.216  11.835  21.313  0.00  0.00    +0.000 OA
ATOM     22  H   UNL     1       1.500  11.238  18.223  0.00  0.00    +0.000 HD
BRANCH  20  23
ATOM     23  C   UNL     1       1.245  13.442  19.575  0.00  0.00    +0.000 A 
ATOM     24  C   UNL     1       2.455  14.111  19.341  0.00  0.00    +0.000 A 
ATOM     25  C   UNL     1       2.446  15.419  18.850  0.00  0.00    +0.000 A 
ATOM     26  C   UNL     1       1.234  16.058  18.587  0.00  0.00    +0.000 A 
ATOM     27  C   UNL     1       0.029  15.387  18.795  0.00  0.00    +0.000 A 
ATOM     28  C   UNL     1       0.034  14.078  19.280  0.00  0.00    +0.000 A 
ENDBRANCH  20  23
ENDBRANCH  18  19
ENDBRANCH   2  18
TORSDOF 6
ENDMDL
