MODEL 1
REMARK VINA RESULT:      -7.9      0.000      0.000
REMARK  Name = 
REMARK  5 active torsions:
REMARK  status: ('A' for Active; 'I' for Inactive)
REMARK    1  A    between atoms: C_1  and  N_2
REMARK    2  A    between atoms: C_11  and  C_12
REMARK    3  A    between atoms: N_14  and  C_15
REMARK    4  A    between atoms: N_24  and  C_25
REMARK    5  A    between atoms: C_25  and  C_26
REMARK                            x       y       z     vdW  Elec       q    Type
REMARK                         _______ _______ _______ _____ _____    ______ ____
ROOT
ATOM      1  C   UNL     1      -4.792  15.001  23.312  0.00  0.00    +0.000 C 
ATOM      2  N   UNL     1      -3.421  14.678  22.895  0.00  0.00    +0.000 NA
ATOM      3  C   UNL     1      -3.409  14.063  21.547  0.00  0.00    +0.000 C 
ATOM      4  C   UNL     1      -1.980  13.661  21.073  0.00  0.00    +0.000 C 
ATOM      5  N   UNL     1      -1.350  12.810  22.077  0.00  0.00    +0.000 N 
ATOM      6  C   UNL     1      -0.584  11.708  21.755  0.00  0.00    +0.000 A 
ATOM      7  N   UNL     1      -0.021  11.028  22.757  0.00  0.00    +0.000 NA
ATOM      8  C   UNL     1       0.658   9.885  22.468  0.00  0.00    +0.000 A 
ATOM      9  C   UNL     1       0.833   9.385  21.193  0.00  0.00    +0.000 A 
ATOM     10  N   UNL     1       1.538   8.194  20.976  0.00  0.00    +0.000 NA
ATOM     11  C   UNL     1       1.758   7.750  19.764  0.00  0.00    +0.000 A 
ATOM     12  C   UNL     1       1.216   8.574  18.563  0.00  0.00    +0.000 A 
ATOM     13  O   UNL     1       1.454   8.192  17.422  0.00  0.00    +0.000 OA
ATOM     14  N   UNL     1       0.466   9.741  18.863  0.00  0.00    +0.000 N 
ATOM     15  C   UNL     1       0.267  10.160  20.215  0.00  0.00    +0.000 A 
ATOM     16  N   UNL     1      -0.444  11.308  20.472  0.00  0.00    +0.000 NA
ATOM     17  C   UNL     1      -1.350  13.361  23.442  0.00  0.00    +0.000 C 
ATOM     18  C   UNL     1      -2.799  13.740  23.854  0.00  0.00    +0.000 C 
ENDROOT
BRANCH  11  19
ATOM     19  C   UNL     1       2.572   6.486  19.754  0.00  0.00    +0.000 A 
ATOM     20  C   UNL     1       3.831   6.512  19.131  0.00  0.00    +0.000 A 
ATOM     21  N   UNL     1       4.002   5.263  18.615  0.00  0.00    +0.000 N 
ATOM     22  C   UNL     1       4.016   4.918  17.214  0.00  0.00    +0.000 C 
ATOM     23  C   UNL     1       3.586   4.394  19.591  0.00  0.00    +0.000 A 
ATOM     24  C   UNL     1       4.014   3.080  19.830  0.00  0.00    +0.000 A 
ATOM     25  C   UNL     1       3.358   2.393  20.836  0.00  0.00    +0.000 A 
ATOM     26  C   UNL     1       2.265   2.984  21.480  0.00  0.00    +0.000 A 
ATOM     27  C   UNL     1       1.828   4.305  21.180  0.00  0.00    +0.000 A 
ATOM     28  C   UNL     1       2.549   5.094  20.258  0.00  0.00    +0.000 A 
ENDBRANCH  11  19
BRANCH  14  29
ATOM     29  C   UNL     1      -0.143  10.555  17.808  0.00  0.00    +0.000 C 
BRANCH  29  30
ATOM     30  C   UNL     1      -1.464  10.001  17.217  0.00  0.00    +0.000 C 
ATOM     31  C   UNL     1      -2.539   9.702  18.250  0.00  0.00    +0.000 C 
ATOM     32  C   UNL     1      -3.387  10.950  18.240  0.00  0.00    +0.000 C 
ATOM     33  C   UNL     1      -3.349  11.326  16.779  0.00  0.00    +0.000 C 
ATOM     34  O   UNL     1      -2.029  10.992  16.322  0.00  0.00    +0.000 OA
ENDBRANCH  29  30
ENDBRANCH  14  29
TORSDOF 3
ENDMDL
MODEL 2
REMARK VINA RESULT:      -7.8      0.945      1.043
REMARK  Name = 
REMARK  5 active torsions:
REMARK  status: ('A' for Active; 'I' for Inactive)
REMARK    1  A    between atoms: C_1  and  N_2
REMARK    2  A    between atoms: C_11  and  C_12
REMARK    3  A    between atoms: N_14  and  C_15
REMARK    4  A    between atoms: N_24  and  C_25
REMARK    5  A    between atoms: C_25  and  C_26
REMARK                            x       y       z     vdW  Elec       q    Type
REMARK                         _______ _______ _______ _____ _____    ______ ____
ROOT
ATOM      1  C   UNL     1      -6.080  14.548  23.166  0.00  0.00    +0.000 C 
ATOM      2  N   UNL     1      -4.641  14.252  23.131  0.00  0.00    +0.000 NA
ATOM      3  C   UNL     1      -4.181  14.030  21.740  0.00  0.00    +0.000 C 
ATOM      4  C   UNL     1      -2.667  13.671  21.649  0.00  0.00    +0.000 C 
ATOM      5  N   UNL     1      -2.379  12.534  22.519  0.00  0.00    +0.000 N 
ATOM      6  C   UNL     1      -1.528  11.509  22.159  0.00  0.00    +0.000 A 
ATOM      7  N   UNL     1      -1.306  10.542  23.052  0.00  0.00    +0.000 NA
ATOM      8  C   UNL     1      -0.546   9.475  22.682  0.00  0.00    +0.000 A 
ATOM      9  C   UNL     1       0.043   9.332  21.442  0.00  0.00    +0.000 A 
ATOM     10  N   UNL     1       0.805   8.197  21.132  0.00  0.00    +0.000 NA
ATOM     11  C   UNL     1       1.413   8.086  19.979  0.00  0.00    +0.000 A 
ATOM     12  C   UNL     1       1.273   9.245  18.952  0.00  0.00    +0.000 A 
ATOM     13  O   UNL     1       1.875   9.172  17.886  0.00  0.00    +0.000 OA
ATOM     14  N   UNL     1       0.442  10.336  19.316  0.00  0.00    +0.000 N 
ATOM     15  C   UNL     1      -0.193  10.383  20.596  0.00  0.00    +0.000 A 
ATOM     16  N   UNL     1      -0.972  11.466  20.927  0.00  0.00    +0.000 NA
ATOM     17  C   UNL     1      -2.832  12.689  23.910  0.00  0.00    +0.000 C 
ATOM     18  C   UNL     1      -4.344  13.046  23.932  0.00  0.00    +0.000 C 
ENDROOT
BRANCH  11  19
ATOM     19  C   UNL     1       2.213   6.818  19.871  0.00  0.00    +0.000 A 
ATOM     20  C   UNL     1       3.550   6.909  19.448  0.00  0.00    +0.000 A 
ATOM     21  N   UNL     1       3.787   5.760  18.757  0.00  0.00    +0.000 N 
ATOM     22  C   UNL     1       4.002   5.652  17.334  0.00  0.00    +0.000 C 
ATOM     23  C   UNL     1       3.228   4.752  19.502  0.00  0.00    +0.000 A 
ATOM     24  C   UNL     1       3.609   3.404  19.573  0.00  0.00    +0.000 A 
ATOM     25  C   UNL     1       2.810   2.580  20.345  0.00  0.00    +0.000 A 
ATOM     26  C   UNL     1       1.638   3.088  20.917  0.00  0.00    +0.000 A 
ATOM     27  C   UNL     1       1.257   4.453  20.786  0.00  0.00    +0.000 A 
ATOM     28  C   UNL     1       2.109   5.363  20.124  0.00  0.00    +0.000 A 
ENDBRANCH  11  19
BRANCH  14  29
ATOM     29  C   UNL     1       0.191  11.450  18.397  0.00  0.00    +0.000 C 
BRANCH  29  30
ATOM     30  C   UNL     1      -0.954  11.227  17.377  0.00  0.00    +0.000 C 
ATOM     31  C   UNL     1      -1.509   9.812  17.354  0.00  0.00    +0.000 C 
ATOM     32  C   UNL     1      -2.712   9.894  18.260  0.00  0.00    +0.000 C 
ATOM     33  C   UNL     1      -3.229  11.278  17.945  0.00  0.00    +0.000 C 
ATOM     34  O   UNL     1      -2.067  12.090  17.726  0.00  0.00    +0.000 OA
ENDBRANCH  29  30
ENDBRANCH  14  29
TORSDOF 3
ENDMDL
MODEL 3
REMARK VINA RESULT:      -7.7      2.271      2.963
REMARK  Name = 
REMARK  5 active torsions:
REMARK  status: ('A' for Active; 'I' for Inactive)
REMARK    1  A    between atoms: C_1  and  N_2
REMARK    2  A    between atoms: C_11  and  C_12
REMARK    3  A    between atoms: N_14  and  C_15
REMARK    4  A    between atoms: N_24  and  C_25
REMARK    5  A    between atoms: C_25  and  C_26
REMARK                            x       y       z     vdW  Elec       q    Type
REMARK                         _______ _______ _______ _____ _____    ______ ____
ROOT
ATOM      1  C   UNL     1      -5.285  14.118  23.381  0.00  0.00    +0.000 C 
ATOM      2  N   UNL     1      -3.874  13.708  23.370  0.00  0.00    +0.000 NA
ATOM      3  C   UNL     1      -3.286  13.873  22.020  0.00  0.00    +0.000 C 
ATOM      4  C   UNL     1      -1.800  13.411  21.942  0.00  0.00    +0.000 C 
ATOM      5  N   UNL     1      -1.684  12.042  22.435  0.00  0.00    +0.000 N 
ATOM      6  C   UNL     1      -0.872  11.096  21.843  0.00  0.00    +0.000 A 
ATOM      7  N   UNL     1      -0.813   9.887  22.406  0.00  0.00    +0.000 NA
ATOM      8  C   UNL     1      -0.093   8.913  21.784  0.00  0.00    +0.000 A 
ATOM      9  C   UNL     1       0.611   9.095  20.612  0.00  0.00    +0.000 A 
ATOM     10  N   UNL     1       1.321   8.038  20.026  0.00  0.00    +0.000 NA
ATOM     11  C   UNL     1       2.039   8.222  18.947  0.00  0.00    +0.000 A 
ATOM     12  C   UNL     1       2.088   9.646  18.323  0.00  0.00    +0.000 A 
ATOM     13  O   UNL     1       2.793   9.840  17.339  0.00  0.00    +0.000 OA
ATOM     14  N   UNL     1       1.300  10.652  18.941  0.00  0.00    +0.000 N 
ATOM     15  C   UNL     1       0.540  10.371  20.118  0.00  0.00    +0.000 A 
ATOM     16  N   UNL     1      -0.194  11.373  20.707  0.00  0.00    +0.000 NA
ATOM     17  C   UNL     1      -2.269  11.812  23.765  0.00  0.00    +0.000 C 
ATOM     18  C   UNL     1      -3.747  12.292  23.777  0.00  0.00    +0.000 C 
ENDROOT
BRANCH  11  19
ATOM     19  C   UNL     1       2.756   6.974  18.513  0.00  0.00    +0.000 A 
ATOM     20  C   UNL     1       4.152   7.030  18.357  0.00  0.00    +0.000 A 
ATOM     21  N   UNL     1       4.434   6.164  17.345  0.00  0.00    +0.000 N 
ATOM     22  C   UNL     1       4.903   6.521  16.027  0.00  0.00    +0.000 C 
ATOM     23  C   UNL     1       3.678   5.045  17.587  0.00  0.00    +0.000 A 
ATOM     24  C   UNL     1       3.946   3.716  17.227  0.00  0.00    +0.000 A 
ATOM     25  C   UNL     1       2.963   2.789  17.523  0.00  0.00    +0.000 A 
ATOM     26  C   UNL     1       1.742   3.220  18.057  0.00  0.00    +0.000 A 
ATOM     27  C   UNL     1       1.487   4.585  18.367  0.00  0.00    +0.000 A 
ATOM     28  C   UNL     1       2.508   5.547  18.210  0.00  0.00    +0.000 A 
ENDBRANCH  11  19
BRANCH  14  29
ATOM     29  C   UNL     1       1.225  12.010  18.397  0.00  0.00    +0.000 C 
BRANCH  29  30
ATOM     30  C   UNL     1       2.417  12.936  18.746  0.00  0.00    +0.000 C 
ATOM     31  C   UNL     1       2.507  14.192  17.895  0.00  0.00    +0.000 C 
ATOM     32  C   UNL     1       1.816  15.235  18.739  0.00  0.00    +0.000 C 
ATOM     33  C   UNL     1       2.236  14.822  20.129  0.00  0.00    +0.000 C 
ATOM     34  O   UNL     1       2.274  13.387  20.117  0.00  0.00    +0.000 OA
ENDBRANCH  29  30
ENDBRANCH  14  29
TORSDOF 3
ENDMDL
MODEL 4
REMARK VINA RESULT:      -7.6      2.270      3.451
REMARK  Name = 
REMARK  5 active torsions:
REMARK  status: ('A' for Active; 'I' for Inactive)
REMARK    1  A    between atoms: C_1  and  N_2
REMARK    2  A    between atoms: C_11  and  C_12
REMARK    3  A    between atoms: N_14  and  C_15
REMARK    4  A    between atoms: N_24  and  C_25
REMARK    5  A    between atoms: C_25  and  C_26
REMARK                            x       y       z     vdW  Elec       q    Type
REMARK                         _______ _______ _______ _____ _____    ______ ____
ROOT
ATOM      1  C   UNL     1      -4.980  14.614  23.297  0.00  0.00    +0.000 C 
ATOM      2  N   UNL     1      -3.601  14.107  23.294  0.00  0.00    +0.000 NA
ATOM      3  C   UNL     1      -2.988  14.252  21.952  0.00  0.00    +0.000 C 
ATOM      4  C   UNL     1      -1.536  13.690  21.882  0.00  0.00    +0.000 C 
ATOM      5  N   UNL     1      -1.520  12.310  22.354  0.00  0.00    +0.000 N 
ATOM      6  C   UNL     1      -0.768  11.319  21.755  0.00  0.00    +0.000 A 
ATOM      7  N   UNL     1      -0.798  10.100  22.301  0.00  0.00    +0.000 NA
ATOM      8  C   UNL     1      -0.141   9.088  21.671  0.00  0.00    +0.000 A 
ATOM      9  C   UNL     1       0.587   9.239  20.508  0.00  0.00    +0.000 A 
ATOM     10  N   UNL     1       1.230   8.145  19.913  0.00  0.00    +0.000 NA
ATOM     11  C   UNL     1       1.970   8.295  18.844  0.00  0.00    +0.000 A 
ATOM     12  C   UNL     1       2.123   9.721  18.243  0.00  0.00    +0.000 A 
ATOM     13  O   UNL     1       2.851   9.881  17.269  0.00  0.00    +0.000 OA
ATOM     14  N   UNL     1       1.400  10.769  18.869  0.00  0.00    +0.000 N 
ATOM     15  C   UNL     1       0.609  10.524  20.034  0.00  0.00    +0.000 A 
ATOM     16  N   UNL     1      -0.060  11.565  20.631  0.00  0.00    +0.000 NA
ATOM     17  C   UNL     1      -2.134  12.100  23.675  0.00  0.00    +0.000 C 
ATOM     18  C   UNL     1      -3.575  12.681  23.680  0.00  0.00    +0.000 C 
ENDROOT
BRANCH  11  19
ATOM     19  C   UNL     1       2.605   7.007  18.398  0.00  0.00    +0.000 A 
ATOM     20  C   UNL     1       1.940   5.803  18.688  0.00  0.00    +0.000 A 
ATOM     21  N   UNL     1       2.928   4.886  18.880  0.00  0.00    +0.000 N 
ATOM     22  C   UNL     1       3.278   4.264  20.135  0.00  0.00    +0.000 C 
ATOM     23  C   UNL     1       3.839   5.100  17.877  0.00  0.00    +0.000 A 
ATOM     24  C   UNL     1       4.711   4.179  17.278  0.00  0.00    +0.000 A 
ATOM     25  C   UNL     1       5.593   4.687  16.342  0.00  0.00    +0.000 A 
ATOM     26  C   UNL     1       5.647   6.068  16.118  0.00  0.00    +0.000 A 
ATOM     27  C   UNL     1       4.778   6.981  16.779  0.00  0.00    +0.000 A 
ATOM     28  C   UNL     1       3.769   6.497  17.640  0.00  0.00    +0.000 A 
ENDBRANCH  11  19
BRANCH  14  29
ATOM     29  C   UNL     1       1.424  12.137  18.345  0.00  0.00    +0.000 C 
BRANCH  29  30
ATOM     30  C   UNL     1       2.357  13.122  19.093  0.00  0.00    +0.000 C 
ATOM     31  C   UNL     1       3.471  13.705  18.239  0.00  0.00    +0.000 C 
ATOM     32  C   UNL     1       2.906  15.028  17.785  0.00  0.00    +0.000 C 
ATOM     33  C   UNL     1       2.125  15.454  19.005  0.00  0.00    +0.000 C 
ATOM     34  O   UNL     1       1.573  14.250  19.557  0.00  0.00    +0.000 OA
ENDBRANCH  29  30
ENDBRANCH  14  29
TORSDOF 3
ENDMDL
MODEL 5
REMARK VINA RESULT:      -7.6      1.817      2.399
REMARK  Name = 
REMARK  5 active torsions:
REMARK  status: ('A' for Active; 'I' for Inactive)
REMARK    1  A    between atoms: C_1  and  N_2
REMARK    2  A    between atoms: C_11  and  C_12
REMARK    3  A    between atoms: N_14  and  C_15
REMARK    4  A    between atoms: N_24  and  C_25
REMARK    5  A    between atoms: C_25  and  C_26
REMARK                            x       y       z     vdW  Elec       q    Type
REMARK                         _______ _______ _______ _____ _____    ______ ____
ROOT
ATOM      1  C   UNL     1      -5.840  14.576  23.541  0.00  0.00    +0.000 C 
ATOM      2  N   UNL     1      -4.414  14.222  23.514  0.00  0.00    +0.000 NA
ATOM      3  C   UNL     1      -3.930  14.082  22.121  0.00  0.00    +0.000 C 
ATOM      4  C   UNL     1      -2.431  13.665  22.036  0.00  0.00    +0.000 C 
ATOM      5  N   UNL     1      -2.210  12.458  22.826  0.00  0.00    +0.000 N 
ATOM      6  C   UNL     1      -1.393  11.426  22.410  0.00  0.00    +0.000 A 
ATOM      7  N   UNL     1      -1.233  10.388  23.235  0.00  0.00    +0.000 NA
ATOM      8  C   UNL     1      -0.509   9.319  22.804  0.00  0.00    +0.000 A 
ATOM      9  C   UNL     1       0.103   9.241  21.569  0.00  0.00    +0.000 A 
ATOM     10  N   UNL     1       0.825   8.100  21.193  0.00  0.00    +0.000 NA
ATOM     11  C   UNL     1       1.456   8.046  20.048  0.00  0.00    +0.000 A 
ATOM     12  C   UNL     1       1.388   9.281  19.106  0.00  0.00    +0.000 A 
ATOM     13  O   UNL     1       2.012   9.260  18.050  0.00  0.00    +0.000 OA
ATOM     14  N   UNL     1       0.594  10.378  19.531  0.00  0.00    +0.000 N 
ATOM     15  C   UNL     1      -0.068  10.360  20.797  0.00  0.00    +0.000 A 
ATOM     16  N   UNL     1      -0.810  11.448  21.191  0.00  0.00    +0.000 NA
ATOM     17  C   UNL     1      -2.690  12.531  24.215  0.00  0.00    +0.000 C 
ATOM     18  C   UNL     1      -4.186  12.950  24.231  0.00  0.00    +0.000 C 
ENDROOT
BRANCH  11  19
ATOM     19  C   UNL     1       2.205   6.756  19.864  0.00  0.00    +0.000 A 
ATOM     20  C   UNL     1       3.562   6.821  19.503  0.00  0.00    +0.000 A 
ATOM     21  N   UNL     1       3.779   5.723  18.727  0.00  0.00    +0.000 N 
ATOM     22  C   UNL     1       4.051   5.724  17.310  0.00  0.00    +0.000 C 
ATOM     23  C   UNL     1       3.147   4.684  19.362  0.00  0.00    +0.000 A 
ATOM     24  C   UNL     1       3.467   3.319  19.334  0.00  0.00    +0.000 A 
ATOM     25  C   UNL     1       2.602   2.471  20.001  0.00  0.00    +0.000 A 
ATOM     26  C   UNL     1       1.429   2.983  20.568  0.00  0.00    +0.000 A 
ATOM     27  C   UNL     1       1.112   4.370  20.537  0.00  0.00    +0.000 A 
ATOM     28  C   UNL     1       2.029   5.291  19.989  0.00  0.00    +0.000 A 
ENDBRANCH  11  19
BRANCH  14  29
ATOM     29  C   UNL     1       0.411  11.564  18.691  0.00  0.00    +0.000 C 
BRANCH  29  30
ATOM     30  C   UNL     1       0.830  12.909  19.335  0.00  0.00    +0.000 C 
ATOM     31  C   UNL     1       2.271  12.953  19.819  0.00  0.00    +0.000 C 
ATOM     32  C   UNL     1       3.004  13.599  18.670  0.00  0.00    +0.000 C 
ATOM     33  C   UNL     1       1.981  14.599  18.186  0.00  0.00    +0.000 C 
ATOM     34  O   UNL     1       0.704  13.962  18.346  0.00  0.00    +0.000 OA
ENDBRANCH  29  30
ENDBRANCH  14  29
TORSDOF 3
ENDMDL
MODEL 6
REMARK VINA RESULT:      -7.6      2.473      9.164
REMARK  Name = 
REMARK  5 active torsions:
REMARK  status: ('A' for Active; 'I' for Inactive)
REMARK    1  A    between atoms: C_1  and  N_2
REMARK    2  A    between atoms: C_11  and  C_12
REMARK    3  A    between atoms: N_14  and  C_15
REMARK    4  A    between atoms: N_24  and  C_25
REMARK    5  A    between atoms: C_25  and  C_26
REMARK                            x       y       z     vdW  Elec       q    Type
REMARK                         _______ _______ _______ _____ _____    ______ ____
ROOT
ATOM      1  C   UNL     1       5.705   5.052  18.243  0.00  0.00    +0.000 C 
ATOM      2  N   UNL     1       4.333   5.578  18.267  0.00  0.00    +0.000 NA
ATOM      3  C   UNL     1       4.316   7.026  17.951  0.00  0.00    +0.000 C 
ATOM      4  C   UNL     1       2.886   7.644  18.005  0.00  0.00    +0.000 C 
ATOM      5  N   UNL     1       2.272   7.349  19.295  0.00  0.00    +0.000 N 
ATOM      6  C   UNL     1       1.512   8.267  19.993  0.00  0.00    +0.000 A 
ATOM      7  N   UNL     1       0.963   7.872  21.145  0.00  0.00    +0.000 NA
ATOM      8  C   UNL     1       0.292   8.788  21.894  0.00  0.00    +0.000 A 
ATOM      9  C   UNL     1       0.111  10.108  21.532  0.00  0.00    +0.000 A 
ATOM     10  N   UNL     1      -0.586  10.995  22.363  0.00  0.00    +0.000 NA
ATOM     11  C   UNL     1      -0.811  12.230  21.995  0.00  0.00    +0.000 A 
ATOM     12  C   UNL     1      -0.285  12.698  20.608  0.00  0.00    +0.000 A 
ATOM     13  O   UNL     1      -0.529  13.841  20.234  0.00  0.00    +0.000 OA
ATOM     14  N   UNL     1       0.457  11.759  19.846  0.00  0.00    +0.000 N 
ATOM     15  C   UNL     1       0.663  10.427  20.319  0.00  0.00    +0.000 A 
ATOM     16  N   UNL     1       1.366   9.534  19.546  0.00  0.00    +0.000 NA
ATOM     17  C   UNL     1       2.278   5.927  19.673  0.00  0.00    +0.000 C 
ATOM     18  C   UNL     1       3.727   5.372  19.599  0.00  0.00    +0.000 C 
ENDROOT
BRANCH  11  19
ATOM     19  C   UNL     1      -1.614  12.996  23.009  0.00  0.00    +0.000 A 
ATOM     20  C   UNL     1      -2.732  12.367  23.583  0.00  0.00    +0.000 A 
ATOM     21  N   UNL     1      -3.625  13.368  23.819  0.00  0.00    +0.000 N 
ATOM     22  C   UNL     1      -4.878  13.569  23.131  0.00  0.00    +0.000 C 
ATOM     23  C   UNL     1      -2.898  14.400  24.356  0.00  0.00    +0.000 A 
ATOM     24  C   UNL     1      -3.324  15.400  25.242  0.00  0.00    +0.000 A 
ATOM     25  C   UNL     1      -2.397  16.378  25.557  0.00  0.00    +0.000 A 
ATOM     26  C   UNL     1      -1.151  16.383  24.919  0.00  0.00    +0.000 A 
ATOM     27  C   UNL     1      -0.768  15.377  23.988  0.00  0.00    +0.000 A 
ATOM     28  C   UNL     1      -1.626  14.285  23.738  0.00  0.00    +0.000 A 
ENDBRANCH  11  19
BRANCH  14  29
ATOM     29  C   UNL     1       1.051  12.117  18.555  0.00  0.00    +0.000 C 
BRANCH  29  30
ATOM     30  C   UNL     1       2.442  12.795  18.626  0.00  0.00    +0.000 C 
ATOM     31  C   UNL     1       2.559  14.076  17.816  0.00  0.00    +0.000 C 
ATOM     32  C   UNL     1       2.294  15.157  18.834  0.00  0.00    +0.000 C 
ATOM     33  C   UNL     1       2.949  14.577  20.064  0.00  0.00    +0.000 C 
ATOM     34  O   UNL     1       2.716  13.162  20.002  0.00  0.00    +0.000 OA
ENDBRANCH  29  30
ENDBRANCH  14  29
TORSDOF 3
ENDMDL
MODEL 7
REMARK VINA RESULT:      -7.6      1.739      8.821
REMARK  Name = 
REMARK  5 active torsions:
REMARK  status: ('A' for Active; 'I' for Inactive)
REMARK    1  A    between atoms: C_1  and  N_2
REMARK    2  A    between atoms: C_11  and  C_12
REMARK    3  A    between atoms: N_14  and  C_15
REMARK    4  A    between atoms: N_24  and  C_25
REMARK    5  A    between atoms: C_25  and  C_26
REMARK                            x       y       z     vdW  Elec       q    Type
REMARK                         _______ _______ _______ _____ _____    ______ ____
ROOT
ATOM      1  C   UNL     1       5.413   5.888  17.273  0.00  0.00    +0.000 C 
ATOM      2  N   UNL     1       4.074   6.034  17.860  0.00  0.00    +0.000 NA
ATOM      3  C   UNL     1       3.368   7.202  17.282  0.00  0.00    +0.000 C 
ATOM      4  C   UNL     1       1.956   7.428  17.903  0.00  0.00    +0.000 C 
ATOM      5  N   UNL     1       2.064   7.507  19.356  0.00  0.00    +0.000 N 
ATOM      6  C   UNL     1       1.345   8.407  20.116  0.00  0.00    +0.000 A 
ATOM      7  N   UNL     1       1.493   8.360  21.442  0.00  0.00    +0.000 NA
ATOM      8  C   UNL     1       0.867   9.300  22.201  0.00  0.00    +0.000 A 
ATOM      9  C   UNL     1       0.057  10.296  21.695  0.00  0.00    +0.000 A 
ATOM     10  N   UNL     1      -0.546  11.235  22.542  0.00  0.00    +0.000 NA
ATOM     11  C   UNL     1      -1.363  12.143  22.071  0.00  0.00    +0.000 A 
ATOM     12  C   UNL     1      -1.651  12.161  20.543  0.00  0.00    +0.000 A 
ATOM     13  O   UNL     1      -2.449  12.979  20.097  0.00  0.00    +0.000 OA
ATOM     14  N   UNL     1      -0.962  11.213  19.743  0.00  0.00    +0.000 N 
ATOM     15  C   UNL     1      -0.083  10.253  20.332  0.00  0.00    +0.000 A 
ATOM     16  N   UNL     1       0.551   9.332  19.532  0.00  0.00    +0.000 NA
ATOM     17  C   UNL     1       2.775   6.383  19.985  0.00  0.00    +0.000 C 
ATOM     18  C   UNL     1       4.171   6.210  19.325  0.00  0.00    +0.000 C 
ENDROOT
BRANCH  11  19
ATOM     19  C   UNL     1      -1.935  13.018  23.152  0.00  0.00    +0.000 A 
ATOM     20  C   UNL     1      -3.047  12.545  23.870  0.00  0.00    +0.000 A 
ATOM     21  N   UNL     1      -3.771  13.656  24.182  0.00  0.00    +0.000 N 
ATOM     22  C   UNL     1      -5.062  14.008  23.641  0.00  0.00    +0.000 C 
ATOM     23  C   UNL     1      -2.860  14.592  24.601  0.00  0.00    +0.000 A 
ATOM     24  C   UNL     1      -3.047  15.649  25.503  0.00  0.00    +0.000 A 
ATOM     25  C   UNL     1      -1.973  16.503  25.681  0.00  0.00    +0.000 A 
ATOM     26  C   UNL     1      -0.822  16.340  24.901  0.00  0.00    +0.000 A 
ATOM     27  C   UNL     1      -0.684  15.282  23.959  0.00  0.00    +0.000 A 
ATOM     28  C   UNL     1      -1.697  14.306  23.841  0.00  0.00    +0.000 A 
ENDBRANCH  11  19
BRANCH  14  29
ATOM     29  C   UNL     1      -1.113  11.184  18.286  0.00  0.00    +0.000 C 
BRANCH  29  30
ATOM     30  C   UNL     1      -2.241  10.268  17.750  0.00  0.00    +0.000 C 
ATOM     31  C   UNL     1      -3.541  10.990  17.434  0.00  0.00    +0.000 C 
ATOM     32  C   UNL     1      -3.440  11.257  15.952  0.00  0.00    +0.000 C 
ATOM     33  C   UNL     1      -2.736  10.011  15.471  0.00  0.00    +0.000 C 
ATOM     34  O   UNL     1      -1.803   9.664  16.506  0.00  0.00    +0.000 OA
ENDBRANCH  29  30
ENDBRANCH  14  29
TORSDOF 3
ENDMDL
MODEL 8
REMARK VINA RESULT:      -6.8      2.293      9.341
REMARK  Name = 
REMARK  5 active torsions:
REMARK  status: ('A' for Active; 'I' for Inactive)
REMARK    1  A    between atoms: C_1  and  N_2
REMARK    2  A    between atoms: C_11  and  C_12
REMARK    3  A    between atoms: N_14  and  C_15
REMARK    4  A    between atoms: N_24  and  C_25
REMARK    5  A    between atoms: C_25  and  C_26
REMARK                            x       y       z     vdW  Elec       q    Type
REMARK                         _______ _______ _______ _____ _____    ______ ____
ROOT
ATOM      1  C   UNL     1       5.831   3.297  14.814  0.00  0.00    +0.000 C 
ATOM      2  N   UNL     1       5.795   4.376  15.811  0.00  0.00    +0.000 NA
ATOM      3  C   UNL     1       4.856   4.050  16.910  0.00  0.00    +0.000 C 
ATOM      4  C   UNL     1       4.749   5.182  17.975  0.00  0.00    +0.000 C 
ATOM      5  N   UNL     1       4.420   6.444  17.320  0.00  0.00    +0.000 N 
ATOM      6  C   UNL     1       3.528   7.355  17.847  0.00  0.00    +0.000 A 
ATOM      7  N   UNL     1       3.337   8.497  17.181  0.00  0.00    +0.000 NA
ATOM      8  C   UNL     1       2.392   9.365  17.633  0.00  0.00    +0.000 A 
ATOM      9  C   UNL     1       1.625   9.161  18.762  0.00  0.00    +0.000 A 
ATOM     10  N   UNL     1       0.663  10.100  19.159  0.00  0.00    +0.000 NA
ATOM     11  C   UNL     1      -0.024   9.939  20.262  0.00  0.00    +0.000 A 
ATOM     12  C   UNL     1       0.250   8.676  21.128  0.00  0.00    +0.000 A 
ATOM     13  O   UNL     1      -0.355   8.537  22.186  0.00  0.00    +0.000 OA
ATOM     14  N   UNL     1       1.200   7.745  20.634  0.00  0.00    +0.000 N 
ATOM     15  C   UNL     1       1.908   7.992  19.417  0.00  0.00    +0.000 A 
ATOM     16  N   UNL     1       2.840   7.082  18.978  0.00  0.00    +0.000 NA
ATOM     17  C   UNL     1       5.308   6.812  16.205  0.00  0.00    +0.000 C 
ATOM     18  C   UNL     1       5.373   5.645  15.181  0.00  0.00    +0.000 C 
ENDROOT
BRANCH  11  19
ATOM     19  C   UNL     1      -0.965  11.081  20.526  0.00  0.00    +0.000 A 
ATOM     20  C   UNL     1      -1.472  11.792  19.425  0.00  0.00    +0.000 A 
ATOM     21  N   UNL     1      -1.626  13.072  19.865  0.00  0.00    +0.000 N 
ATOM     22  C   UNL     1      -0.849  14.213  19.445  0.00  0.00    +0.000 C 
ATOM     23  C   UNL     1      -2.191  12.974  21.111  0.00  0.00    +0.000 A 
ATOM     24  C   UNL     1      -3.025  13.892  21.766  0.00  0.00    +0.000 A 
ATOM     25  C   UNL     1      -3.384  13.579  23.064  0.00  0.00    +0.000 A 
ATOM     26  C   UNL     1      -2.834  12.450  23.683  0.00  0.00    +0.000 A 
ATOM     27  C   UNL     1      -1.952  11.565  23.003  0.00  0.00    +0.000 A 
ATOM     28  C   UNL     1      -1.665  11.766  21.636  0.00  0.00    +0.000 A 
ENDBRANCH  11  19
BRANCH  14  29
ATOM     29  C   UNL     1       1.486   6.493  21.339  0.00  0.00    +0.000 C 
BRANCH  29  30
ATOM     30  C   UNL     1       1.830   5.282  20.436  0.00  0.00    +0.000 C 
ATOM     31  C   UNL     1       2.843   4.319  21.034  0.00  0.00    +0.000 C 
ATOM     32  C   UNL     1       1.981   3.250  21.657  0.00  0.00    +0.000 C 
ATOM     33  C   UNL     1       0.844   3.167  20.667  0.00  0.00    +0.000 C 
ATOM     34  O   UNL     1       0.624   4.509  20.209  0.00  0.00    +0.000 OA
ENDBRANCH  29  30
ENDBRANCH  14  29
TORSDOF 3
ENDMDL
MODEL 9
REMARK VINA RESULT:      -6.7      0.958      1.922
REMARK  Name = 
REMARK  5 active torsions:
REMARK  status: ('A' for Active; 'I' for Inactive)
REMARK    1  A    between atoms: C_1  and  N_2
REMARK    2  A    between atoms: C_11  and  C_12
REMARK    3  A    between atoms: N_14  and  C_15
REMARK    4  A    between atoms: N_24  and  C_25
REMARK    5  A    between atoms: C_25  and  C_26
REMARK                            x       y       z     vdW  Elec       q    Type
REMARK                         _______ _______ _______ _____ _____    ______ ____
ROOT
ATOM      1  C   UNL     1      -5.346  14.317  23.812  0.00  0.00    +0.000 C 
ATOM      2  N   UNL     1      -3.965  14.121  23.353  0.00  0.00    +0.000 NA
ATOM      3  C   UNL     1      -3.936  13.669  21.941  0.00  0.00    +0.000 C 
ATOM      4  C   UNL     1      -2.493  13.405  21.416  0.00  0.00    +0.000 C 
ATOM      5  N   UNL     1      -1.806  12.479  22.310  0.00  0.00    +0.000 N 
ATOM      6  C   UNL     1      -0.985  11.466  21.857  0.00  0.00    +0.000 A 
ATOM      7  N   UNL     1      -0.374  10.705  22.769  0.00  0.00    +0.000 NA
ATOM      8  C   UNL     1       0.362   9.643  22.343  0.00  0.00    +0.000 A 
ATOM      9  C   UNL     1       0.548   9.306  21.017  0.00  0.00    +0.000 A 
ATOM     10  N   UNL     1       1.314   8.189  20.658  0.00  0.00    +0.000 NA
ATOM     11  C   UNL     1       1.543   7.902  19.402  0.00  0.00    +0.000 A 
ATOM     12  C   UNL     1       0.943   8.831  18.308  0.00  0.00    +0.000 A 
ATOM     13  O   UNL     1       1.188   8.598  17.129  0.00  0.00    +0.000 OA
ATOM     14  N   UNL     1       0.134   9.911  18.748  0.00  0.00    +0.000 N 
ATOM     15  C   UNL     1      -0.071  10.157  20.141  0.00  0.00    +0.000 A 
ATOM     16  N   UNL     1      -0.839  11.226  20.534  0.00  0.00    +0.000 NA
ATOM     17  C   UNL     1      -1.819  12.865  23.730  0.00  0.00    +0.000 C 
ATOM     18  C   UNL     1      -3.281  13.113  24.191  0.00  0.00    +0.000 C 
ENDROOT
BRANCH  11  19
ATOM     19  C   UNL     1       2.424   6.695  19.238  0.00  0.00    +0.000 A 
ATOM     20  C   UNL     1       1.856   5.426  19.442  0.00  0.00    +0.000 A 
ATOM     21  N   UNL     1       2.861   4.662  19.955  0.00  0.00    +0.000 N 
ATOM     22  C   UNL     1       2.936   4.151  21.302  0.00  0.00    +0.000 C 
ATOM     23  C   UNL     1       3.973   4.954  19.207  0.00  0.00    +0.000 A 
ATOM     24  C   UNL     1       5.077   4.135  18.928  0.00  0.00    +0.000 A 
ATOM     25  C   UNL     1       6.109   4.717  18.214  0.00  0.00    +0.000 A 
ATOM     26  C   UNL     1       6.053   6.081  17.902  0.00  0.00    +0.000 A 
ATOM     27  C   UNL     1       4.936   6.894  18.242  0.00  0.00    +0.000 A 
ATOM     28  C   UNL     1       3.801   6.315  18.849  0.00  0.00    +0.000 A 
ENDBRANCH  11  19
BRANCH  14  29
ATOM     29  C   UNL     1      -0.530  10.808  17.799  0.00  0.00    +0.000 C 
BRANCH  29  30
ATOM     30  C   UNL     1      -1.712  10.188  17.011  0.00  0.00    +0.000 C 
ATOM     31  C   UNL     1      -2.859   9.698  17.880  0.00  0.00    +0.000 C 
ATOM     32  C   UNL     1      -3.825  10.856  17.866  0.00  0.00    +0.000 C 
ATOM     33  C   UNL     1      -3.663  11.365  16.454  0.00  0.00    +0.000 C 
ATOM     34  O   UNL     1      -2.273  11.199  16.135  0.00  0.00    +0.000 OA
ENDBRANCH  29  30
ENDBRANCH  14  29
TORSDOF 3
ENDMDL
