MODEL 1
REMARK VINA RESULT:      -7.1      0.000      0.000
REMARK  Name = 
REMARK  6 active torsions:
REMARK  status: ('A' for Active; 'I' for Inactive)
REMARK    1  A    between atoms: C_1  and  C_2
REMARK    2  A    between atoms: C_4  and  C_5
REMARK    3  A    between atoms: C_7  and  C_8
REMARK    4  A    between atoms: C_8  and  O_10
REMARK    5  A    between atoms: O_10  and  C_11
REMARK    6  A    between atoms: C_11  and  C_12
REMARK                            x       y       z     vdW  Elec       q    Type
REMARK                         _______ _______ _______ _____ _____    ______ ____
ROOT
ATOM      1  C   UNL     1       3.274   3.607  17.164  0.00  0.00    +0.000 C 
ATOM      2  O   UNL     1       2.570   3.269  16.225  0.00  0.00    +0.000 OA
ENDROOT
BRANCH   1   9
ATOM      3  C   UNL     1       1.991   7.482  20.142  0.00  0.00    +0.000 C 
ATOM      4  C   UNL     1       2.127   6.007  19.904  0.00  0.00    +0.000 A 
ATOM      5  C   UNL     1       1.799   5.089  20.910  0.00  0.00    +0.000 A 
ATOM      6  C   UNL     1       1.934   3.712  20.699  0.00  0.00    +0.000 A 
ATOM      7  C   UNL     1       1.588   2.731  21.781  0.00  0.00    +0.000 C 
ATOM      8  C   UNL     1       2.403   3.254  19.460  0.00  0.00    +0.000 A 
ATOM      9  C   UNL     1       2.734   4.158  18.439  0.00  0.00    +0.000 A 
ATOM     10  C   UNL     1       2.597   5.534  18.669  0.00  0.00    +0.000 A 
ENDBRANCH   1   9
BRANCH   1  11
ATOM     11  O   UNL     1       4.624   3.483  17.216  0.00  0.00    +0.000 OA
BRANCH  11  12
ATOM     12  C   UNL     1       5.306   4.002  16.065  0.00  0.00    +0.000 C 
BRANCH  12  13
ATOM     13  C   UNL     1       5.612   5.490  16.289  0.00  0.00    +0.000 C 
ATOM     14  O   UNL     1       4.993   6.370  15.688  0.00  0.00    +0.000 OA
ATOM     15  N   UNL     1       6.623   5.806  17.168  0.00  0.00    +0.000 N 
ATOM     16  C   UNL     1       7.470   4.912  17.928  0.00  0.00    +0.000 C 
ATOM     17  C   UNL     1       7.949   5.777  19.084  0.00  0.00    +0.000 C 
ATOM     18  C   UNL     1       8.068   7.167  18.466  0.00  0.00    +0.000 C 
ATOM     19  C   UNL     1       7.011   7.191  17.367  0.00  0.00    +0.000 C 
ENDBRANCH  12  13
ENDBRANCH  11  12
ENDBRANCH   1  11
TORSDOF 4
ENDMDL
MODEL 2
REMARK VINA RESULT:      -7.1      0.092      1.981
REMARK  Name = 
REMARK  6 active torsions:
REMARK  status: ('A' for Active; 'I' for Inactive)
REMARK    1  A    between atoms: C_1  and  C_2
REMARK    2  A    between atoms: C_4  and  C_5
REMARK    3  A    between atoms: C_7  and  C_8
REMARK    4  A    between atoms: C_8  and  O_10
REMARK    5  A    between atoms: O_10  and  C_11
REMARK    6  A    between atoms: C_11  and  C_12
REMARK                            x       y       z     vdW  Elec       q    Type
REMARK                         _______ _______ _______ _____ _____    ______ ____
ROOT
ATOM      1  C   UNL     1       3.338   3.598  17.213  0.00  0.00    +0.000 C 
ATOM      2  O   UNL     1       2.610   3.347  16.266  0.00  0.00    +0.000 OA
ENDROOT
BRANCH   1   9
ATOM      3  C   UNL     1       1.544   2.719  21.855  0.00  0.00    +0.000 C 
ATOM      4  C   UNL     1       1.947   3.673  20.769  0.00  0.00    +0.000 A 
ATOM      5  C   UNL     1       1.804   5.056  20.946  0.00  0.00    +0.000 A 
ATOM      6  C   UNL     1       2.167   5.951  19.933  0.00  0.00    +0.000 A 
ATOM      7  C   UNL     1       2.007   7.431  20.123  0.00  0.00    +0.000 C 
ATOM      8  C   UNL     1       2.681   5.448  18.730  0.00  0.00    +0.000 A 
ATOM      9  C   UNL     1       2.834   4.067  18.535  0.00  0.00    +0.000 A 
ATOM     10  C   UNL     1       2.461   3.184  19.558  0.00  0.00    +0.000 A 
ENDBRANCH   1   9
BRANCH   1  11
ATOM     11  O   UNL     1       4.685   3.437  17.231  0.00  0.00    +0.000 OA
BRANCH  11  12
ATOM     12  C   UNL     1       5.350   3.929  16.059  0.00  0.00    +0.000 C 
BRANCH  12  13
ATOM     13  C   UNL     1       5.661   5.421  16.245  0.00  0.00    +0.000 C 
ATOM     14  O   UNL     1       5.068   6.285  15.596  0.00  0.00    +0.000 OA
ATOM     15  N   UNL     1       6.646   5.758  17.146  0.00  0.00    +0.000 N 
ATOM     16  C   UNL     1       7.460   4.884  17.960  0.00  0.00    +0.000 C 
ATOM     17  C   UNL     1       7.909   5.783  19.103  0.00  0.00    +0.000 C 
ATOM     18  C   UNL     1       8.059   7.151  18.445  0.00  0.00    +0.000 C 
ATOM     19  C   UNL     1       7.038   7.147  17.313  0.00  0.00    +0.000 C 
ENDBRANCH  12  13
ENDBRANCH  11  12
ENDBRANCH   1  11
TORSDOF 4
ENDMDL
MODEL 3
REMARK VINA RESULT:      -7.1      2.146      3.281
REMARK  Name = 
REMARK  6 active torsions:
REMARK  status: ('A' for Active; 'I' for Inactive)
REMARK    1  A    between atoms: C_1  and  C_2
REMARK    2  A    between atoms: C_4  and  C_5
REMARK    3  A    between atoms: C_7  and  C_8
REMARK    4  A    between atoms: C_8  and  O_10
REMARK    5  A    between atoms: O_10  and  C_11
REMARK    6  A    between atoms: C_11  and  C_12
REMARK                            x       y       z     vdW  Elec       q    Type
REMARK                         _______ _______ _______ _____ _____    ______ ____
ROOT
ATOM      1  C   UNL     1       5.332   4.294  18.510  0.00  0.00    +0.000 C 
ATOM      2  O   UNL     1       6.423   4.355  19.055  0.00  0.00    +0.000 OA
ENDROOT
BRANCH   1   9
ATOM      3  C   UNL     1       1.844   7.580  20.112  0.00  0.00    +0.000 C 
ATOM      4  C   UNL     1       2.364   6.177  20.003  0.00  0.00    +0.000 A 
ATOM      5  C   UNL     1       1.679   5.114  20.606  0.00  0.00    +0.000 A 
ATOM      6  C   UNL     1       2.165   3.804  20.519  0.00  0.00    +0.000 A 
ATOM      7  C   UNL     1       1.432   2.669  21.172  0.00  0.00    +0.000 C 
ATOM      8  C   UNL     1       3.352   3.562  19.814  0.00  0.00    +0.000 A 
ATOM      9  C   UNL     1       4.050   4.614  19.200  0.00  0.00    +0.000 A 
ATOM     10  C   UNL     1       3.552   5.920  19.302  0.00  0.00    +0.000 A 
ENDBRANCH   1   9
BRANCH   1  11
ATOM     11  O   UNL     1       5.123   3.989  17.205  0.00  0.00    +0.000 OA
BRANCH  11  12
ATOM     12  C   UNL     1       5.026   5.132  16.344  0.00  0.00    +0.000 C 
BRANCH  12  13
ATOM     13  C   UNL     1       6.324   5.264  15.533  0.00  0.00    +0.000 C 
ATOM     14  O   UNL     1       7.316   5.828  15.998  0.00  0.00    +0.000 OA
ATOM     15  N   UNL     1       6.330   4.752  14.255  0.00  0.00    +0.000 N 
ATOM     16  C   UNL     1       5.257   4.095  13.542  0.00  0.00    +0.000 C 
ATOM     17  C   UNL     1       5.985   3.278  12.484  0.00  0.00    +0.000 C 
ATOM     18  C   UNL     1       7.191   4.141  12.132  0.00  0.00    +0.000 C 
ATOM     19  C   UNL     1       7.501   4.910  13.411  0.00  0.00    +0.000 C 
ENDBRANCH  12  13
ENDBRANCH  11  12
ENDBRANCH   1  11
TORSDOF 4
ENDMDL
MODEL 4
REMARK VINA RESULT:      -6.8      2.796      7.075
REMARK  Name = 
REMARK  6 active torsions:
REMARK  status: ('A' for Active; 'I' for Inactive)
REMARK    1  A    between atoms: C_1  and  C_2
REMARK    2  A    between atoms: C_4  and  C_5
REMARK    3  A    between atoms: C_7  and  C_8
REMARK    4  A    between atoms: C_8  and  O_10
REMARK    5  A    between atoms: O_10  and  C_11
REMARK    6  A    between atoms: C_11  and  C_12
REMARK                            x       y       z     vdW  Elec       q    Type
REMARK                         _______ _______ _______ _____ _____    ______ ____
ROOT
ATOM      1  C   UNL     1       5.521   4.932  16.072  0.00  0.00    +0.000 C 
ATOM      2  O   UNL     1       5.704   5.978  16.674  0.00  0.00    +0.000 OA
ENDROOT
BRANCH   1   9
ATOM      3  C   UNL     1       5.364   2.481  11.656  0.00  0.00    +0.000 C 
ATOM      4  C   UNL     1       5.992   3.497  12.565  0.00  0.00    +0.000 A 
ATOM      5  C   UNL     1       7.131   4.206  12.162  0.00  0.00    +0.000 A 
ATOM      6  C   UNL     1       7.728   5.146  13.009  0.00  0.00    +0.000 A 
ATOM      7  C   UNL     1       8.952   5.900  12.576  0.00  0.00    +0.000 C 
ATOM      8  C   UNL     1       7.173   5.375  14.274  0.00  0.00    +0.000 A 
ATOM      9  C   UNL     1       6.030   4.677  14.695  0.00  0.00    +0.000 A 
ATOM     10  C   UNL     1       5.447   3.735  13.835  0.00  0.00    +0.000 A 
ENDBRANCH   1   9
BRANCH   1  11
ATOM     11  O   UNL     1       4.889   3.840  16.571  0.00  0.00    +0.000 OA
BRANCH  11  12
ATOM     12  C   UNL     1       3.760   4.145  17.402  0.00  0.00    +0.000 C 
BRANCH  12  13
ATOM     13  C   UNL     1       4.044   3.668  18.834  0.00  0.00    +0.000 C 
ATOM     14  O   UNL     1       5.194   3.609  19.274  0.00  0.00    +0.000 OA
ATOM     15  N   UNL     1       2.968   3.283  19.601  0.00  0.00    +0.000 N 
ATOM     16  C   UNL     1       1.567   3.254  19.241  0.00  0.00    +0.000 C 
ATOM     17  C   UNL     1       0.856   3.313  20.585  0.00  0.00    +0.000 C 
ATOM     18  C   UNL     1       1.783   2.536  21.515  0.00  0.00    +0.000 C 
ATOM     19  C   UNL     1       3.177   2.752  20.937  0.00  0.00    +0.000 C 
ENDBRANCH  12  13
ENDBRANCH  11  12
ENDBRANCH   1  11
TORSDOF 4
ENDMDL
MODEL 5
REMARK VINA RESULT:      -6.8      2.305      3.868
REMARK  Name = 
REMARK  6 active torsions:
REMARK  status: ('A' for Active; 'I' for Inactive)
REMARK    1  A    between atoms: C_1  and  C_2
REMARK    2  A    between atoms: C_4  and  C_5
REMARK    3  A    between atoms: C_7  and  C_8
REMARK    4  A    between atoms: C_8  and  O_10
REMARK    5  A    between atoms: O_10  and  C_11
REMARK    6  A    between atoms: C_11  and  C_12
REMARK                            x       y       z     vdW  Elec       q    Type
REMARK                         _______ _______ _______ _____ _____    ______ ____
ROOT
ATOM      1  C   UNL     1       5.466   4.747  18.707  0.00  0.00    +0.000 C 
ATOM      2  O   UNL     1       6.316   5.326  19.365  0.00  0.00    +0.000 OA
ENDROOT
BRANCH   1   9
ATOM      3  C   UNL     1       1.073   2.260  18.920  0.00  0.00    +0.000 C 
ATOM      4  C   UNL     1       1.903   3.473  19.221  0.00  0.00    +0.000 A 
ATOM      5  C   UNL     1       1.337   4.585  19.859  0.00  0.00    +0.000 A 
ATOM      6  C   UNL     1       2.102   5.724  20.132  0.00  0.00    +0.000 A 
ATOM      7  C   UNL     1       1.490   6.915  20.810  0.00  0.00    +0.000 C 
ATOM      8  C   UNL     1       3.453   5.744  19.759  0.00  0.00    +0.000 A 
ATOM      9  C   UNL     1       4.039   4.640  19.122  0.00  0.00    +0.000 A 
ATOM     10  C   UNL     1       3.256   3.508  18.852  0.00  0.00    +0.000 A 
ENDBRANCH   1   9
BRANCH   1  11
ATOM     11  O   UNL     1       5.669   4.173  17.495  0.00  0.00    +0.000 OA
BRANCH  11  12
ATOM     12  C   UNL     1       5.298   5.002  16.384  0.00  0.00    +0.000 C 
BRANCH  12  13
ATOM     13  C   UNL     1       6.526   5.223  15.488  0.00  0.00    +0.000 C 
ATOM     14  O   UNL     1       7.516   5.834  15.897  0.00  0.00    +0.000 OA
ATOM     15  N   UNL     1       6.471   4.735  14.202  0.00  0.00    +0.000 N 
ATOM     16  C   UNL     1       5.389   4.031  13.550  0.00  0.00    +0.000 C 
ATOM     17  C   UNL     1       6.086   3.276  12.427  0.00  0.00    +0.000 C 
ATOM     18  C   UNL     1       7.214   4.214  12.011  0.00  0.00    +0.000 C 
ATOM     19  C   UNL     1       7.570   4.976  13.283  0.00  0.00    +0.000 C 
ENDBRANCH  12  13
ENDBRANCH  11  12
ENDBRANCH   1  11
TORSDOF 4
ENDMDL
MODEL 6
REMARK VINA RESULT:      -6.8      2.199      3.802
REMARK  Name = 
REMARK  6 active torsions:
REMARK  status: ('A' for Active; 'I' for Inactive)
REMARK    1  A    between atoms: C_1  and  C_2
REMARK    2  A    between atoms: C_4  and  C_5
REMARK    3  A    between atoms: C_7  and  C_8
REMARK    4  A    between atoms: C_8  and  O_10
REMARK    5  A    between atoms: O_10  and  C_11
REMARK    6  A    between atoms: C_11  and  C_12
REMARK                            x       y       z     vdW  Elec       q    Type
REMARK                         _______ _______ _______ _____ _____    ______ ____
ROOT
ATOM      1  C   UNL     1       4.421   5.698  17.659  0.00  0.00    +0.000 C 
ATOM      2  O   UNL     1       4.399   6.622  16.859  0.00  0.00    +0.000 OA
ENDROOT
BRANCH   1   9
ATOM      3  C   UNL     1       1.419   2.790  20.498  0.00  0.00    +0.000 C 
ATOM      4  C   UNL     1       1.931   4.144  20.101  0.00  0.00    +0.000 A 
ATOM      5  C   UNL     1       1.419   5.303  20.698  0.00  0.00    +0.000 A 
ATOM      6  C   UNL     1       1.884   6.569  20.325  0.00  0.00    +0.000 A 
ATOM      7  C   UNL     1       1.328   7.809  20.961  0.00  0.00    +0.000 C 
ATOM      8  C   UNL     1       2.876   6.669  19.341  0.00  0.00    +0.000 A 
ATOM      9  C   UNL     1       3.404   5.519  18.733  0.00  0.00    +0.000 A 
ATOM     10  C   UNL     1       2.924   4.258  19.116  0.00  0.00    +0.000 A 
ENDBRANCH   1   9
BRANCH   1  11
ATOM     11  O   UNL     1       5.319   4.682  17.658  0.00  0.00    +0.000 OA
BRANCH  11  12
ATOM     12  C   UNL     1       5.404   3.975  16.413  0.00  0.00    +0.000 C 
BRANCH  12  13
ATOM     13  C   UNL     1       6.600   4.509  15.611  0.00  0.00    +0.000 C 
ATOM     14  O   UNL     1       7.551   5.060  16.169  0.00  0.00    +0.000 OA
ATOM     15  N   UNL     1       6.561   4.371  14.242  0.00  0.00    +0.000 N 
ATOM     16  C   UNL     1       5.521   3.787  13.424  0.00  0.00    +0.000 C 
ATOM     17  C   UNL     1       6.251   3.403  12.146  0.00  0.00    +0.000 C 
ATOM     18  C   UNL     1       7.305   4.494  11.994  0.00  0.00    +0.000 C 
ATOM     19  C   UNL     1       7.626   4.921  13.422  0.00  0.00    +0.000 C 
ENDBRANCH  12  13
ENDBRANCH  11  12
ENDBRANCH   1  11
TORSDOF 4
ENDMDL
MODEL 7
REMARK VINA RESULT:      -6.7      2.869      6.913
REMARK  Name = 
REMARK  6 active torsions:
REMARK  status: ('A' for Active; 'I' for Inactive)
REMARK    1  A    between atoms: C_1  and  C_2
REMARK    2  A    between atoms: C_4  and  C_5
REMARK    3  A    between atoms: C_7  and  C_8
REMARK    4  A    between atoms: C_8  and  O_10
REMARK    5  A    between atoms: O_10  and  C_11
REMARK    6  A    between atoms: C_11  and  C_12
REMARK                            x       y       z     vdW  Elec       q    Type
REMARK                         _______ _______ _______ _____ _____    ______ ____
ROOT
ATOM      1  C   UNL     1       6.126   4.241  16.195  0.00  0.00    +0.000 C 
ATOM      2  O   UNL     1       6.915   4.532  17.080  0.00  0.00    +0.000 OA
ENDROOT
BRANCH   1   9
ATOM      3  C   UNL     1       8.726   6.113  12.288  0.00  0.00    +0.000 C 
ATOM      4  C   UNL     1       7.690   5.178  12.840  0.00  0.00    +0.000 A 
ATOM      5  C   UNL     1       6.957   4.342  11.988  0.00  0.00    +0.000 A 
ATOM      6  C   UNL     1       5.981   3.476  12.495  0.00  0.00    +0.000 A 
ATOM      7  C   UNL     1       5.194   2.586  11.578  0.00  0.00    +0.000 C 
ATOM      8  C   UNL     1       5.741   3.452  13.875  0.00  0.00    +0.000 A 
ATOM      9  C   UNL     1       6.466   4.280  14.745  0.00  0.00    +0.000 A 
ATOM     10  C   UNL     1       7.438   5.144  14.220  0.00  0.00    +0.000 A 
ENDBRANCH   1   9
BRANCH   1  11
ATOM     11  O   UNL     1       4.861   3.791  16.390  0.00  0.00    +0.000 OA
BRANCH  11  12
ATOM     12  C   UNL     1       4.238   4.289  17.583  0.00  0.00    +0.000 C 
BRANCH  12  13
ATOM     13  C   UNL     1       2.897   3.570  17.790  0.00  0.00    +0.000 C 
ATOM     14  O   UNL     1       2.293   3.057  16.846  0.00  0.00    +0.000 OA
ATOM     15  N   UNL     1       2.382   3.540  19.066  0.00  0.00    +0.000 N 
ATOM     16  C   UNL     1       2.932   4.112  20.275  0.00  0.00    +0.000 C 
ATOM     17  C   UNL     1       2.275   3.300  21.380  0.00  0.00    +0.000 C 
ATOM     18  C   UNL     1       0.888   2.993  20.825  0.00  0.00    +0.000 C 
ATOM     19  C   UNL     1       1.082   2.940  19.314  0.00  0.00    +0.000 C 
ENDBRANCH  12  13
ENDBRANCH  11  12
ENDBRANCH   1  11
TORSDOF 4
ENDMDL
MODEL 8
REMARK VINA RESULT:      -6.7      2.332      5.656
REMARK  Name = 
REMARK  6 active torsions:
REMARK  status: ('A' for Active; 'I' for Inactive)
REMARK    1  A    between atoms: C_1  and  C_2
REMARK    2  A    between atoms: C_4  and  C_5
REMARK    3  A    between atoms: C_7  and  C_8
REMARK    4  A    between atoms: C_8  and  O_10
REMARK    5  A    between atoms: O_10  and  C_11
REMARK    6  A    between atoms: C_11  and  C_12
REMARK                            x       y       z     vdW  Elec       q    Type
REMARK                         _______ _______ _______ _____ _____    ______ ____
ROOT
ATOM      1  C   UNL     1       4.497   3.882  19.087  0.00  0.00    +0.000 C 
ATOM      2  O   UNL     1       4.883   3.020  19.861  0.00  0.00    +0.000 OA
ENDROOT
BRANCH   1   9
ATOM      3  C   UNL     1       7.741   7.470  17.626  0.00  0.00    +0.000 C 
ATOM      4  C   UNL     1       6.922   6.248  17.326  0.00  0.00    +0.000 A 
ATOM      5  C   UNL     1       6.911   5.695  16.039  0.00  0.00    +0.000 A 
ATOM      6  C   UNL     1       6.140   4.564  15.750  0.00  0.00    +0.000 A 
ATOM      7  C   UNL     1       6.126   3.978  14.368  0.00  0.00    +0.000 C 
ATOM      8  C   UNL     1       5.374   3.982  16.768  0.00  0.00    +0.000 A 
ATOM      9  C   UNL     1       5.374   4.519  18.064  0.00  0.00    +0.000 A 
ATOM     10  C   UNL     1       6.148   5.656  18.336  0.00  0.00    +0.000 A 
ENDBRANCH   1   9
BRANCH   1  11
ATOM     11  O   UNL     1       3.224   4.343  18.998  0.00  0.00    +0.000 OA
BRANCH  11  12
ATOM     12  C   UNL     1       2.933   5.435  19.882  0.00  0.00    +0.000 C 
BRANCH  12  13
ATOM     13  C   UNL     1       2.547   6.667  19.051  0.00  0.00    +0.000 C 
ATOM     14  O   UNL     1       2.809   6.737  17.848  0.00  0.00    +0.000 OA
ATOM     15  N   UNL     1       1.919   7.703  19.703  0.00  0.00    +0.000 N 
ATOM     16  C   UNL     1       1.567   7.807  21.102  0.00  0.00    +0.000 C 
ATOM     17  C   UNL     1       0.445   8.834  21.109  0.00  0.00    +0.000 C 
ATOM     18  C   UNL     1       0.827   9.790  19.983  0.00  0.00    +0.000 C 
ATOM     19  C   UNL     1       1.595   8.926  18.989  0.00  0.00    +0.000 C 
ENDBRANCH  12  13
ENDBRANCH  11  12
ENDBRANCH   1  11
TORSDOF 4
ENDMDL
MODEL 9
REMARK VINA RESULT:      -6.7      2.778      6.870
REMARK  Name = 
REMARK  6 active torsions:
REMARK  status: ('A' for Active; 'I' for Inactive)
REMARK    1  A    between atoms: C_1  and  C_2
REMARK    2  A    between atoms: C_4  and  C_5
REMARK    3  A    between atoms: C_7  and  C_8
REMARK    4  A    between atoms: C_8  and  O_10
REMARK    5  A    between atoms: O_10  and  C_11
REMARK    6  A    between atoms: C_11  and  C_12
REMARK                            x       y       z     vdW  Elec       q    Type
REMARK                         _______ _______ _______ _____ _____    ______ ____
ROOT
ATOM      1  C   UNL     1       5.293   4.848  16.061  0.00  0.00    +0.000 C 
ATOM      2  O   UNL     1       5.230   5.935  16.615  0.00  0.00    +0.000 OA
ENDROOT
BRANCH   1   9
ATOM      3  C   UNL     1       8.867   5.935  12.658  0.00  0.00    +0.000 C 
ATOM      4  C   UNL     1       7.657   5.153  13.078  0.00  0.00    +0.000 A 
ATOM      5  C   UNL     1       7.071   4.224  12.207  0.00  0.00    +0.000 A 
ATOM      6  C   UNL     1       5.936   3.499  12.587  0.00  0.00    +0.000 A 
ATOM      7  C   UNL     1       5.307   2.510  11.650  0.00  0.00    +0.000 C 
ATOM      8  C   UNL     1       5.385   3.711  13.858  0.00  0.00    +0.000 A 
ATOM      9  C   UNL     1       5.959   4.635  14.745  0.00  0.00    +0.000 A 
ATOM     10  C   UNL     1       7.094   5.356  14.347  0.00  0.00    +0.000 A 
ENDBRANCH   1   9
BRANCH   1  11
ATOM     11  O   UNL     1       4.830   3.680  16.572  0.00  0.00    +0.000 OA
BRANCH  11  12
ATOM     12  C   UNL     1       3.430   3.692  16.886  0.00  0.00    +0.000 C 
BRANCH  12  13
ATOM     13  C   UNL     1       3.162   2.707  18.034  0.00  0.00    +0.000 C 
ATOM     14  O   UNL     1       3.590   1.552  18.000  0.00  0.00    +0.000 OA
ATOM     15  N   UNL     1       2.406   3.156  19.093  0.00  0.00    +0.000 N 
ATOM     16  C   UNL     1       1.800   4.456  19.282  0.00  0.00    +0.000 C 
ATOM     17  C   UNL     1       1.617   4.543  20.790  0.00  0.00    +0.000 C 
ATOM     18  C   UNL     1       1.317   3.105  21.199  0.00  0.00    +0.000 C 
ATOM     19  C   UNL     1       2.056   2.251  20.174  0.00  0.00    +0.000 C 
ENDBRANCH  12  13
ENDBRANCH  11  12
ENDBRANCH   1  11
TORSDOF 4
ENDMDL
