MODEL 1
REMARK VINA RESULT:      -6.9      0.000      0.000
REMARK  Name = 
REMARK  6 active torsions:
REMARK  status: ('A' for Active; 'I' for Inactive)
REMARK    1  A    between atoms: C_1  and  C_2
REMARK    2  A    between atoms: C_2  and  C_3
REMARK    3  A    between atoms: N_5  and  C_6
REMARK    4  A    between atoms: C_6  and  C_7
REMARK    5  A    between atoms: C_7  and  C_8
REMARK    6  A    between atoms: C_11  and  C_12
REMARK                            x       y       z     vdW  Elec       q    Type
REMARK                         _______ _______ _______ _____ _____    ______ ____
ROOT
ATOM      1  C   UNL     1       5.363   5.011  19.127  0.00  0.00    +0.000 A 
ATOM      2  C   UNL     1       4.372   5.909  18.736  0.00  0.00    +0.000 A 
ATOM      3  C   UNL     1       3.071   5.444  18.561  0.00  0.00    +0.000 A 
ATOM      4  C   UNL     1       2.783   4.097  18.786  0.00  0.00    +0.000 A 
ATOM      5  C   UNL     1       3.824   3.280  19.198  0.00  0.00    +0.000 A 
ATOM      6  N   UNL     1       5.095   3.708  19.381  0.00  0.00    +0.000 NA
ENDROOT
BRANCH   4   7
ATOM      7  C   UNL     1       1.420   3.512  18.596  0.00  0.00    +0.000 C 
ATOM      8  F   UNL     1       1.434   2.181  18.310  0.00  0.00    +0.000 F 
ATOM      9  F   UNL     1       0.636   3.647  19.702  0.00  0.00    +0.000 F 
ATOM     10  F   UNL     1       0.734   4.104  17.580  0.00  0.00    +0.000 F 
ENDBRANCH   4   7
BRANCH   1  11
ATOM     11  C   UNL     1       6.778   5.491  19.327  0.00  0.00    +0.000 C 
BRANCH  11  12
ATOM     12  C   UNL     1       7.686   5.154  18.140  0.00  0.00    +0.000 C 
BRANCH  12  15
ATOM     13  C   UNL     1       6.946   4.620  15.849  0.00  0.00    +0.000 C 
ATOM     14  O   UNL     1       7.426   5.649  15.387  0.00  0.00    +0.000 OA
ATOM     15  N   UNL     1       7.050   4.271  17.177  0.00  0.00    +0.000 N 
ATOM     16  H   UNL     1       6.526   3.478  17.523  0.00  0.00    +0.000 HD
BRANCH  13  18
ATOM     17  C   UNL     1       5.857   4.147  13.639  0.00  0.00    +0.000 C 
ATOM     18  C   UNL     1       6.183   3.607  15.021  0.00  0.00    +0.000 C 
ENDBRANCH  13  18
ENDBRANCH  12  15
ENDBRANCH  11  12
ENDBRANCH   1  11
TORSDOF 5
ENDMDL
MODEL 2
REMARK VINA RESULT:      -6.9      0.486      1.106
REMARK  Name = 
REMARK  6 active torsions:
REMARK  status: ('A' for Active; 'I' for Inactive)
REMARK    1  A    between atoms: C_1  and  C_2
REMARK    2  A    between atoms: C_2  and  C_3
REMARK    3  A    between atoms: N_5  and  C_6
REMARK    4  A    between atoms: C_6  and  C_7
REMARK    5  A    between atoms: C_7  and  C_8
REMARK    6  A    between atoms: C_11  and  C_12
REMARK                            x       y       z     vdW  Elec       q    Type
REMARK                         _______ _______ _______ _____ _____    ______ ____
ROOT
ATOM      1  C   UNL     1       5.488   5.026  19.113  0.00  0.00    +0.000 A 
ATOM      2  C   UNL     1       4.548   5.966  18.700  0.00  0.00    +0.000 A 
ATOM      3  C   UNL     1       3.246   5.547  18.437  0.00  0.00    +0.000 A 
ATOM      4  C   UNL     1       2.906   4.203  18.600  0.00  0.00    +0.000 A 
ATOM      5  C   UNL     1       3.899   3.341  19.041  0.00  0.00    +0.000 A 
ATOM      6  N   UNL     1       5.169   3.724  19.308  0.00  0.00    +0.000 NA
ENDROOT
BRANCH   4   7
ATOM      7  C   UNL     1       1.540   3.667  18.316  0.00  0.00    +0.000 C 
ATOM      8  F   UNL     1       0.892   4.329  17.317  0.00  0.00    +0.000 F 
ATOM      9  F   UNL     1       1.561   2.358  17.941  0.00  0.00    +0.000 F 
ATOM     10  F   UNL     1       0.717   3.730  19.399  0.00  0.00    +0.000 F 
ENDBRANCH   4   7
BRANCH   1  11
ATOM     11  C   UNL     1       6.904   5.454  19.408  0.00  0.00    +0.000 C 
BRANCH  11  12
ATOM     12  C   UNL     1       7.894   4.986  18.337  0.00  0.00    +0.000 C 
BRANCH  12  15
ATOM     13  C   UNL     1       7.116   5.030  15.997  0.00  0.00    +0.000 C 
ATOM     14  O   UNL     1       7.593   6.141  15.793  0.00  0.00    +0.000 OA
ATOM     15  N   UNL     1       7.239   4.366  17.197  0.00  0.00    +0.000 N 
ATOM     16  H   UNL     1       6.717   3.513  17.347  0.00  0.00    +0.000 HD
BRANCH  13  18
ATOM     17  C   UNL     1       4.952   3.880  15.459  0.00  0.00    +0.000 C 
ATOM     18  C   UNL     1       6.337   4.251  14.958  0.00  0.00    +0.000 C 
ENDBRANCH  13  18
ENDBRANCH  12  15
ENDBRANCH  11  12
ENDBRANCH   1  11
TORSDOF 5
ENDMDL
MODEL 3
REMARK VINA RESULT:      -6.9      1.033      1.142
REMARK  Name = 
REMARK  6 active torsions:
REMARK  status: ('A' for Active; 'I' for Inactive)
REMARK    1  A    between atoms: C_1  and  C_2
REMARK    2  A    between atoms: C_2  and  C_3
REMARK    3  A    between atoms: N_5  and  C_6
REMARK    4  A    between atoms: C_6  and  C_7
REMARK    5  A    between atoms: C_7  and  C_8
REMARK    6  A    between atoms: C_11  and  C_12
REMARK                            x       y       z     vdW  Elec       q    Type
REMARK                         _______ _______ _______ _____ _____    ______ ____
ROOT
ATOM      1  C   UNL     1       4.850   5.183  18.344  0.00  0.00    +0.000 A 
ATOM      2  C   UNL     1       3.651   5.848  18.103  0.00  0.00    +0.000 A 
ATOM      3  C   UNL     1       2.456   5.247  18.491  0.00  0.00    +0.000 A 
ATOM      4  C   UNL     1       2.482   4.000  19.119  0.00  0.00    +0.000 A 
ATOM      5  C   UNL     1       3.723   3.423  19.344  0.00  0.00    +0.000 A 
ATOM      6  N   UNL     1       4.897   3.990  18.982  0.00  0.00    +0.000 NA
ENDROOT
BRANCH   4   7
ATOM      7  C   UNL     1       1.246   3.275  19.544  0.00  0.00    +0.000 C 
ATOM      8  F   UNL     1       1.492   2.207  20.353  0.00  0.00    +0.000 F 
ATOM      9  F   UNL     1       0.384   4.073  20.233  0.00  0.00    +0.000 F 
ATOM     10  F   UNL     1       0.537   2.787  18.489  0.00  0.00    +0.000 F 
ENDBRANCH   4   7
BRANCH   1  11
ATOM     11  C   UNL     1       6.158   5.816  17.937  0.00  0.00    +0.000 C 
BRANCH  11  12
ATOM     12  C   UNL     1       7.095   4.827  17.238  0.00  0.00    +0.000 C 
BRANCH  12  15
ATOM     13  C   UNL     1       6.788   4.520  14.810  0.00  0.00    +0.000 C 
ATOM     14  O   UNL     1       7.642   5.356  14.533  0.00  0.00    +0.000 OA
ATOM     15  N   UNL     1       6.472   4.166  16.102  0.00  0.00    +0.000 N 
ATOM     16  H   UNL     1       5.674   3.569  16.271  0.00  0.00    +0.000 HD
BRANCH  13  18
ATOM     17  C   UNL     1       6.672   3.775  12.417  0.00  0.00    +0.000 C 
ATOM     18  C   UNL     1       5.979   3.775  13.769  0.00  0.00    +0.000 C 
ENDBRANCH  13  18
ENDBRANCH  12  15
ENDBRANCH  11  12
ENDBRANCH   1  11
TORSDOF 5
ENDMDL
MODEL 4
REMARK VINA RESULT:      -6.8      1.995      3.183
REMARK  Name = 
REMARK  6 active torsions:
REMARK  status: ('A' for Active; 'I' for Inactive)
REMARK    1  A    between atoms: C_1  and  C_2
REMARK    2  A    between atoms: C_2  and  C_3
REMARK    3  A    between atoms: N_5  and  C_6
REMARK    4  A    between atoms: C_6  and  C_7
REMARK    5  A    between atoms: C_7  and  C_8
REMARK    6  A    between atoms: C_11  and  C_12
REMARK                            x       y       z     vdW  Elec       q    Type
REMARK                         _______ _______ _______ _____ _____    ______ ____
ROOT
ATOM      1  C   UNL     1       4.204   4.615  17.132  0.00  0.00    +0.000 A 
ATOM      2  C   UNL     1       3.251   3.611  17.291  0.00  0.00    +0.000 A 
ATOM      3  C   UNL     1       2.388   3.666  18.382  0.00  0.00    +0.000 A 
ATOM      4  C   UNL     1       2.487   4.723  19.289  0.00  0.00    +0.000 A 
ATOM      5  C   UNL     1       3.447   5.692  19.039  0.00  0.00    +0.000 A 
ATOM      6  N   UNL     1       4.292   5.665  17.983  0.00  0.00    +0.000 NA
ENDROOT
BRANCH   4   7
ATOM      7  C   UNL     1       1.619   4.844  20.500  0.00  0.00    +0.000 C 
ATOM      8  F   UNL     1       0.450   4.152  20.402  0.00  0.00    +0.000 F 
ATOM      9  F   UNL     1       2.230   4.384  21.627  0.00  0.00    +0.000 F 
ATOM     10  F   UNL     1       1.268   6.132  20.766  0.00  0.00    +0.000 F 
ENDBRANCH   4   7
BRANCH   1  11
ATOM     11  C   UNL     1       5.146   4.580  15.956  0.00  0.00    +0.000 C 
BRANCH  11  12
ATOM     12  C   UNL     1       6.603   4.365  16.377  0.00  0.00    +0.000 C 
BRANCH  12  15
ATOM     13  C   UNL     1       7.585   5.713  18.194  0.00  0.00    +0.000 C 
ATOM     14  O   UNL     1       7.453   4.814  19.018  0.00  0.00    +0.000 OA
ATOM     15  N   UNL     1       7.232   5.580  16.870  0.00  0.00    +0.000 N 
ATOM     16  H   UNL     1       7.245   6.393  16.270  0.00  0.00    +0.000 HD
BRANCH  13  18
ATOM     17  C   UNL     1       7.694   8.132  17.539  0.00  0.00    +0.000 C 
ATOM     18  C   UNL     1       8.154   7.076  18.529  0.00  0.00    +0.000 C 
ENDBRANCH  13  18
ENDBRANCH  12  15
ENDBRANCH  11  12
ENDBRANCH   1  11
TORSDOF 5
ENDMDL
MODEL 5
REMARK VINA RESULT:      -6.8      0.966      1.295
REMARK  Name = 
REMARK  6 active torsions:
REMARK  status: ('A' for Active; 'I' for Inactive)
REMARK    1  A    between atoms: C_1  and  C_2
REMARK    2  A    between atoms: C_2  and  C_3
REMARK    3  A    between atoms: N_5  and  C_6
REMARK    4  A    between atoms: C_6  and  C_7
REMARK    5  A    between atoms: C_7  and  C_8
REMARK    6  A    between atoms: C_11  and  C_12
REMARK                            x       y       z     vdW  Elec       q    Type
REMARK                         _______ _______ _______ _____ _____    ______ ____
ROOT
ATOM      1  C   UNL     1       5.154   4.973  19.209  0.00  0.00    +0.000 A 
ATOM      2  C   UNL     1       3.935   5.638  19.313  0.00  0.00    +0.000 A 
ATOM      3  C   UNL     1       2.791   4.905  19.619  0.00  0.00    +0.000 A 
ATOM      4  C   UNL     1       2.886   3.527  19.822  0.00  0.00    +0.000 A 
ATOM      5  C   UNL     1       4.144   2.952  19.725  0.00  0.00    +0.000 A 
ATOM      6  N   UNL     1       5.271   3.643  19.436  0.00  0.00    +0.000 NA
ENDROOT
BRANCH   4   7
ATOM      7  C   UNL     1       1.705   2.664  20.127  0.00  0.00    +0.000 C 
ATOM      8  F   UNL     1       1.677   2.214  21.412  0.00  0.00    +0.000 F 
ATOM      9  F   UNL     1       0.522   3.311  19.934  0.00  0.00    +0.000 F 
ATOM     10  F   UNL     1       1.652   1.553  19.342  0.00  0.00    +0.000 F 
ENDBRANCH   4   7
BRANCH   1  11
ATOM     11  C   UNL     1       6.408   5.745  18.884  0.00  0.00    +0.000 C 
BRANCH  11  12
ATOM     12  C   UNL     1       7.443   4.897  18.140  0.00  0.00    +0.000 C 
BRANCH  12  15
ATOM     13  C   UNL     1       6.924   4.552  15.754  0.00  0.00    +0.000 C 
ATOM     14  O   UNL     1       7.514   5.572  15.414  0.00  0.00    +0.000 OA
ATOM     15  N   UNL     1       6.862   4.118  17.059  0.00  0.00    +0.000 N 
ATOM     16  H   UNL     1       6.256   3.344  17.295  0.00  0.00    +0.000 HD
BRANCH  13  18
ATOM     17  C   UNL     1       5.444   4.441  13.731  0.00  0.00    +0.000 C 
ATOM     18  C   UNL     1       6.195   3.645  14.785  0.00  0.00    +0.000 C 
ENDBRANCH  13  18
ENDBRANCH  12  15
ENDBRANCH  11  12
ENDBRANCH   1  11
TORSDOF 5
ENDMDL
MODEL 6
REMARK VINA RESULT:      -6.8      1.840      2.947
REMARK  Name = 
REMARK  6 active torsions:
REMARK  status: ('A' for Active; 'I' for Inactive)
REMARK    1  A    between atoms: C_1  and  C_2
REMARK    2  A    between atoms: C_2  and  C_3
REMARK    3  A    between atoms: N_5  and  C_6
REMARK    4  A    between atoms: C_6  and  C_7
REMARK    5  A    between atoms: C_7  and  C_8
REMARK    6  A    between atoms: C_11  and  C_12
REMARK                            x       y       z     vdW  Elec       q    Type
REMARK                         _______ _______ _______ _____ _____    ______ ____
ROOT
ATOM      1  C   UNL     1       4.203   4.486  17.143  0.00  0.00    +0.000 A 
ATOM      2  C   UNL     1       3.639   5.658  17.641  0.00  0.00    +0.000 A 
ATOM      3  C   UNL     1       2.789   5.583  18.742  0.00  0.00    +0.000 A 
ATOM      4  C   UNL     1       2.525   4.344  19.328  0.00  0.00    +0.000 A 
ATOM      5  C   UNL     1       3.151   3.233  18.784  0.00  0.00    +0.000 A 
ATOM      6  N   UNL     1       3.985   3.280  17.719  0.00  0.00    +0.000 NA
ENDROOT
BRANCH   4   7
ATOM      7  C   UNL     1       1.606   4.173  20.494  0.00  0.00    +0.000 C 
ATOM      8  F   UNL     1       2.245   3.823  21.645  0.00  0.00    +0.000 F 
ATOM      9  F   UNL     1       0.914   5.310  20.784  0.00  0.00    +0.000 F 
ATOM     10  F   UNL     1       0.667   3.211  20.283  0.00  0.00    +0.000 F 
ENDBRANCH   4   7
BRANCH   1  11
ATOM     11  C   UNL     1       5.130   4.541  15.955  0.00  0.00    +0.000 C 
BRANCH  11  12
ATOM     12  C   UNL     1       6.590   4.284  16.338  0.00  0.00    +0.000 C 
BRANCH  12  15
ATOM     13  C   UNL     1       7.438   5.638  18.216  0.00  0.00    +0.000 C 
ATOM     14  O   UNL     1       7.120   4.797  19.049  0.00  0.00    +0.000 OA
ATOM     15  N   UNL     1       7.252   5.467  16.863  0.00  0.00    +0.000 N 
ATOM     16  H   UNL     1       7.415   6.244  16.238  0.00  0.00    +0.000 HD
BRANCH  13  18
ATOM     17  C   UNL     1       7.746   8.036  17.543  0.00  0.00    +0.000 C 
ATOM     18  C   UNL     1       8.075   6.966  18.571  0.00  0.00    +0.000 C 
ENDBRANCH  13  18
ENDBRANCH  12  15
ENDBRANCH  11  12
ENDBRANCH   1  11
TORSDOF 5
ENDMDL
MODEL 7
REMARK VINA RESULT:      -6.7      1.854      3.059
REMARK  Name = 
REMARK  6 active torsions:
REMARK  status: ('A' for Active; 'I' for Inactive)
REMARK    1  A    between atoms: C_1  and  C_2
REMARK    2  A    between atoms: C_2  and  C_3
REMARK    3  A    between atoms: N_5  and  C_6
REMARK    4  A    between atoms: C_6  and  C_7
REMARK    5  A    between atoms: C_7  and  C_8
REMARK    6  A    between atoms: C_11  and  C_12
REMARK                            x       y       z     vdW  Elec       q    Type
REMARK                         _______ _______ _______ _____ _____    ______ ____
ROOT
ATOM      1  C   UNL     1       4.060   3.710  17.331  0.00  0.00    +0.000 A 
ATOM      2  C   UNL     1       2.684   3.758  17.122  0.00  0.00    +0.000 A 
ATOM      3  C   UNL     1       1.836   3.837  18.224  0.00  0.00    +0.000 A 
ATOM      4  C   UNL     1       2.376   3.874  19.510  0.00  0.00    +0.000 A 
ATOM      5  C   UNL     1       3.758   3.849  19.624  0.00  0.00    +0.000 A 
ATOM      6  N   UNL     1       4.603   3.779  18.570  0.00  0.00    +0.000 NA
ENDROOT
BRANCH   4   7
ATOM      7  C   UNL     1       1.537   3.932  20.746  0.00  0.00    +0.000 C 
ATOM      8  F   UNL     1       0.622   4.940  20.735  0.00  0.00    +0.000 F 
ATOM      9  F   UNL     1       0.828   2.787  20.949  0.00  0.00    +0.000 F 
ATOM     10  F   UNL     1       2.279   4.114  21.873  0.00  0.00    +0.000 F 
ENDBRANCH   4   7
BRANCH   1  11
ATOM     11  C   UNL     1       4.999   3.629  16.154  0.00  0.00    +0.000 C 
BRANCH  11  12
ATOM     12  C   UNL     1       5.381   5.010  15.613  0.00  0.00    +0.000 C 
BRANCH  12  15
ATOM     13  C   UNL     1       7.241   5.568  17.132  0.00  0.00    +0.000 C 
ATOM     14  O   UNL     1       7.926   4.629  16.742  0.00  0.00    +0.000 OA
ATOM     15  N   UNL     1       5.998   5.859  16.619  0.00  0.00    +0.000 N 
ATOM     16  H   UNL     1       5.429   6.564  17.067  0.00  0.00    +0.000 HD
BRANCH  13  18
ATOM     17  C   UNL     1       7.811   7.944  17.702  0.00  0.00    +0.000 C 
ATOM     18  C   UNL     1       7.678   6.524  18.223  0.00  0.00    +0.000 C 
ENDBRANCH  13  18
ENDBRANCH  12  15
ENDBRANCH  11  12
ENDBRANCH   1  11
TORSDOF 5
ENDMDL
MODEL 8
REMARK VINA RESULT:      -6.6      1.962      3.176
REMARK  Name = 
REMARK  6 active torsions:
REMARK  status: ('A' for Active; 'I' for Inactive)
REMARK    1  A    between atoms: C_1  and  C_2
REMARK    2  A    between atoms: C_2  and  C_3
REMARK    3  A    between atoms: N_5  and  C_6
REMARK    4  A    between atoms: C_6  and  C_7
REMARK    5  A    between atoms: C_7  and  C_8
REMARK    6  A    between atoms: C_11  and  C_12
REMARK                            x       y       z     vdW  Elec       q    Type
REMARK                         _______ _______ _______ _____ _____    ______ ____
ROOT
ATOM      1  C   UNL     1       4.532   4.547  16.643  0.00  0.00    +0.000 A 
ATOM      2  C   UNL     1       4.227   3.304  17.189  0.00  0.00    +0.000 A 
ATOM      3  C   UNL     1       3.442   3.246  18.339  0.00  0.00    +0.000 A 
ATOM      4  C   UNL     1       2.972   4.428  18.914  0.00  0.00    +0.000 A 
ATOM      5  C   UNL     1       3.303   5.620  18.288  0.00  0.00    +0.000 A 
ATOM      6  N   UNL     1       4.058   5.702  17.168  0.00  0.00    +0.000 NA
ENDROOT
BRANCH   4   7
ATOM      7  C   UNL     1       2.147   4.456  20.161  0.00  0.00    +0.000 C 
ATOM      8  F   UNL     1       2.640   3.671  21.158  0.00  0.00    +0.000 F 
ATOM      9  F   UNL     1       2.044   5.708  20.689  0.00  0.00    +0.000 F 
ATOM     10  F   UNL     1       0.870   4.035  19.952  0.00  0.00    +0.000 F 
ENDBRANCH   4   7
BRANCH   1  11
ATOM     11  C   UNL     1       5.376   4.636  15.396  0.00  0.00    +0.000 C 
BRANCH  11  12
ATOM     12  C   UNL     1       6.877   4.632  15.702  0.00  0.00    +0.000 C 
BRANCH  12  15
ATOM     13  C   UNL     1       7.598   5.623  17.842  0.00  0.00    +0.000 C 
ATOM     14  O   UNL     1       7.603   4.539  18.415  0.00  0.00    +0.000 OA
ATOM     15  N   UNL     1       7.291   5.769  16.508  0.00  0.00    +0.000 N 
ATOM     16  H   UNL     1       7.179   6.697  16.124  0.00  0.00    +0.000 HD
BRANCH  13  18
ATOM     17  C   UNL     1       7.817   8.108  17.572  0.00  0.00    +0.000 C 
ATOM     18  C   UNL     1       7.931   6.932  18.527  0.00  0.00    +0.000 C 
ENDBRANCH  13  18
ENDBRANCH  12  15
ENDBRANCH  11  12
ENDBRANCH   1  11
TORSDOF 5
ENDMDL
MODEL 9
REMARK VINA RESULT:      -6.6      1.927      2.405
REMARK  Name = 
REMARK  6 active torsions:
REMARK  status: ('A' for Active; 'I' for Inactive)
REMARK    1  A    between atoms: C_1  and  C_2
REMARK    2  A    between atoms: C_2  and  C_3
REMARK    3  A    between atoms: N_5  and  C_6
REMARK    4  A    between atoms: C_6  and  C_7
REMARK    5  A    between atoms: C_7  and  C_8
REMARK    6  A    between atoms: C_11  and  C_12
REMARK                            x       y       z     vdW  Elec       q    Type
REMARK                         _______ _______ _______ _____ _____    ______ ____
ROOT
ATOM      1  C   UNL     1       4.182   4.748  17.388  0.00  0.00    +0.000 A 
ATOM      2  C   UNL     1       3.077   3.936  17.142  0.00  0.00    +0.000 A 
ATOM      3  C   UNL     1       2.254   3.575  18.205  0.00  0.00    +0.000 A 
ATOM      4  C   UNL     1       2.543   4.037  19.491  0.00  0.00    +0.000 A 
ATOM      5  C   UNL     1       3.647   4.862  19.640  0.00  0.00    +0.000 A 
ATOM      6  N   UNL     1       4.458   5.232  18.622  0.00  0.00    +0.000 NA
ENDROOT
BRANCH   4   7
ATOM      7  C   UNL     1       1.726   3.676  20.690  0.00  0.00    +0.000 C 
ATOM      8  F   UNL     1       1.573   2.334  20.860  0.00  0.00    +0.000 F 
ATOM      9  F   UNL     1       2.271   4.138  21.849  0.00  0.00    +0.000 F 
ATOM     10  F   UNL     1       0.468   4.192  20.639  0.00  0.00    +0.000 F 
ENDBRANCH   4   7
BRANCH   1  11
ATOM     11  C   UNL     1       5.086   5.156  16.253  0.00  0.00    +0.000 C 
BRANCH  11  12
ATOM     12  C   UNL     1       6.190   4.129  15.984  0.00  0.00    +0.000 C 
BRANCH  12  15
ATOM     13  C   UNL     1       6.959   4.408  13.657  0.00  0.00    +0.000 C 
ATOM     14  O   UNL     1       7.645   5.385  13.935  0.00  0.00    +0.000 OA
ATOM     15  N   UNL     1       6.237   3.703  14.595  0.00  0.00    +0.000 N 
ATOM     16  H   UNL     1       5.592   2.988  14.288  0.00  0.00    +0.000 HD
BRANCH  13  18
ATOM     17  C   UNL     1       5.463   3.210  12.038  0.00  0.00    +0.000 C 
ATOM     18  C   UNL     1       6.821   3.854  12.254  0.00  0.00    +0.000 C 
ENDBRANCH  13  18
ENDBRANCH  12  15
ENDBRANCH  11  12
ENDBRANCH   1  11
TORSDOF 5
ENDMDL
