MODEL 1
REMARK VINA RESULT:      -7.9      0.000      0.000
REMARK  Name = 
REMARK  13 active torsions:
REMARK  status: ('A' for Active; 'I' for Inactive)
REMARK    1  A    between atoms: C_1  and  C_2
REMARK    2  A    between atoms: C_2  and  C_3
REMARK    3  A    between atoms: C_3  and  C_4
REMARK    4  A    between atoms: C_4  and  N_5
REMARK    5  A    between atoms: N_5  and  C_6
REMARK    6  A    between atoms: N_5  and  S_8
REMARK    7  A    between atoms: C_6  and  C_7
REMARK    8  A    between atoms: S_8  and  C_11
REMARK    9  A    between atoms: C_14  and  C_15
REMARK   10  A    between atoms: C_15  and  N_17
REMARK   11  A    between atoms: C_22  and  N_23
REMARK   12  A    between atoms: C_24  and  C_25
REMARK   13  A    between atoms: N_30  and  C_31
REMARK                            x       y       z     vdW  Elec       q    Type
REMARK                         _______ _______ _______ _____ _____    ______ ____
ROOT
ATOM      1  C   UNL     1       1.244   8.911  19.927  0.00  0.00    +0.000 C 
ATOM      2  O   UNL     1       1.166   8.977  21.153  0.00  0.00    +0.000 OA
ENDROOT
BRANCH   1   3
ATOM      3  N   UNL     1       0.450   9.652  19.073  0.00  0.00    +0.000 NA
ATOM      4  C   UNL     1      -0.314  10.549  19.628  0.00  0.00    +0.000 A 
ATOM      5  S   UNL     1       0.012  11.239  21.248  0.00  0.00    +0.000 S 
ATOM      6  C   UNL     1      -1.516  12.108  21.210  0.00  0.00    +0.000 A 
ATOM      7  C   UNL     1      -2.012  12.846  22.258  0.00  0.00    +0.000 A 
ATOM      8  C   UNL     1      -3.246  13.473  22.150  0.00  0.00    +0.000 A 
ATOM      9  C   UNL     1      -3.976  13.283  20.959  0.00  0.00    +0.000 A 
ATOM     10  C   UNL     1      -3.444  12.528  19.877  0.00  0.00    +0.000 A 
ATOM     11  C   UNL     1      -2.181  11.948  19.992  0.00  0.00    +0.000 A 
ATOM     12  N   UNL     1      -1.464  11.146  19.085  0.00  0.00    +0.000 N 
ATOM     13  C   UNL     1      -1.676  11.231  17.657  0.00  0.00    +0.000 C 
BRANCH   8  14
ATOM     14  N   UNL     1      -3.777  14.253  23.209  0.00  0.00    +0.000 N 
ATOM     15  C   UNL     1      -3.713  15.641  23.294  0.00  0.00    +0.000 C 
ATOM     16  C   UNL     1      -4.349  16.230  24.523  0.00  0.00    +0.000 C 
ATOM     17  O   UNL     1      -3.222  16.411  22.472  0.00  0.00    +0.000 OA
ATOM     18  H   UNL     1      -4.284  13.758  23.931  0.00  0.00    +0.000 HD
ENDBRANCH   8  14
ENDBRANCH   1   3
BRANCH   1  22
ATOM     19  C   UNL     1       3.618   5.636  18.500  0.00  0.00    +0.000 A 
ATOM     20  C   UNL     1       2.944   5.554  19.715  0.00  0.00    +0.000 A 
ATOM     21  C   UNL     1       2.200   6.647  20.150  0.00  0.00    +0.000 A 
ATOM     22  C   UNL     1       2.109   7.824  19.380  0.00  0.00    +0.000 A 
ATOM     23  C   UNL     1       2.820   7.911  18.179  0.00  0.00    +0.000 A 
ATOM     24  C   UNL     1       3.586   6.816  17.741  0.00  0.00    +0.000 A 
BRANCH  19  25
ATOM     25  S   UNL     1       4.560   4.222  17.974  0.00  0.00    +0.000 S 
ATOM     26  O   UNL     1       3.667   3.376  17.214  0.00  0.00    +0.000 OA
ATOM     27  O   UNL     1       5.284   3.718  19.121  0.00  0.00    +0.000 OA
BRANCH  25  28
ATOM     28  N   UNL     1       5.722   4.897  16.880  0.00  0.00    +0.000 NA
BRANCH  28  29
ATOM     29  C   UNL     1       5.567   4.414  15.473  0.00  0.00    +0.000 C 
ATOM     30  C   UNL     1       6.817   4.589  14.624  0.00  0.00    +0.000 C 
ENDBRANCH  28  29
BRANCH  28  31
ATOM     31  C   UNL     1       7.119   4.899  17.412  0.00  0.00    +0.000 C 
BRANCH  31  32
ATOM     32  C   UNL     1       7.536   6.171  18.154  0.00  0.00    +0.000 C 
BRANCH  32  34
ATOM     33  C   UNL     1       8.173   8.595  17.999  0.00  0.00    +0.000 C 
ATOM     34  C   UNL     1       7.416   7.454  17.330  0.00  0.00    +0.000 C 
ENDBRANCH  32  34
ENDBRANCH  31  32
ENDBRANCH  28  31
ENDBRANCH  25  28
ENDBRANCH  19  25
ENDBRANCH   1  22
TORSDOF 9
ENDMDL
MODEL 2
REMARK VINA RESULT:      -7.7      2.281      3.346
REMARK  Name = 
REMARK  13 active torsions:
REMARK  status: ('A' for Active; 'I' for Inactive)
REMARK    1  A    between atoms: C_1  and  C_2
REMARK    2  A    between atoms: C_2  and  C_3
REMARK    3  A    between atoms: C_3  and  C_4
REMARK    4  A    between atoms: C_4  and  N_5
REMARK    5  A    between atoms: N_5  and  C_6
REMARK    6  A    between atoms: N_5  and  S_8
REMARK    7  A    between atoms: C_6  and  C_7
REMARK    8  A    between atoms: S_8  and  C_11
REMARK    9  A    between atoms: C_14  and  C_15
REMARK   10  A    between atoms: C_15  and  N_17
REMARK   11  A    between atoms: C_22  and  N_23
REMARK   12  A    between atoms: C_24  and  C_25
REMARK   13  A    between atoms: N_30  and  C_31
REMARK                            x       y       z     vdW  Elec       q    Type
REMARK                         _______ _______ _______ _____ _____    ______ ____
ROOT
ATOM      1  C   UNL     1       1.105   9.510  18.886  0.00  0.00    +0.000 C 
ATOM      2  O   UNL     1       1.190  10.226  19.883  0.00  0.00    +0.000 OA
ENDROOT
BRANCH   1   3
ATOM      3  N   UNL     1       0.142   9.676  17.911  0.00  0.00    +0.000 NA
ATOM      4  C   UNL     1      -0.887  10.407  18.233  0.00  0.00    +0.000 A 
ATOM      5  S   UNL     1      -0.852  11.606  19.561  0.00  0.00    +0.000 S 
ATOM      6  C   UNL     1      -2.577  11.896  19.376  0.00  0.00    +0.000 A 
ATOM      7  C   UNL     1      -3.317  12.711  20.198  0.00  0.00    +0.000 A 
ATOM      8  C   UNL     1      -4.684  12.854  19.996  0.00  0.00    +0.000 A 
ATOM      9  C   UNL     1      -5.275  12.101  18.961  0.00  0.00    +0.000 A 
ATOM     10  C   UNL     1      -4.494  11.272  18.109  0.00  0.00    +0.000 A 
ATOM     11  C   UNL     1      -3.116  11.183  18.302  0.00  0.00    +0.000 A 
ATOM     12  N   UNL     1      -2.151  10.421  17.618  0.00  0.00    +0.000 N 
ATOM     13  C   UNL     1      -2.333  10.012  16.243  0.00  0.00    +0.000 C 
BRANCH   8  14
ATOM     14  N   UNL     1      -5.470  13.699  20.819  0.00  0.00    +0.000 N 
ATOM     15  C   UNL     1      -6.260  13.275  21.884  0.00  0.00    +0.000 C 
ATOM     16  C   UNL     1      -7.003  14.370  22.598  0.00  0.00    +0.000 C 
ATOM     17  O   UNL     1      -6.383  12.126  22.302  0.00  0.00    +0.000 OA
ATOM     18  H   UNL     1      -5.409  14.694  20.642  0.00  0.00    +0.000 HD
ENDBRANCH   8  14
ENDBRANCH   1   3
BRANCH   1  22
ATOM     19  C   UNL     1       3.746   6.136  18.686  0.00  0.00    +0.000 A 
ATOM     20  C   UNL     1       3.734   7.095  17.677  0.00  0.00    +0.000 A 
ATOM     21  C   UNL     1       2.848   8.164  17.772  0.00  0.00    +0.000 A 
ATOM     22  C   UNL     1       1.976   8.298  18.871  0.00  0.00    +0.000 A 
ATOM     23  C   UNL     1       1.969   7.309  19.861  0.00  0.00    +0.000 A 
ATOM     24  C   UNL     1       2.851   6.218  19.763  0.00  0.00    +0.000 A 
BRANCH  19  25
ATOM     25  S   UNL     1       4.891   4.783  18.534  0.00  0.00    +0.000 S 
ATOM     26  O   UNL     1       4.653   3.899  19.653  0.00  0.00    +0.000 OA
ATOM     27  O   UNL     1       6.202   5.336  18.273  0.00  0.00    +0.000 OA
BRANCH  25  28
ATOM     28  N   UNL     1       4.370   3.977  17.091  0.00  0.00    +0.000 NA
BRANCH  28  29
ATOM     29  C   UNL     1       4.979   4.534  15.844  0.00  0.00    +0.000 C 
ATOM     30  C   UNL     1       6.061   3.650  15.243  0.00  0.00    +0.000 C 
ENDBRANCH  28  29
BRANCH  28  31
ATOM     31  C   UNL     1       2.897   3.733  17.037  0.00  0.00    +0.000 C 
BRANCH  31  32
ATOM     32  C   UNL     1       2.390   2.580  17.906  0.00  0.00    +0.000 C 
BRANCH  32  34
ATOM     33  C   UNL     1       1.261   2.810  20.138  0.00  0.00    +0.000 C 
ATOM     34  C   UNL     1       1.070   2.861  18.626  0.00  0.00    +0.000 C 
ENDBRANCH  32  34
ENDBRANCH  31  32
ENDBRANCH  28  31
ENDBRANCH  25  28
ENDBRANCH  19  25
ENDBRANCH   1  22
TORSDOF 9
ENDMDL
MODEL 3
REMARK VINA RESULT:      -7.7      2.403      3.424
REMARK  Name = 
REMARK  13 active torsions:
REMARK  status: ('A' for Active; 'I' for Inactive)
REMARK    1  A    between atoms: C_1  and  C_2
REMARK    2  A    between atoms: C_2  and  C_3
REMARK    3  A    between atoms: C_3  and  C_4
REMARK    4  A    between atoms: C_4  and  N_5
REMARK    5  A    between atoms: N_5  and  C_6
REMARK    6  A    between atoms: N_5  and  S_8
REMARK    7  A    between atoms: C_6  and  C_7
REMARK    8  A    between atoms: S_8  and  C_11
REMARK    9  A    between atoms: C_14  and  C_15
REMARK   10  A    between atoms: C_15  and  N_17
REMARK   11  A    between atoms: C_22  and  N_23
REMARK   12  A    between atoms: C_24  and  C_25
REMARK   13  A    between atoms: N_30  and  C_31
REMARK                            x       y       z     vdW  Elec       q    Type
REMARK                         _______ _______ _______ _____ _____    ______ ____
ROOT
ATOM      1  C   UNL     1       1.591   9.277  17.969  0.00  0.00    +0.000 C 
ATOM      2  O   UNL     1       0.454   9.019  17.575  0.00  0.00    +0.000 OA
ENDROOT
BRANCH   1   3
ATOM      3  N   UNL     1       2.089  10.561  18.064  0.00  0.00    +0.000 NA
ATOM      4  C   UNL     1       1.569  11.316  18.989  0.00  0.00    +0.000 A 
ATOM      5  S   UNL     1       0.730  10.656  20.426  0.00  0.00    +0.000 S 
ATOM      6  C   UNL     1       0.254  12.275  20.921  0.00  0.00    +0.000 A 
ATOM      7  C   UNL     1      -0.562  12.547  21.993  0.00  0.00    +0.000 A 
ATOM      8  C   UNL     1      -0.913  13.858  22.289  0.00  0.00    +0.000 A 
ATOM      9  C   UNL     1      -0.445  14.872  21.429  0.00  0.00    +0.000 A 
ATOM     10  C   UNL     1       0.410  14.576  20.331  0.00  0.00    +0.000 A 
ATOM     11  C   UNL     1       0.787  13.257  20.083  0.00  0.00    +0.000 A 
ATOM     12  N   UNL     1       1.588  12.719  19.059  0.00  0.00    +0.000 N 
ATOM     13  C   UNL     1       2.610  13.501  18.397  0.00  0.00    +0.000 C 
BRANCH   8  14
ATOM     14  N   UNL     1      -1.740  14.171  23.397  0.00  0.00    +0.000 N 
ATOM     15  C   UNL     1      -1.360  14.946  24.490  0.00  0.00    +0.000 C 
ATOM     16  C   UNL     1      -2.423  15.128  25.538  0.00  0.00    +0.000 C 
ATOM     17  O   UNL     1      -0.277  15.501  24.662  0.00  0.00    +0.000 OA
ATOM     18  H   UNL     1      -2.697  13.844  23.360  0.00  0.00    +0.000 HD
ENDBRANCH   8  14
ENDBRANCH   1   3
BRANCH   1  22
ATOM     19  C   UNL     1       4.051   5.826  18.628  0.00  0.00    +0.000 A 
ATOM     20  C   UNL     1       2.996   6.127  19.485  0.00  0.00    +0.000 A 
ATOM     21  C   UNL     1       2.235   7.266  19.246  0.00  0.00    +0.000 A 
ATOM     22  C   UNL     1       2.504   8.111  18.150  0.00  0.00    +0.000 A 
ATOM     23  C   UNL     1       3.589   7.822  17.316  0.00  0.00    +0.000 A 
ATOM     24  C   UNL     1       4.373   6.679  17.562  0.00  0.00    +0.000 A 
BRANCH  19  25
ATOM     25  S   UNL     1       5.005   4.362  18.963  0.00  0.00    +0.000 S 
ATOM     26  O   UNL     1       4.459   3.765  20.161  0.00  0.00    +0.000 OA
ATOM     27  O   UNL     1       6.405   4.712  18.863  0.00  0.00    +0.000 OA
BRANCH  25  28
ATOM     28  N   UNL     1       4.631   3.325  17.626  0.00  0.00    +0.000 NA
BRANCH  28  29
ATOM     29  C   UNL     1       4.713   4.010  16.299  0.00  0.00    +0.000 C 
ATOM     30  C   UNL     1       6.071   3.883  15.627  0.00  0.00    +0.000 C 
ENDBRANCH  28  29
BRANCH  28  31
ATOM     31  C   UNL     1       3.418   2.479  17.842  0.00  0.00    +0.000 C 
BRANCH  31  32
ATOM     32  C   UNL     1       2.084   3.147  17.499  0.00  0.00    +0.000 C 
BRANCH  32  34
ATOM     33  C   UNL     1       1.538   2.217  19.767  0.00  0.00    +0.000 C 
ATOM     34  C   UNL     1       1.027   3.054  18.600  0.00  0.00    +0.000 C 
ENDBRANCH  32  34
ENDBRANCH  31  32
ENDBRANCH  28  31
ENDBRANCH  25  28
ENDBRANCH  19  25
ENDBRANCH   1  22
TORSDOF 9
ENDMDL
MODEL 4
REMARK VINA RESULT:      -7.7      1.670      2.281
REMARK  Name = 
REMARK  13 active torsions:
REMARK  status: ('A' for Active; 'I' for Inactive)
REMARK    1  A    between atoms: C_1  and  C_2
REMARK    2  A    between atoms: C_2  and  C_3
REMARK    3  A    between atoms: C_3  and  C_4
REMARK    4  A    between atoms: C_4  and  N_5
REMARK    5  A    between atoms: N_5  and  C_6
REMARK    6  A    between atoms: N_5  and  S_8
REMARK    7  A    between atoms: C_6  and  C_7
REMARK    8  A    between atoms: S_8  and  C_11
REMARK    9  A    between atoms: C_14  and  C_15
REMARK   10  A    between atoms: C_15  and  N_17
REMARK   11  A    between atoms: C_22  and  N_23
REMARK   12  A    between atoms: C_24  and  C_25
REMARK   13  A    between atoms: N_30  and  C_31
REMARK                            x       y       z     vdW  Elec       q    Type
REMARK                         _______ _______ _______ _____ _____    ______ ____
ROOT
ATOM      1  C   UNL     1       1.464   8.781  19.543  0.00  0.00    +0.000 C 
ATOM      2  O   UNL     1       1.614   9.682  18.719  0.00  0.00    +0.000 OA
ENDROOT
BRANCH   1   3
ATOM      3  N   UNL     1       0.802   8.950  20.743  0.00  0.00    +0.000 NA
ATOM      4  C   UNL     1       0.038  10.000  20.838  0.00  0.00    +0.000 A 
ATOM      5  S   UNL     1      -0.623  10.856  19.412  0.00  0.00    +0.000 S 
ATOM      6  C   UNL     1      -1.282  12.117  20.445  0.00  0.00    +0.000 A 
ATOM      7  C   UNL     1      -1.904  13.251  19.981  0.00  0.00    +0.000 A 
ATOM      8  C   UNL     1      -2.364  14.212  20.872  0.00  0.00    +0.000 A 
ATOM      9  C   UNL     1      -2.126  14.000  22.245  0.00  0.00    +0.000 A 
ATOM     10  C   UNL     1      -1.493  12.814  22.712  0.00  0.00    +0.000 A 
ATOM     11  C   UNL     1      -1.083  11.842  21.801  0.00  0.00    +0.000 A 
ATOM     12  N   UNL     1      -0.421  10.619  22.013  0.00  0.00    +0.000 N 
ATOM     13  C   UNL     1      -0.535   9.895  23.261  0.00  0.00    +0.000 C 
BRANCH   8  14
ATOM     14  N   UNL     1      -3.023  15.385  20.423  0.00  0.00    +0.000 N 
ATOM     15  C   UNL     1      -2.478  16.666  20.435  0.00  0.00    +0.000 C 
ATOM     16  C   UNL     1      -3.384  17.744  19.908  0.00  0.00    +0.000 C 
ATOM     17  O   UNL     1      -1.350  16.987  20.802  0.00  0.00    +0.000 OA
ATOM     18  H   UNL     1      -3.942  15.266  20.018  0.00  0.00    +0.000 HD
ENDBRANCH   8  14
ENDBRANCH   1   3
BRANCH   1  22
ATOM     19  C   UNL     1       3.772   5.279  18.644  0.00  0.00    +0.000 A 
ATOM     20  C   UNL     1       3.775   6.376  17.788  0.00  0.00    +0.000 A 
ATOM     21  C   UNL     1       2.997   7.485  18.107  0.00  0.00    +0.000 A 
ATOM     22  C   UNL     1       2.219   7.520  19.282  0.00  0.00    +0.000 A 
ATOM     23  C   UNL     1       2.193   6.398  20.118  0.00  0.00    +0.000 A 
ATOM     24  C   UNL     1       2.966   5.268  19.792  0.00  0.00    +0.000 A 
BRANCH  19  25
ATOM     25  S   UNL     1       4.777   3.878  18.206  0.00  0.00    +0.000 S 
ATOM     26  O   UNL     1       3.953   2.997  17.409  0.00  0.00    +0.000 OA
ATOM     27  O   UNL     1       5.439   3.413  19.405  0.00  0.00    +0.000 OA
BRANCH  25  28
ATOM     28  N   UNL     1       5.989   4.561  17.173  0.00  0.00    +0.000 NA
BRANCH  28  29
ATOM     29  C   UNL     1       6.031   3.941  15.812  0.00  0.00    +0.000 C 
ATOM     30  C   UNL     1       5.853   4.939  14.679  0.00  0.00    +0.000 C 
ENDBRANCH  28  29
BRANCH  28  31
ATOM     31  C   UNL     1       7.314   4.744  17.839  0.00  0.00    +0.000 C 
BRANCH  31  32
ATOM     32  C   UNL     1       7.570   6.138  18.417  0.00  0.00    +0.000 C 
BRANCH  32  34
ATOM     33  C   UNL     1       7.108   8.482  17.643  0.00  0.00    +0.000 C 
ATOM     34  C   UNL     1       7.897   7.206  17.372  0.00  0.00    +0.000 C 
ENDBRANCH  32  34
ENDBRANCH  31  32
ENDBRANCH  28  31
ENDBRANCH  25  28
ENDBRANCH  19  25
ENDBRANCH   1  22
TORSDOF 9
ENDMDL
MODEL 5
REMARK VINA RESULT:      -7.7      2.558      3.731
REMARK  Name = 
REMARK  13 active torsions:
REMARK  status: ('A' for Active; 'I' for Inactive)
REMARK    1  A    between atoms: C_1  and  C_2
REMARK    2  A    between atoms: C_2  and  C_3
REMARK    3  A    between atoms: C_3  and  C_4
REMARK    4  A    between atoms: C_4  and  N_5
REMARK    5  A    between atoms: N_5  and  C_6
REMARK    6  A    between atoms: N_5  and  S_8
REMARK    7  A    between atoms: C_6  and  C_7
REMARK    8  A    between atoms: S_8  and  C_11
REMARK    9  A    between atoms: C_14  and  C_15
REMARK   10  A    between atoms: C_15  and  N_17
REMARK   11  A    between atoms: C_22  and  N_23
REMARK   12  A    between atoms: C_24  and  C_25
REMARK   13  A    between atoms: N_30  and  C_31
REMARK                            x       y       z     vdW  Elec       q    Type
REMARK                         _______ _______ _______ _____ _____    ______ ____
ROOT
ATOM      1  C   UNL     1       1.290   9.633  18.292  0.00  0.00    +0.000 C 
ATOM      2  O   UNL     1       0.284   9.526  17.593  0.00  0.00    +0.000 OA
ENDROOT
BRANCH   1   3
ATOM      3  N   UNL     1       1.681  10.818  18.886  0.00  0.00    +0.000 NA
ATOM      4  C   UNL     1       0.870  11.312  19.777  0.00  0.00    +0.000 A 
ATOM      5  S   UNL     1      -0.343  10.323  20.646  0.00  0.00    +0.000 S 
ATOM      6  C   UNL     1      -1.016  11.764  21.395  0.00  0.00    +0.000 A 
ATOM      7  C   UNL     1      -2.133  11.770  22.196  0.00  0.00    +0.000 A 
ATOM      8  C   UNL     1      -2.613  12.964  22.719  0.00  0.00    +0.000 A 
ATOM      9  C   UNL     1      -1.945  14.152  22.359  0.00  0.00    +0.000 A 
ATOM     10  C   UNL     1      -0.782  14.129  21.541  0.00  0.00    +0.000 A 
ATOM     11  C   UNL     1      -0.291  12.913  21.067  0.00  0.00    +0.000 A 
ATOM     12  N   UNL     1       0.808  12.640  20.232  0.00  0.00    +0.000 N 
ATOM     13  C   UNL     1       1.950  13.524  20.160  0.00  0.00    +0.000 C 
BRANCH   8  14
ATOM     14  N   UNL     1      -3.754  12.999  23.560  0.00  0.00    +0.000 N 
ATOM     15  C   UNL     1      -5.075  12.997  23.122  0.00  0.00    +0.000 C 
ATOM     16  C   UNL     1      -6.106  13.044  24.216  0.00  0.00    +0.000 C 
ATOM     17  O   UNL     1      -5.469  12.937  21.959  0.00  0.00    +0.000 OA
ATOM     18  H   UNL     1      -3.587  12.973  24.558  0.00  0.00    +0.000 HD
ENDBRANCH   8  14
ENDBRANCH   1   3
BRANCH   1  22
ATOM     19  C   UNL     1       3.789   6.154  18.506  0.00  0.00    +0.000 A 
ATOM     20  C   UNL     1       2.914   6.471  19.541  0.00  0.00    +0.000 A 
ATOM     21  C   UNL     1       2.135   7.619  19.440  0.00  0.00    +0.000 A 
ATOM     22  C   UNL     1       2.208   8.457  18.308  0.00  0.00    +0.000 A 
ATOM     23  C   UNL     1       3.117   8.151  17.290  0.00  0.00    +0.000 A 
ATOM     24  C   UNL     1       3.919   7.000  17.394  0.00  0.00    +0.000 A 
BRANCH  19  25
ATOM     25  S   UNL     1       4.771   4.679  18.667  0.00  0.00    +0.000 S 
ATOM     26  O   UNL     1       5.727   4.920  19.725  0.00  0.00    +0.000 OA
ATOM     27  O   UNL     1       5.194   4.280  17.342  0.00  0.00    +0.000 OA
BRANCH  25  28
ATOM     28  N   UNL     1       3.633   3.499  19.228  0.00  0.00    +0.000 NA
BRANCH  28  29
ATOM     29  C   UNL     1       4.256   2.177  19.550  0.00  0.00    +0.000 C 
ATOM     30  C   UNL     1       3.905   1.078  18.560  0.00  0.00    +0.000 C 
ENDBRANCH  28  29
BRANCH  28  31
ATOM     31  C   UNL     1       2.378   3.441  18.419  0.00  0.00    +0.000 C 
BRANCH  31  32
ATOM     32  C   UNL     1       1.129   2.988  19.179  0.00  0.00    +0.000 C 
BRANCH  32  34
ATOM     33  C   UNL     1       1.327   2.666  21.662  0.00  0.00    +0.000 C 
ATOM     34  C   UNL     1       0.952   3.640  20.551  0.00  0.00    +0.000 C 
ENDBRANCH  32  34
ENDBRANCH  31  32
ENDBRANCH  28  31
ENDBRANCH  25  28
ENDBRANCH  19  25
ENDBRANCH   1  22
TORSDOF 9
ENDMDL
MODEL 6
REMARK VINA RESULT:      -7.6      2.510      3.224
REMARK  Name = 
REMARK  13 active torsions:
REMARK  status: ('A' for Active; 'I' for Inactive)
REMARK    1  A    between atoms: C_1  and  C_2
REMARK    2  A    between atoms: C_2  and  C_3
REMARK    3  A    between atoms: C_3  and  C_4
REMARK    4  A    between atoms: C_4  and  N_5
REMARK    5  A    between atoms: N_5  and  C_6
REMARK    6  A    between atoms: N_5  and  S_8
REMARK    7  A    between atoms: C_6  and  C_7
REMARK    8  A    between atoms: S_8  and  C_11
REMARK    9  A    between atoms: C_14  and  C_15
REMARK   10  A    between atoms: C_15  and  N_17
REMARK   11  A    between atoms: C_22  and  N_23
REMARK   12  A    between atoms: C_24  and  C_25
REMARK   13  A    between atoms: N_30  and  C_31
REMARK                            x       y       z     vdW  Elec       q    Type
REMARK                         _______ _______ _______ _____ _____    ______ ____
ROOT
ATOM      1  C   UNL     1       0.886  10.203  18.628  0.00  0.00    +0.000 C 
ATOM      2  O   UNL     1       1.136  11.120  19.408  0.00  0.00    +0.000 OA
ENDROOT
BRANCH   1   3
ATOM      3  N   UNL     1      -0.106  10.270  17.669  0.00  0.00    +0.000 NA
ATOM      4  C   UNL     1      -1.226  10.828  18.034  0.00  0.00    +0.000 A 
ATOM      5  S   UNL     1      -1.345  11.960  19.415  0.00  0.00    +0.000 S 
ATOM      6  C   UNL     1      -3.095  12.003  19.259  0.00  0.00    +0.000 A 
ATOM      7  C   UNL     1      -3.933  12.665  20.125  0.00  0.00    +0.000 A 
ATOM      8  C   UNL     1      -5.309  12.616  19.942  0.00  0.00    +0.000 A 
ATOM      9  C   UNL     1      -5.801  11.832  18.878  0.00  0.00    +0.000 A 
ATOM     10  C   UNL     1      -4.921  11.164  17.982  0.00  0.00    +0.000 A 
ATOM     11  C   UNL     1      -3.542  11.268  18.158  0.00  0.00    +0.000 A 
ATOM     12  N   UNL     1      -2.487  10.685  17.432  0.00  0.00    +0.000 N 
ATOM     13  C   UNL     1      -2.630  10.315  16.041  0.00  0.00    +0.000 C 
BRANCH   8  14
ATOM     14  N   UNL     1      -6.197  13.301  20.809  0.00  0.00    +0.000 N 
ATOM     15  C   UNL     1      -6.715  14.574  20.587  0.00  0.00    +0.000 C 
ATOM     16  C   UNL     1      -7.635  15.081  21.663  0.00  0.00    +0.000 C 
ATOM     17  O   UNL     1      -6.519  15.292  19.609  0.00  0.00    +0.000 OA
ATOM     18  H   UNL     1      -6.514  12.798  21.628  0.00  0.00    +0.000 HD
ENDBRANCH   8  14
ENDBRANCH   1   3
BRANCH   1  22
ATOM     19  C   UNL     1       3.007   6.522  19.214  0.00  0.00    +0.000 A 
ATOM     20  C   UNL     1       3.084   7.206  18.004  0.00  0.00    +0.000 A 
ATOM     21  C   UNL     1       2.365   8.387  17.849  0.00  0.00    +0.000 A 
ATOM     22  C   UNL     1       1.573   8.906  18.894  0.00  0.00    +0.000 A 
ATOM     23  C   UNL     1       1.472   8.191  20.093  0.00  0.00    +0.000 A 
ATOM     24  C   UNL     1       2.185   6.989  20.250  0.00  0.00    +0.000 A 
BRANCH  19  25
ATOM     25  S   UNL     1       3.939   5.015  19.378  0.00  0.00    +0.000 S 
ATOM     26  O   UNL     1       3.316   4.244  20.430  0.00  0.00    +0.000 OA
ATOM     27  O   UNL     1       5.342   5.364  19.427  0.00  0.00    +0.000 OA
BRANCH  25  28
ATOM     28  N   UNL     1       3.657   4.202  17.875  0.00  0.00    +0.000 NA
BRANCH  28  29
ATOM     29  C   UNL     1       2.655   3.095  17.975  0.00  0.00    +0.000 C 
ATOM     30  C   UNL     1       1.211   3.571  17.945  0.00  0.00    +0.000 C 
ENDBRANCH  28  29
BRANCH  28  31
ATOM     31  C   UNL     1       4.906   3.876  17.123  0.00  0.00    +0.000 C 
BRANCH  31  32
ATOM     32  C   UNL     1       5.106   4.649  15.818  0.00  0.00    +0.000 C 
BRANCH  32  34
ATOM     33  C   UNL     1       6.198   3.901  13.683  0.00  0.00    +0.000 C 
ATOM     34  C   UNL     1       6.435   4.371  15.114  0.00  0.00    +0.000 C 
ENDBRANCH  32  34
ENDBRANCH  31  32
ENDBRANCH  28  31
ENDBRANCH  25  28
ENDBRANCH  19  25
ENDBRANCH   1  22
TORSDOF 9
ENDMDL
MODEL 7
REMARK VINA RESULT:      -7.6      1.528      1.780
REMARK  Name = 
REMARK  13 active torsions:
REMARK  status: ('A' for Active; 'I' for Inactive)
REMARK    1  A    between atoms: C_1  and  C_2
REMARK    2  A    between atoms: C_2  and  C_3
REMARK    3  A    between atoms: C_3  and  C_4
REMARK    4  A    between atoms: C_4  and  N_5
REMARK    5  A    between atoms: N_5  and  C_6
REMARK    6  A    between atoms: N_5  and  S_8
REMARK    7  A    between atoms: C_6  and  C_7
REMARK    8  A    between atoms: S_8  and  C_11
REMARK    9  A    between atoms: C_14  and  C_15
REMARK   10  A    between atoms: C_15  and  N_17
REMARK   11  A    between atoms: C_22  and  N_23
REMARK   12  A    between atoms: C_24  and  C_25
REMARK   13  A    between atoms: N_30  and  C_31
REMARK                            x       y       z     vdW  Elec       q    Type
REMARK                         _______ _______ _______ _____ _____    ______ ____
ROOT
ATOM      1  C   UNL     1       1.094   8.196  20.775  0.00  0.00    +0.000 C 
ATOM      2  O   UNL     1       0.279   7.948  21.663  0.00  0.00    +0.000 OA
ENDROOT
BRANCH   1   3
ATOM      3  N   UNL     1       1.186   9.423  20.149  0.00  0.00    +0.000 NA
ATOM      4  C   UNL     1       0.354  10.341  20.551  0.00  0.00    +0.000 A 
ATOM      5  S   UNL     1      -0.442  10.299  22.154  0.00  0.00    +0.000 S 
ATOM      6  C   UNL     1      -1.423  11.695  21.728  0.00  0.00    +0.000 A 
ATOM      7  C   UNL     1      -2.417  12.213  22.524  0.00  0.00    +0.000 A 
ATOM      8  C   UNL     1      -3.165  13.300  22.091  0.00  0.00    +0.000 A 
ATOM      9  C   UNL     1      -2.899  13.807  20.803  0.00  0.00    +0.000 A 
ATOM     10  C   UNL     1      -1.858  13.270  19.996  0.00  0.00    +0.000 A 
ATOM     11  C   UNL     1      -1.088  12.209  20.473  0.00  0.00    +0.000 A 
ATOM     12  N   UNL     1      -0.039  11.500  19.860  0.00  0.00    +0.000 N 
ATOM     13  C   UNL     1       0.794  12.098  18.840  0.00  0.00    +0.000 C 
BRANCH   8  14
ATOM     14  N   UNL     1      -4.186  13.866  22.896  0.00  0.00    +0.000 N 
ATOM     15  C   UNL     1      -5.497  13.403  22.973  0.00  0.00    +0.000 C 
ATOM     16  C   UNL     1      -6.390  14.181  23.900  0.00  0.00    +0.000 C 
ATOM     17  O   UNL     1      -5.973  12.430  22.393  0.00  0.00    +0.000 OA
ATOM     18  H   UNL     1      -3.921  14.636  23.496  0.00  0.00    +0.000 HD
ENDBRANCH   8  14
ENDBRANCH   1   3
BRANCH   1  22
ATOM     19  C   UNL     1       3.437   5.004  19.128  0.00  0.00    +0.000 A 
ATOM     20  C   UNL     1       3.397   6.252  18.513  0.00  0.00    +0.000 A 
ATOM     21  C   UNL     1       2.609   7.254  19.070  0.00  0.00    +0.000 A 
ATOM     22  C   UNL     1       1.864   7.033  20.246  0.00  0.00    +0.000 A 
ATOM     23  C   UNL     1       1.881   5.764  20.836  0.00  0.00    +0.000 A 
ATOM     24  C   UNL     1       2.664   4.742  20.269  0.00  0.00    +0.000 A 
BRANCH  19  25
ATOM     25  S   UNL     1       4.454   3.745  18.389  0.00  0.00    +0.000 S 
ATOM     26  O   UNL     1       3.598   2.958  17.531  0.00  0.00    +0.000 OA
ATOM     27  O   UNL     1       5.238   3.133  19.441  0.00  0.00    +0.000 OA
BRANCH  25  28
ATOM     28  N   UNL     1       5.542   4.645  17.385  0.00  0.00    +0.000 NA
BRANCH  28  29
ATOM     29  C   UNL     1       5.825   3.986  16.072  0.00  0.00    +0.000 C 
ATOM     30  C   UNL     1       5.467   4.842  14.867  0.00  0.00    +0.000 C 
ENDBRANCH  28  29
BRANCH  28  31
ATOM     31  C   UNL     1       6.736   5.172  18.113  0.00  0.00    +0.000 C 
BRANCH  31  32
ATOM     32  C   UNL     1       7.447   6.348  17.439  0.00  0.00    +0.000 C 
BRANCH  32  34
ATOM     33  C   UNL     1       8.060   8.751  17.841  0.00  0.00    +0.000 C 
ATOM     34  C   UNL     1       8.094   7.338  18.411  0.00  0.00    +0.000 C 
ENDBRANCH  32  34
ENDBRANCH  31  32
ENDBRANCH  28  31
ENDBRANCH  25  28
ENDBRANCH  19  25
ENDBRANCH   1  22
TORSDOF 9
ENDMDL
MODEL 8
REMARK VINA RESULT:      -7.6      1.778      2.141
REMARK  Name = 
REMARK  13 active torsions:
REMARK  status: ('A' for Active; 'I' for Inactive)
REMARK    1  A    between atoms: C_1  and  C_2
REMARK    2  A    between atoms: C_2  and  C_3
REMARK    3  A    between atoms: C_3  and  C_4
REMARK    4  A    between atoms: C_4  and  N_5
REMARK    5  A    between atoms: N_5  and  C_6
REMARK    6  A    between atoms: N_5  and  S_8
REMARK    7  A    between atoms: C_6  and  C_7
REMARK    8  A    between atoms: S_8  and  C_11
REMARK    9  A    between atoms: C_14  and  C_15
REMARK   10  A    between atoms: C_15  and  N_17
REMARK   11  A    between atoms: C_22  and  N_23
REMARK   12  A    between atoms: C_24  and  C_25
REMARK   13  A    between atoms: N_30  and  C_31
REMARK                            x       y       z     vdW  Elec       q    Type
REMARK                         _______ _______ _______ _____ _____    ______ ____
ROOT
ATOM      1  C   UNL     1       0.706  10.178  19.326  0.00  0.00    +0.000 C 
ATOM      2  O   UNL     1       0.869  10.755  20.401  0.00  0.00    +0.000 OA
ENDROOT
BRANCH   1   3
ATOM      3  N   UNL     1      -0.242  10.558  18.397  0.00  0.00    +0.000 NA
ATOM      4  C   UNL     1      -1.281  11.194  18.857  0.00  0.00    +0.000 A 
ATOM      5  S   UNL     1      -1.275  12.065  20.421  0.00  0.00    +0.000 S 
ATOM      6  C   UNL     1      -2.998  12.384  20.276  0.00  0.00    +0.000 A 
ATOM      7  C   UNL     1      -3.756  12.991  21.248  0.00  0.00    +0.000 A 
ATOM      8  C   UNL     1      -5.121  13.173  21.060  0.00  0.00    +0.000 A 
ATOM      9  C   UNL     1      -5.691  12.670  19.873  0.00  0.00    +0.000 A 
ATOM     10  C   UNL     1      -4.891  12.056  18.869  0.00  0.00    +0.000 A 
ATOM     11  C   UNL     1      -3.515  11.929  19.060  0.00  0.00    +0.000 A 
ATOM     12  N   UNL     1      -2.534  11.343  18.240  0.00  0.00    +0.000 N 
ATOM     13  C   UNL     1      -2.693  11.253  16.805  0.00  0.00    +0.000 C 
BRANCH   8  14
ATOM     14  N   UNL     1      -5.926  13.809  22.038  0.00  0.00    +0.000 N 
ATOM     15  C   UNL     1      -6.497  13.181  23.141  0.00  0.00    +0.000 C 
ATOM     16  C   UNL     1      -7.313  14.079  24.029  0.00  0.00    +0.000 C 
ATOM     17  O   UNL     1      -6.379  12.001  23.464  0.00  0.00    +0.000 OA
ATOM     18  H   UNL     1      -6.050  14.809  21.947  0.00  0.00    +0.000 HD
ENDBRANCH   8  14
ENDBRANCH   1   3
BRANCH   1  22
ATOM     19  C   UNL     1       2.935   6.585  18.610  0.00  0.00    +0.000 A 
ATOM     20  C   UNL     1       2.660   7.474  17.575  0.00  0.00    +0.000 A 
ATOM     21  C   UNL     1       1.918   8.618  17.846  0.00  0.00    +0.000 A 
ATOM     22  C   UNL     1       1.451   8.898  19.147  0.00  0.00    +0.000 A 
ATOM     23  C   UNL     1       1.700   7.980  20.173  0.00  0.00    +0.000 A 
ATOM     24  C   UNL     1       2.437   6.813  19.901  0.00  0.00    +0.000 A 
BRANCH  19  25
ATOM     25  S   UNL     1       3.887   5.131  18.228  0.00  0.00    +0.000 S 
ATOM     26  O   UNL     1       2.981   4.176  17.630  0.00  0.00    +0.000 OA
ATOM     27  O   UNL     1       4.675   4.797  19.394  0.00  0.00    +0.000 OA
BRANCH  25  28
ATOM     28  N   UNL     1       4.980   5.677  16.999  0.00  0.00    +0.000 NA
BRANCH  28  29
ATOM     29  C   UNL     1       5.719   4.567  16.322  0.00  0.00    +0.000 C 
ATOM     30  C   UNL     1       5.405   4.437  14.840  0.00  0.00    +0.000 C 
ENDBRANCH  28  29
BRANCH  28  31
ATOM     31  C   UNL     1       5.811   6.849  17.411  0.00  0.00    +0.000 C 
BRANCH  31  32
ATOM     32  C   UNL     1       7.325   6.646  17.312  0.00  0.00    +0.000 C 
BRANCH  32  34
ATOM     33  C   UNL     1       8.159   8.930  17.940  0.00  0.00    +0.000 C 
ATOM     34  C   UNL     1       8.140   7.454  18.322  0.00  0.00    +0.000 C 
ENDBRANCH  32  34
ENDBRANCH  31  32
ENDBRANCH  28  31
ENDBRANCH  25  28
ENDBRANCH  19  25
ENDBRANCH   1  22
TORSDOF 9
ENDMDL
MODEL 9
REMARK VINA RESULT:      -7.5      2.273      3.244
REMARK  Name = 
REMARK  13 active torsions:
REMARK  status: ('A' for Active; 'I' for Inactive)
REMARK    1  A    between atoms: C_1  and  C_2
REMARK    2  A    between atoms: C_2  and  C_3
REMARK    3  A    between atoms: C_3  and  C_4
REMARK    4  A    between atoms: C_4  and  N_5
REMARK    5  A    between atoms: N_5  and  C_6
REMARK    6  A    between atoms: N_5  and  S_8
REMARK    7  A    between atoms: C_6  and  C_7
REMARK    8  A    between atoms: S_8  and  C_11
REMARK    9  A    between atoms: C_14  and  C_15
REMARK   10  A    between atoms: C_15  and  N_17
REMARK   11  A    between atoms: C_22  and  N_23
REMARK   12  A    between atoms: C_24  and  C_25
REMARK   13  A    between atoms: N_30  and  C_31
REMARK                            x       y       z     vdW  Elec       q    Type
REMARK                         _______ _______ _______ _____ _____    ______ ____
ROOT
ATOM      1  C   UNL     1       0.705  10.421  18.995  0.00  0.00    +0.000 C 
ATOM      2  O   UNL     1      -0.080  10.481  18.050  0.00  0.00    +0.000 OA
ENDROOT
BRANCH   1   3
ATOM      3  N   UNL     1       1.075  11.520  19.746  0.00  0.00    +0.000 NA
ATOM      4  C   UNL     1       0.178  11.986  20.568  0.00  0.00    +0.000 A 
ATOM      5  S   UNL     1      -1.193  11.005  21.171  0.00  0.00    +0.000 S 
ATOM      6  C   UNL     1      -1.883  12.416  21.964  0.00  0.00    +0.000 A 
ATOM      7  C   UNL     1      -3.096  12.424  22.609  0.00  0.00    +0.000 A 
ATOM      8  C   UNL     1      -3.578  13.596  23.179  0.00  0.00    +0.000 A 
ATOM      9  C   UNL     1      -2.805  14.765  23.025  0.00  0.00    +0.000 A 
ATOM     10  C   UNL     1      -1.544  14.738  22.367  0.00  0.00    +0.000 A 
ATOM     11  C   UNL     1      -1.060  13.539  21.846  0.00  0.00    +0.000 A 
ATOM     12  N   UNL     1       0.126  13.269  21.139  0.00  0.00    +0.000 N 
ATOM     13  C   UNL     1       1.314  14.078  21.301  0.00  0.00    +0.000 C 
BRANCH   8  14
ATOM     14  N   UNL     1      -4.819  13.632  23.863  0.00  0.00    +0.000 N 
ATOM     15  C   UNL     1      -5.999  13.042  23.419  0.00  0.00    +0.000 C 
ATOM     16  C   UNL     1      -7.182  13.227  24.328  0.00  0.00    +0.000 C 
ATOM     17  O   UNL     1      -6.155  12.380  22.395  0.00  0.00    +0.000 OA
ATOM     18  H   UNL     1      -4.828  14.081  24.770  0.00  0.00    +0.000 HD
ENDBRANCH   8  14
ENDBRANCH   1   3
BRANCH   1  22
ATOM     19  C   UNL     1       2.894   6.749  19.334  0.00  0.00    +0.000 A 
ATOM     20  C   UNL     1       2.919   7.490  18.155  0.00  0.00    +0.000 A 
ATOM     21  C   UNL     1       2.179   8.665  18.081  0.00  0.00    +0.000 A 
ATOM     22  C   UNL     1       1.418   9.124  19.176  0.00  0.00    +0.000 A 
ATOM     23  C   UNL     1       1.370   8.353  20.343  0.00  0.00    +0.000 A 
ATOM     24  C   UNL     1       2.103   7.155  20.419  0.00  0.00    +0.000 A 
BRANCH  19  25
ATOM     25  S   UNL     1       3.851   5.250  19.395  0.00  0.00    +0.000 S 
ATOM     26  O   UNL     1       3.084   4.289  20.155  0.00  0.00    +0.000 OA
ATOM     27  O   UNL     1       5.204   5.601  19.767  0.00  0.00    +0.000 OA
BRANCH  25  28
ATOM     28  N   UNL     1       3.884   4.727  17.743  0.00  0.00    +0.000 NA
BRANCH  28  29
ATOM     29  C   UNL     1       2.955   3.589  17.460  0.00  0.00    +0.000 C 
ATOM     30  C   UNL     1       1.486   3.980  17.469  0.00  0.00    +0.000 C 
ENDBRANCH  28  29
BRANCH  28  31
ATOM     31  C   UNL     1       5.262   4.590  17.183  0.00  0.00    +0.000 C 
BRANCH  31  32
ATOM     32  C   UNL     1       5.368   3.766  15.897  0.00  0.00    +0.000 C 
BRANCH  32  34
ATOM     33  C   UNL     1       6.187   3.830  13.523  0.00  0.00    +0.000 C 
ATOM     34  C   UNL     1       5.453   4.599  14.617  0.00  0.00    +0.000 C 
ENDBRANCH  32  34
ENDBRANCH  31  32
ENDBRANCH  28  31
ENDBRANCH  25  28
ENDBRANCH  19  25
ENDBRANCH   1  22
TORSDOF 9
ENDMDL
