MODEL 1
REMARK VINA RESULT:      -6.7      0.000      0.000
REMARK  Name = 
REMARK  8 active torsions:
REMARK  status: ('A' for Active; 'I' for Inactive)
REMARK    1  A    between atoms: C_1  and  C_2
REMARK    2  A    between atoms: C_2  and  O_3
REMARK    3  A    between atoms: O_3  and  C_4
REMARK    4  A    between atoms: C_4  and  C_6
REMARK    5  A    between atoms: C_7  and  O_8
REMARK    6  A    between atoms: O_8  and  C_9
REMARK    7  A    between atoms: C_10  and  C_11
REMARK    8  A    between atoms: C_14  and  N_15
REMARK                            x       y       z     vdW  Elec       q    Type
REMARK                         _______ _______ _______ _____ _____    ______ ____
ROOT
ATOM      1  C   UNL     1       5.613   5.554  16.656  0.00  0.00    +0.000 A 
ATOM      2  C   UNL     1       4.698   4.889  17.392  0.00  0.00    +0.000 A 
ATOM      3  C   UNL     1       4.916   4.734  18.828  0.00  0.00    +0.000 A 
ATOM      4  C   UNL     1       6.052   5.189  19.382  0.00  0.00    +0.000 A 
ATOM      5  N   UNL     1       7.007   5.810  18.621  0.00  0.00    +0.000 N 
ATOM      6  C   UNL     1       6.863   6.055  17.277  0.00  0.00    +0.000 A 
ATOM      7  O   UNL     1       7.704   6.678  16.636  0.00  0.00    +0.000 OA
ATOM      8  H   UNL     1       7.854   6.166  19.054  0.00  0.00    +0.000 HD
ENDROOT
BRANCH   3   9
ATOM      9  C   UNL     1       3.915   4.155  19.733  0.00  0.00    +0.000 A 
ATOM     10  C   UNL     1       2.844   4.941  20.166  0.00  0.00    +0.000 A 
ATOM     11  C   UNL     1       1.904   4.412  21.050  0.00  0.00    +0.000 A 
ATOM     12  C   UNL     1       1.995   3.083  21.472  0.00  0.00    +0.000 A 
ATOM     13  C   UNL     1       3.079   2.310  21.047  0.00  0.00    +0.000 A 
ATOM     14  C   UNL     1       4.025   2.832  20.163  0.00  0.00    +0.000 A 
BRANCH  12  15
ATOM     15  N   UNL     1       1.150   2.612  22.483  0.00  0.00    +0.000 N 
ATOM     16  H   UNL     1       0.656   1.759  22.241  0.00  0.00    +0.000 HD
ATOM     17  H   UNL     1       1.587   2.563  23.396  0.00  0.00    +0.000 HD
ENDBRANCH  12  15
ENDBRANCH   3   9
BRANCH   1  18
ATOM     18  C   UNL     1       5.339   5.883  15.263  0.00  0.00    +0.000 C 
ATOM     19  O   UNL     1       5.094   7.008  14.865  0.00  0.00    +0.000 OA
BRANCH  18  20
ATOM     20  O   UNL     1       5.434   4.750  14.538  0.00  0.00    +0.000 OA
BRANCH  20  22
ATOM     21  C   UNL     1       6.339   3.663  12.664  0.00  0.00    +0.000 C 
ATOM     22  C   UNL     1       6.684   4.447  13.910  0.00  0.00    +0.000 C 
ENDBRANCH  20  22
ENDBRANCH  18  20
ENDBRANCH   1  18
BRANCH   2  23
ATOM     23  O   UNL     1       3.493   4.362  16.967  0.00  0.00    +0.000 OA
ATOM     24  C   UNL     1       3.379   2.956  16.763  0.00  0.00    +0.000 C 
ENDBRANCH   2  23
TORSDOF 6
ENDMDL
MODEL 2
REMARK VINA RESULT:      -6.7      0.430      1.137
REMARK  Name = 
REMARK  8 active torsions:
REMARK  status: ('A' for Active; 'I' for Inactive)
REMARK    1  A    between atoms: C_1  and  C_2
REMARK    2  A    between atoms: C_2  and  O_3
REMARK    3  A    between atoms: O_3  and  C_4
REMARK    4  A    between atoms: C_4  and  C_6
REMARK    5  A    between atoms: C_7  and  O_8
REMARK    6  A    between atoms: O_8  and  C_9
REMARK    7  A    between atoms: C_10  and  C_11
REMARK    8  A    between atoms: C_14  and  N_15
REMARK                            x       y       z     vdW  Elec       q    Type
REMARK                         _______ _______ _______ _____ _____    ______ ____
ROOT
ATOM      1  C   UNL     1       5.866   5.785  16.699  0.00  0.00    +0.000 A 
ATOM      2  C   UNL     1       4.927   5.122  17.406  0.00  0.00    +0.000 A 
ATOM      3  C   UNL     1       5.109   4.949  18.845  0.00  0.00    +0.000 A 
ATOM      4  C   UNL     1       6.236   5.386  19.431  0.00  0.00    +0.000 A 
ATOM      5  N   UNL     1       7.215   6.006  18.700  0.00  0.00    +0.000 N 
ATOM      6  C   UNL     1       7.106   6.265  17.355  0.00  0.00    +0.000 A 
ATOM      7  O   UNL     1       7.968   6.887  16.741  0.00  0.00    +0.000 OA
ATOM      8  H   UNL     1       8.055   6.348  19.156  0.00  0.00    +0.000 HD
ENDROOT
BRANCH   3   9
ATOM      9  C   UNL     1       4.080   4.371  19.720  0.00  0.00    +0.000 A 
ATOM     10  C   UNL     1       4.179   3.031  20.105  0.00  0.00    +0.000 A 
ATOM     11  C   UNL     1       3.192   2.463  20.909  0.00  0.00    +0.000 A 
ATOM     12  C   UNL     1       2.126   3.235  21.377  0.00  0.00    +0.000 A 
ATOM     13  C   UNL     1       2.026   4.570  20.973  0.00  0.00    +0.000 A 
ATOM     14  C   UNL     1       3.009   5.146  20.167  0.00  0.00    +0.000 A 
BRANCH  12  15
ATOM     15  N   UNL     1       1.057   2.620  22.041  0.00  0.00    +0.000 N 
ATOM     16  H   UNL     1       0.971   2.891  23.016  0.00  0.00    +0.000 HD
ATOM     17  H   UNL     1       0.177   2.675  21.543  0.00  0.00    +0.000 HD
ENDBRANCH  12  15
ENDBRANCH   3   9
BRANCH   1  18
ATOM     18  C   UNL     1       5.628   6.132  15.304  0.00  0.00    +0.000 C 
ATOM     19  O   UNL     1       4.845   6.991  14.940  0.00  0.00    +0.000 OA
BRANCH  18  20
ATOM     20  O   UNL     1       6.432   5.366  14.539  0.00  0.00    +0.000 OA
BRANCH  20  22
ATOM     21  C   UNL     1       6.274   3.750  12.843  0.00  0.00    +0.000 C 
ATOM     22  C   UNL     1       6.066   4.000  14.319  0.00  0.00    +0.000 C 
ENDBRANCH  20  22
ENDBRANCH  18  20
ENDBRANCH   1  18
BRANCH   2  23
ATOM     23  O   UNL     1       3.726   4.612  16.948  0.00  0.00    +0.000 OA
ATOM     24  C   UNL     1       3.598   3.208  16.742  0.00  0.00    +0.000 C 
ENDBRANCH   2  23
TORSDOF 6
ENDMDL
MODEL 3
REMARK VINA RESULT:      -6.6      1.748      2.936
REMARK  Name = 
REMARK  8 active torsions:
REMARK  status: ('A' for Active; 'I' for Inactive)
REMARK    1  A    between atoms: C_1  and  C_2
REMARK    2  A    between atoms: C_2  and  O_3
REMARK    3  A    between atoms: O_3  and  C_4
REMARK    4  A    between atoms: C_4  and  C_6
REMARK    5  A    between atoms: C_7  and  O_8
REMARK    6  A    between atoms: O_8  and  C_9
REMARK    7  A    between atoms: C_10  and  C_11
REMARK    8  A    between atoms: C_14  and  N_15
REMARK                            x       y       z     vdW  Elec       q    Type
REMARK                         _______ _______ _______ _____ _____    ______ ____
ROOT
ATOM      1  C   UNL     1       4.922   5.292  16.621  0.00  0.00    +0.000 A 
ATOM      2  C   UNL     1       4.082   5.092  17.657  0.00  0.00    +0.000 A 
ATOM      3  C   UNL     1       3.773   3.726  18.071  0.00  0.00    +0.000 A 
ATOM      4  C   UNL     1       4.269   2.690  17.373  0.00  0.00    +0.000 A 
ATOM      5  N   UNL     1       5.075   2.897  16.283  0.00  0.00    +0.000 N 
ATOM      6  C   UNL     1       5.467   4.143  15.858  0.00  0.00    +0.000 A 
ATOM      7  O   UNL     1       6.248   4.294  14.923  0.00  0.00    +0.000 OA
ATOM      8  H   UNL     1       5.459   2.107  15.775  0.00  0.00    +0.000 HD
ENDROOT
BRANCH   3   9
ATOM      9  C   UNL     1       2.987   3.409  19.270  0.00  0.00    +0.000 A 
ATOM     10  C   UNL     1       3.632   2.890  20.397  0.00  0.00    +0.000 A 
ATOM     11  C   UNL     1       2.891   2.556  21.530  0.00  0.00    +0.000 A 
ATOM     12  C   UNL     1       1.513   2.780  21.570  0.00  0.00    +0.000 A 
ATOM     13  C   UNL     1       0.874   3.283  20.432  0.00  0.00    +0.000 A 
ATOM     14  C   UNL     1       1.607   3.619  19.294  0.00  0.00    +0.000 A 
BRANCH  12  15
ATOM     15  N   UNL     1       0.756   2.290  22.641  0.00  0.00    +0.000 N 
ATOM     16  H   UNL     1      -0.243   2.274  22.464  0.00  0.00    +0.000 HD
ATOM     17  H   UNL     1       1.098   1.415  23.020  0.00  0.00    +0.000 HD
ENDBRANCH  12  15
ENDBRANCH   3   9
BRANCH   1  18
ATOM     18  C   UNL     1       5.391   6.635  16.302  0.00  0.00    +0.000 C 
ATOM     19  O   UNL     1       5.137   7.215  15.262  0.00  0.00    +0.000 OA
BRANCH  18  20
ATOM     20  O   UNL     1       6.103   7.090  17.353  0.00  0.00    +0.000 OA
BRANCH  20  22
ATOM     21  C   UNL     1       7.792   6.225  18.736  0.00  0.00    +0.000 C 
ATOM     22  C   UNL     1       7.511   6.838  17.383  0.00  0.00    +0.000 C 
ENDBRANCH  20  22
ENDBRANCH  18  20
ENDBRANCH   1  18
BRANCH   2  23
ATOM     23  O   UNL     1       3.490   6.048  18.463  0.00  0.00    +0.000 OA
ATOM     24  C   UNL     1       2.469   6.883  17.922  0.00  0.00    +0.000 C 
ENDBRANCH   2  23
TORSDOF 6
ENDMDL
MODEL 4
REMARK VINA RESULT:      -6.5      3.328      4.917
REMARK  Name = 
REMARK  8 active torsions:
REMARK  status: ('A' for Active; 'I' for Inactive)
REMARK    1  A    between atoms: C_1  and  C_2
REMARK    2  A    between atoms: C_2  and  O_3
REMARK    3  A    between atoms: O_3  and  C_4
REMARK    4  A    between atoms: C_4  and  C_6
REMARK    5  A    between atoms: C_7  and  O_8
REMARK    6  A    between atoms: O_8  and  C_9
REMARK    7  A    between atoms: C_10  and  C_11
REMARK    8  A    between atoms: C_14  and  N_15
REMARK                            x       y       z     vdW  Elec       q    Type
REMARK                         _______ _______ _______ _____ _____    ______ ____
ROOT
ATOM      1  C   UNL     1       4.282   4.241  17.548  0.00  0.00    +0.000 A 
ATOM      2  C   UNL     1       3.887   5.516  17.746  0.00  0.00    +0.000 A 
ATOM      3  C   UNL     1       2.579   5.771  18.345  0.00  0.00    +0.000 A 
ATOM      4  C   UNL     1       1.762   4.741  18.624  0.00  0.00    +0.000 A 
ATOM      5  N   UNL     1       2.143   3.450  18.366  0.00  0.00    +0.000 N 
ATOM      6  C   UNL     1       3.375   3.111  17.861  0.00  0.00    +0.000 A 
ATOM      7  O   UNL     1       3.714   1.941  17.708  0.00  0.00    +0.000 OA
ATOM      8  H   UNL     1       1.525   2.679  18.598  0.00  0.00    +0.000 HD
ENDROOT
BRANCH   3   9
ATOM      9  C   UNL     1       2.122   7.112  18.730  0.00  0.00    +0.000 A 
ATOM     10  C   UNL     1       1.893   7.399  20.079  0.00  0.00    +0.000 A 
ATOM     11  C   UNL     1       1.428   8.660  20.454  0.00  0.00    +0.000 A 
ATOM     12  C   UNL     1       1.233   9.658  19.496  0.00  0.00    +0.000 A 
ATOM     13  C   UNL     1       1.448   9.356  18.148  0.00  0.00    +0.000 A 
ATOM     14  C   UNL     1       1.912   8.097  17.765  0.00  0.00    +0.000 A 
BRANCH  12  15
ATOM     15  N   UNL     1       0.611  10.859  19.857  0.00  0.00    +0.000 N 
ATOM     16  H   UNL     1       1.131  11.688  19.587  0.00  0.00    +0.000 HD
ATOM     17  H   UNL     1      -0.366  10.911  19.595  0.00  0.00    +0.000 HD
ENDBRANCH  12  15
ENDBRANCH   3   9
BRANCH   1  18
ATOM     18  C   UNL     1       5.646   3.951  17.124  0.00  0.00    +0.000 C 
ATOM     19  O   UNL     1       5.951   3.622  15.991  0.00  0.00    +0.000 OA
BRANCH  18  20
ATOM     20  O   UNL     1       6.463   4.142  18.179  0.00  0.00    +0.000 OA
BRANCH  20  22
ATOM     21  C   UNL     1       7.775   5.917  18.981  0.00  0.00    +0.000 C 
ATOM     22  C   UNL     1       7.715   4.801  17.963  0.00  0.00    +0.000 C 
ENDBRANCH  20  22
ENDBRANCH  18  20
ENDBRANCH   1  18
BRANCH   2  23
ATOM     23  O   UNL     1       4.606   6.672  17.505  0.00  0.00    +0.000 OA
ATOM     24  C   UNL     1       4.990   6.991  16.171  0.00  0.00    +0.000 C 
ENDBRANCH   2  23
TORSDOF 6
ENDMDL
MODEL 5
REMARK VINA RESULT:      -6.5      3.299      4.911
REMARK  Name = 
REMARK  8 active torsions:
REMARK  status: ('A' for Active; 'I' for Inactive)
REMARK    1  A    between atoms: C_1  and  C_2
REMARK    2  A    between atoms: C_2  and  O_3
REMARK    3  A    between atoms: O_3  and  C_4
REMARK    4  A    between atoms: C_4  and  C_6
REMARK    5  A    between atoms: C_7  and  O_8
REMARK    6  A    between atoms: O_8  and  C_9
REMARK    7  A    between atoms: C_10  and  C_11
REMARK    8  A    between atoms: C_14  and  N_15
REMARK                            x       y       z     vdW  Elec       q    Type
REMARK                         _______ _______ _______ _____ _____    ______ ____
ROOT
ATOM      1  C   UNL     1       4.309   4.237  17.558  0.00  0.00    +0.000 A 
ATOM      2  C   UNL     1       3.902   5.509  17.750  0.00  0.00    +0.000 A 
ATOM      3  C   UNL     1       2.594   5.756  18.351  0.00  0.00    +0.000 A 
ATOM      4  C   UNL     1       1.787   4.720  18.636  0.00  0.00    +0.000 A 
ATOM      5  N   UNL     1       2.179   3.431  18.384  0.00  0.00    +0.000 N 
ATOM      6  C   UNL     1       3.413   3.101  17.878  0.00  0.00    +0.000 A 
ATOM      7  O   UNL     1       3.762   1.933  17.731  0.00  0.00    +0.000 OA
ATOM      8  H   UNL     1       1.568   2.656  18.621  0.00  0.00    +0.000 HD
ENDROOT
BRANCH   3   9
ATOM      9  C   UNL     1       2.125   7.095  18.730  0.00  0.00    +0.000 A 
ATOM     10  C   UNL     1       1.903   8.052  17.736  0.00  0.00    +0.000 A 
ATOM     11  C   UNL     1       1.487   9.336  18.086  0.00  0.00    +0.000 A 
ATOM     12  C   UNL     1       1.243   9.664  19.422  0.00  0.00    +0.000 A 
ATOM     13  C   UNL     1       1.484   8.705  20.411  0.00  0.00    +0.000 A 
ATOM     14  C   UNL     1       1.901   7.418  20.069  0.00  0.00    +0.000 A 
BRANCH  12  15
ATOM     15  N   UNL     1       0.990  10.993  19.780  0.00  0.00    +0.000 N 
ATOM     16  H   UNL     1       1.612  11.351  20.497  0.00  0.00    +0.000 HD
ATOM     17  H   UNL     1       0.904  11.623  18.991  0.00  0.00    +0.000 HD
ENDBRANCH  12  15
ENDBRANCH   3   9
BRANCH   1  18
ATOM     18  C   UNL     1       5.675   3.958  17.132  0.00  0.00    +0.000 C 
ATOM     19  O   UNL     1       5.981   3.630  16.000  0.00  0.00    +0.000 OA
BRANCH  18  20
ATOM     20  O   UNL     1       6.491   4.155  18.187  0.00  0.00    +0.000 OA
BRANCH  20  22
ATOM     21  C   UNL     1       7.787   5.852  19.166  0.00  0.00    +0.000 C 
ATOM     22  C   UNL     1       7.692   4.908  17.989  0.00  0.00    +0.000 C 
ENDBRANCH  20  22
ENDBRANCH  18  20
ENDBRANCH   1  18
BRANCH   2  23
ATOM     23  O   UNL     1       4.611   6.671  17.502  0.00  0.00    +0.000 OA
ATOM     24  C   UNL     1       5.016   6.971  16.169  0.00  0.00    +0.000 C 
ENDBRANCH   2  23
TORSDOF 6
ENDMDL
MODEL 6
REMARK VINA RESULT:      -6.4      1.743      2.963
REMARK  Name = 
REMARK  8 active torsions:
REMARK  status: ('A' for Active; 'I' for Inactive)
REMARK    1  A    between atoms: C_1  and  C_2
REMARK    2  A    between atoms: C_2  and  O_3
REMARK    3  A    between atoms: O_3  and  C_4
REMARK    4  A    between atoms: C_4  and  C_6
REMARK    5  A    between atoms: C_7  and  O_8
REMARK    6  A    between atoms: O_8  and  C_9
REMARK    7  A    between atoms: C_10  and  C_11
REMARK    8  A    between atoms: C_14  and  N_15
REMARK                            x       y       z     vdW  Elec       q    Type
REMARK                         _______ _______ _______ _____ _____    ______ ____
ROOT
ATOM      1  C   UNL     1       5.581   5.087  16.711  0.00  0.00    +0.000 A 
ATOM      2  C   UNL     1       4.704   4.904  17.720  0.00  0.00    +0.000 A 
ATOM      3  C   UNL     1       4.133   3.577  17.936  0.00  0.00    +0.000 A 
ATOM      4  C   UNL     1       4.430   2.578  17.087  0.00  0.00    +0.000 A 
ATOM      5  N   UNL     1       5.275   2.783  16.028  0.00  0.00    +0.000 N 
ATOM      6  C   UNL     1       5.905   3.978  15.782  0.00  0.00    +0.000 A 
ATOM      7  O   UNL     1       6.712   4.111  14.866  0.00  0.00    +0.000 OA
ATOM      8  H   UNL     1       5.507   2.016  15.404  0.00  0.00    +0.000 HD
ENDROOT
BRANCH   3   9
ATOM      9  C   UNL     1       3.285   3.246  19.089  0.00  0.00    +0.000 A 
ATOM     10  C   UNL     1       1.904   3.441  19.004  0.00  0.00    +0.000 A 
ATOM     11  C   UNL     1       1.093   3.160  20.103  0.00  0.00    +0.000 A 
ATOM     12  C   UNL     1       1.642   2.638  21.276  0.00  0.00    +0.000 A 
ATOM     13  C   UNL     1       3.027   2.463  21.358  0.00  0.00    +0.000 A 
ATOM     14  C   UNL     1       3.846   2.743  20.263  0.00  0.00    +0.000 A 
BRANCH  12  15
ATOM     15  N   UNL     1       0.850   2.517  22.425  0.00  0.00    +0.000 N 
ATOM     16  H   UNL     1       0.417   3.387  22.717  0.00  0.00    +0.000 HD
ATOM     17  H   UNL     1       0.192   1.747  22.392  0.00  0.00    +0.000 HD
ENDBRANCH  12  15
ENDBRANCH   3   9
BRANCH   1  18
ATOM     18  C   UNL     1       6.303   6.346  16.584  0.00  0.00    +0.000 C 
ATOM     19  O   UNL     1       5.829   7.356  16.095  0.00  0.00    +0.000 OA
BRANCH  18  20
ATOM     20  O   UNL     1       7.531   6.181  17.116  0.00  0.00    +0.000 OA
BRANCH  20  22
ATOM     21  C   UNL     1       7.907   5.761  19.396  0.00  0.00    +0.000 C 
ATOM     22  C   UNL     1       7.835   6.847  18.346  0.00  0.00    +0.000 C 
ENDBRANCH  20  22
ENDBRANCH  18  20
ENDBRANCH   1  18
BRANCH   2  23
ATOM     23  O   UNL     1       4.296   5.828  18.665  0.00  0.00    +0.000 OA
ATOM     24  C   UNL     1       3.246   6.736  18.345  0.00  0.00    +0.000 C 
ENDBRANCH   2  23
TORSDOF 6
ENDMDL
MODEL 7
REMARK VINA RESULT:      -6.4      3.425      4.660
REMARK  Name = 
REMARK  8 active torsions:
REMARK  status: ('A' for Active; 'I' for Inactive)
REMARK    1  A    between atoms: C_1  and  C_2
REMARK    2  A    between atoms: C_2  and  O_3
REMARK    3  A    between atoms: O_3  and  C_4
REMARK    4  A    between atoms: C_4  and  C_6
REMARK    5  A    between atoms: C_7  and  O_8
REMARK    6  A    between atoms: O_8  and  C_9
REMARK    7  A    between atoms: C_10  and  C_11
REMARK    8  A    between atoms: C_14  and  N_15
REMARK                            x       y       z     vdW  Elec       q    Type
REMARK                         _______ _______ _______ _____ _____    ______ ____
ROOT
ATOM      1  C   UNL     1       4.922   4.750  18.656  0.00  0.00    +0.000 A 
ATOM      2  C   UNL     1       4.268   5.915  18.468  0.00  0.00    +0.000 A 
ATOM      3  C   UNL     1       2.996   6.135  19.150  0.00  0.00    +0.000 A 
ATOM      4  C   UNL     1       2.459   5.153  19.893  0.00  0.00    +0.000 A 
ATOM      5  N   UNL     1       3.097   3.948  20.033  0.00  0.00    +0.000 N 
ATOM      6  C   UNL     1       4.324   3.672  19.480  0.00  0.00    +0.000 A 
ATOM      7  O   UNL     1       4.903   2.609  19.682  0.00  0.00    +0.000 OA
ATOM      8  H   UNL     1       2.691   3.219  20.612  0.00  0.00    +0.000 HD
ENDROOT
BRANCH   3   9
ATOM      9  C   UNL     1       2.283   7.419  19.124  0.00  0.00    +0.000 A 
ATOM     10  C   UNL     1       1.775   7.948  20.314  0.00  0.00    +0.000 A 
ATOM     11  C   UNL     1       1.069   9.150  20.296  0.00  0.00    +0.000 A 
ATOM     12  C   UNL     1       0.906   9.860  19.104  0.00  0.00    +0.000 A 
ATOM     13  C   UNL     1       1.402   9.315  17.916  0.00  0.00    +0.000 A 
ATOM     14  C   UNL     1       2.108   8.112  17.925  0.00  0.00    +0.000 A 
BRANCH  12  15
ATOM     15  N   UNL     1       0.058  10.974  19.065  0.00  0.00    +0.000 N 
ATOM     16  H   UNL     1       0.491  11.830  19.399  0.00  0.00    +0.000 HD
ATOM     17  H   UNL     1      -0.418  11.099  18.180  0.00  0.00    +0.000 HD
ENDBRANCH  12  15
ENDBRANCH   3   9
BRANCH   1  18
ATOM     18  C   UNL     1       6.273   4.573  18.139  0.00  0.00    +0.000 C 
ATOM     19  O   UNL     1       7.281   4.891  18.745  0.00  0.00    +0.000 OA
BRANCH  18  20
ATOM     20  O   UNL     1       6.185   3.988  16.927  0.00  0.00    +0.000 OA
BRANCH  20  22
ATOM     21  C   UNL     1       6.397   4.082  14.591  0.00  0.00    +0.000 C 
ATOM     22  C   UNL     1       7.081   4.415  15.897  0.00  0.00    +0.000 C 
ENDBRANCH  20  22
ENDBRANCH  18  20
ENDBRANCH   1  18
BRANCH   2  23
ATOM     23  O   UNL     1       4.685   7.010  17.734  0.00  0.00    +0.000 OA
ATOM     24  C   UNL     1       4.708   6.928  16.311  0.00  0.00    +0.000 C 
ENDBRANCH   2  23
TORSDOF 6
ENDMDL
MODEL 8
REMARK VINA RESULT:      -6.4      3.395      4.667
REMARK  Name = 
REMARK  8 active torsions:
REMARK  status: ('A' for Active; 'I' for Inactive)
REMARK    1  A    between atoms: C_1  and  C_2
REMARK    2  A    between atoms: C_2  and  O_3
REMARK    3  A    between atoms: O_3  and  C_4
REMARK    4  A    between atoms: C_4  and  C_6
REMARK    5  A    between atoms: C_7  and  O_8
REMARK    6  A    between atoms: O_8  and  C_9
REMARK    7  A    between atoms: C_10  and  C_11
REMARK    8  A    between atoms: C_14  and  N_15
REMARK                            x       y       z     vdW  Elec       q    Type
REMARK                         _______ _______ _______ _____ _____    ______ ____
ROOT
ATOM      1  C   UNL     1       4.915   4.730  18.660  0.00  0.00    +0.000 A 
ATOM      2  C   UNL     1       4.255   5.895  18.486  0.00  0.00    +0.000 A 
ATOM      3  C   UNL     1       2.981   6.101  19.169  0.00  0.00    +0.000 A 
ATOM      4  C   UNL     1       2.448   5.106  19.899  0.00  0.00    +0.000 A 
ATOM      5  N   UNL     1       3.092   3.903  20.026  0.00  0.00    +0.000 N 
ATOM      6  C   UNL     1       4.321   3.640  19.470  0.00  0.00    +0.000 A 
ATOM      7  O   UNL     1       4.905   2.577  19.661  0.00  0.00    +0.000 OA
ATOM      8  H   UNL     1       2.689   3.165  20.595  0.00  0.00    +0.000 HD
ENDROOT
BRANCH   3   9
ATOM      9  C   UNL     1       2.262   7.381  19.157  0.00  0.00    +0.000 A 
ATOM     10  C   UNL     1       2.076   8.054  17.946  0.00  0.00    +0.000 A 
ATOM     11  C   UNL     1       1.423   9.286  17.926  0.00  0.00    +0.000 A 
ATOM     12  C   UNL     1       0.907   9.834  19.102  0.00  0.00    +0.000 A 
ATOM     13  C   UNL     1       1.112   9.162  20.311  0.00  0.00    +0.000 A 
ATOM     14  C   UNL     1       1.766   7.930  20.340  0.00  0.00    +0.000 A 
BRANCH  12  15
ATOM     15  N   UNL     1       0.403  11.141  19.101  0.00  0.00    +0.000 N 
ATOM     16  H   UNL     1       0.825  11.743  19.801  0.00  0.00    +0.000 HD
ATOM     17  H   UNL     1       0.375  11.570  18.184  0.00  0.00    +0.000 HD
ENDBRANCH  12  15
ENDBRANCH   3   9
BRANCH   1  18
ATOM     18  C   UNL     1       6.267   4.566  18.143  0.00  0.00    +0.000 C 
ATOM     19  O   UNL     1       7.272   4.886  18.753  0.00  0.00    +0.000 OA
BRANCH  18  20
ATOM     20  O   UNL     1       6.184   3.991  16.927  0.00  0.00    +0.000 OA
BRANCH  20  22
ATOM     21  C   UNL     1       6.400   4.103  14.591  0.00  0.00    +0.000 C 
ATOM     22  C   UNL     1       7.080   4.431  15.901  0.00  0.00    +0.000 C 
ENDBRANCH  20  22
ENDBRANCH  18  20
ENDBRANCH   1  18
BRANCH   2  23
ATOM     23  O   UNL     1       4.667   7.001  17.765  0.00  0.00    +0.000 OA
ATOM     24  C   UNL     1       4.698   6.934  16.342  0.00  0.00    +0.000 C 
ENDBRANCH   2  23
TORSDOF 6
ENDMDL
MODEL 9
REMARK VINA RESULT:      -6.3      4.196      5.722
REMARK  Name = 
REMARK  8 active torsions:
REMARK  status: ('A' for Active; 'I' for Inactive)
REMARK    1  A    between atoms: C_1  and  C_2
REMARK    2  A    between atoms: C_2  and  O_3
REMARK    3  A    between atoms: O_3  and  C_4
REMARK    4  A    between atoms: C_4  and  C_6
REMARK    5  A    between atoms: C_7  and  O_8
REMARK    6  A    between atoms: O_8  and  C_9
REMARK    7  A    between atoms: C_10  and  C_11
REMARK    8  A    between atoms: C_14  and  N_15
REMARK                            x       y       z     vdW  Elec       q    Type
REMARK                         _______ _______ _______ _____ _____    ______ ____
ROOT
ATOM      1  C   UNL     1       1.768   8.475  19.148  0.00  0.00    +0.000 A 
ATOM      2  C   UNL     1       2.307   7.312  18.726  0.00  0.00    +0.000 A 
ATOM      3  C   UNL     1       2.331   6.167  19.633  0.00  0.00    +0.000 A 
ATOM      4  C   UNL     1       1.886   6.307  20.893  0.00  0.00    +0.000 A 
ATOM      5  N   UNL     1       1.394   7.506  21.338  0.00  0.00    +0.000 N 
ATOM      6  C   UNL     1       1.277   8.619  20.540  0.00  0.00    +0.000 A 
ATOM      7  O   UNL     1       0.766   9.658  20.946  0.00  0.00    +0.000 OA
ATOM      8  H   UNL     1       1.043   7.595  22.286  0.00  0.00    +0.000 HD
ENDROOT
BRANCH   3   9
ATOM      9  C   UNL     1       2.764   4.826  19.221  0.00  0.00    +0.000 A 
ATOM     10  C   UNL     1       1.867   3.992  18.547  0.00  0.00    +0.000 A 
ATOM     11  C   UNL     1       2.256   2.705  18.178  0.00  0.00    +0.000 A 
ATOM     12  C   UNL     1       3.553   2.254  18.433  0.00  0.00    +0.000 A 
ATOM     13  C   UNL     1       4.438   3.089  19.123  0.00  0.00    +0.000 A 
ATOM     14  C   UNL     1       4.056   4.378  19.497  0.00  0.00    +0.000 A 
BRANCH  12  15
ATOM     15  N   UNL     1       3.882   0.911  18.212  0.00  0.00    +0.000 N 
ATOM     16  H   UNL     1       4.633   0.778  17.542  0.00  0.00    +0.000 HD
ATOM     17  H   UNL     1       4.020   0.376  19.061  0.00  0.00    +0.000 HD
ENDBRANCH  12  15
ENDBRANCH   3   9
BRANCH   1  18
ATOM     18  C   UNL     1       1.564   9.573  18.212  0.00  0.00    +0.000 C 
ATOM     19  O   UNL     1       2.379  10.456  18.012  0.00  0.00    +0.000 OA
BRANCH  18  20
ATOM     20  O   UNL     1       0.363   9.404  17.624  0.00  0.00    +0.000 OA
BRANCH  20  22
ATOM     21  C   UNL     1      -1.868   9.913  17.096  0.00  0.00    +0.000 C 
ATOM     22  C   UNL     1      -0.703  10.289  17.983  0.00  0.00    +0.000 C 
ENDBRANCH  20  22
ENDBRANCH  18  20
ENDBRANCH   1  18
BRANCH   2  23
ATOM     23  O   UNL     1       2.808   7.018  17.471  0.00  0.00    +0.000 OA
ATOM     24  C   UNL     1       4.193   7.227  17.206  0.00  0.00    +0.000 C 
ENDBRANCH   2  23
TORSDOF 6
ENDMDL
