MODEL 1
REMARK VINA RESULT:      -7.5      0.000      0.000
REMARK  Name = 
REMARK  3 active torsions:
REMARK  status: ('A' for Active; 'I' for Inactive)
REMARK    1  A    between atoms: C_2  and  C_3
REMARK    2  A    between atoms: C_3  and  N_4
REMARK    3  A    between atoms: N_7  and  C_8
REMARK                            x       y       z     vdW  Elec       q    Type
REMARK                         _______ _______ _______ _____ _____    ______ ____
ROOT
ATOM      1  N   UNL     1       5.581   5.853  18.460  0.00  0.00    +0.000 N 
ATOM      2  C   UNL     1       4.637   6.868  18.060  0.00  0.00    +0.000 C 
ATOM      3  C   UNL     1       3.332   6.096  17.955  0.00  0.00    +0.000 C 
ATOM      4  N   UNL     1       3.549   4.942  18.804  0.00  0.00    +0.000 N 
ATOM      5  C   UNL     1       4.933   4.734  18.978  0.00  0.00    +0.000 C 
ATOM      6  O   UNL     1       5.509   3.768  19.454  0.00  0.00    +0.000 OA
ENDROOT
BRANCH   4   7
ATOM      7  C   UNL     1       2.512   4.057  19.195  0.00  0.00    +0.000 A 
ATOM      8  C   UNL     1       2.055   4.030  20.519  0.00  0.00    +0.000 A 
ATOM      9  C   UNL     1       1.010   3.185  20.907  0.00  0.00    +0.000 A 
ATOM     10  C   UNL     1       0.411   2.338  19.978  0.00  0.00    +0.000 A 
ATOM     11  C   UNL     1       0.852   2.345  18.659  0.00  0.00    +0.000 A 
ATOM     12  C   UNL     1       1.883   3.202  18.275  0.00  0.00    +0.000 A 
ATOM     13  F   UNL     1       2.275   3.154  16.992  0.00  0.00    +0.000 F 
ENDBRANCH   4   7
BRANCH   1  14
ATOM     14  C   UNL     1       7.007   5.929  18.184  0.00  0.00    +0.000 C 
BRANCH  14  16
ATOM     15  O   UNL     1       7.944   7.021  16.277  0.00  0.00    +0.000 OA
ATOM     16  C   UNL     1       7.375   6.014  16.705  0.00  0.00    +0.000 C 
ATOM     17  N   UNL     1       6.878   4.979  15.948  0.00  0.00    +0.000 N 
ATOM     18  C   UNL     1       7.116   4.896  14.606  0.00  0.00    +0.000 A 
ATOM     19  N   UNL     1       7.996   5.544  13.887  0.00  0.00    +0.000 NA
ATOM     20  C   UNL     1       7.860   5.186  12.563  0.00  0.00    +0.000 A 
ATOM     21  C   UNL     1       6.864   4.270  12.297  0.00  0.00    +0.000 A 
ATOM     22  S   UNL     1       6.126   3.784  13.771  0.00  0.00    +0.000 S 
ATOM     23  H   UNL     1       6.231   4.322  16.362  0.00  0.00    +0.000 HD
ENDBRANCH  14  16
ENDBRANCH   1  14
TORSDOF 3
ENDMDL
MODEL 2
REMARK VINA RESULT:      -7.5      1.018      1.443
REMARK  Name = 
REMARK  3 active torsions:
REMARK  status: ('A' for Active; 'I' for Inactive)
REMARK    1  A    between atoms: C_2  and  C_3
REMARK    2  A    between atoms: C_3  and  N_4
REMARK    3  A    between atoms: N_7  and  C_8
REMARK                            x       y       z     vdW  Elec       q    Type
REMARK                         _______ _______ _______ _____ _____    ______ ____
ROOT
ATOM      1  N   UNL     1       5.549   5.873  18.492  0.00  0.00    +0.000 N 
ATOM      2  C   UNL     1       4.614   6.902  18.102  0.00  0.00    +0.000 C 
ATOM      3  C   UNL     1       3.305   6.141  17.975  0.00  0.00    +0.000 C 
ATOM      4  N   UNL     1       3.508   4.971  18.806  0.00  0.00    +0.000 N 
ATOM      5  C   UNL     1       4.889   4.751  18.987  0.00  0.00    +0.000 C 
ATOM      6  O   UNL     1       5.455   3.772  19.450  0.00  0.00    +0.000 OA
ENDROOT
BRANCH   4   7
ATOM      7  C   UNL     1       2.462   4.088  19.174  0.00  0.00    +0.000 A 
ATOM      8  C   UNL     1       1.870   3.242  18.226  0.00  0.00    +0.000 A 
ATOM      9  C   UNL     1       0.860   2.345  18.587  0.00  0.00    +0.000 A 
ATOM     10  C   UNL     1       0.412   2.285  19.904  0.00  0.00    +0.000 A 
ATOM     11  C   UNL     1       0.982   3.118  20.861  0.00  0.00    +0.000 A 
ATOM     12  C   UNL     1       1.999   4.000  20.498  0.00  0.00    +0.000 A 
ATOM     13  F   UNL     1       2.501   4.788  21.462  0.00  0.00    +0.000 F 
ENDBRANCH   4   7
BRANCH   1  14
ATOM     14  C   UNL     1       6.977   5.944  18.228  0.00  0.00    +0.000 C 
BRANCH  14  16
ATOM     15  O   UNL     1       7.946   7.017  16.326  0.00  0.00    +0.000 OA
ATOM     16  C   UNL     1       7.358   6.020  16.751  0.00  0.00    +0.000 C 
ATOM     17  N   UNL     1       6.850   4.992  15.992  0.00  0.00    +0.000 N 
ATOM     18  C   UNL     1       7.096   4.903  14.652  0.00  0.00    +0.000 A 
ATOM     19  N   UNL     1       7.992   5.535  13.939  0.00  0.00    +0.000 NA
ATOM     20  C   UNL     1       7.860   5.177  12.614  0.00  0.00    +0.000 A 
ATOM     21  C   UNL     1       6.852   4.277  12.342  0.00  0.00    +0.000 A 
ATOM     22  S   UNL     1       6.095   3.805  13.811  0.00  0.00    +0.000 S 
ATOM     23  H   UNL     1       6.189   4.347  16.402  0.00  0.00    +0.000 HD
ENDBRANCH  14  16
ENDBRANCH   1  14
TORSDOF 3
ENDMDL
MODEL 3
REMARK VINA RESULT:      -7.4      3.744      4.743
REMARK  Name = 
REMARK  3 active torsions:
REMARK  status: ('A' for Active; 'I' for Inactive)
REMARK    1  A    between atoms: C_2  and  C_3
REMARK    2  A    between atoms: C_3  and  N_4
REMARK    3  A    between atoms: N_7  and  C_8
REMARK                            x       y       z     vdW  Elec       q    Type
REMARK                         _______ _______ _______ _____ _____    ______ ____
ROOT
ATOM      1  N   UNL     1       6.824   5.752  17.898  0.00  0.00    +0.000 N 
ATOM      2  C   UNL     1       6.897   5.211  16.562  0.00  0.00    +0.000 C 
ATOM      3  C   UNL     1       5.899   4.065  16.603  0.00  0.00    +0.000 C 
ATOM      4  N   UNL     1       5.016   4.421  17.695  0.00  0.00    +0.000 N 
ATOM      5  C   UNL     1       5.661   5.344  18.546  0.00  0.00    +0.000 C 
ATOM      6  O   UNL     1       5.327   5.723  19.658  0.00  0.00    +0.000 OA
ENDROOT
BRANCH   4   7
ATOM      7  C   UNL     1       3.790   3.757  17.953  0.00  0.00    +0.000 A 
ATOM      8  C   UNL     1       3.767   2.390  18.260  0.00  0.00    +0.000 A 
ATOM      9  C   UNL     1       2.565   1.734  18.548  0.00  0.00    +0.000 A 
ATOM     10  C   UNL     1       1.360   2.431  18.520  0.00  0.00    +0.000 A 
ATOM     11  C   UNL     1       1.360   3.788  18.213  0.00  0.00    +0.000 A 
ATOM     12  C   UNL     1       2.562   4.440  17.942  0.00  0.00    +0.000 A 
ATOM     13  F   UNL     1       2.497   5.746  17.639  0.00  0.00    +0.000 F 
ENDBRANCH   4   7
BRANCH   1  14
ATOM     14  C   UNL     1       7.914   6.475  18.532  0.00  0.00    +0.000 C 
BRANCH  14  16
ATOM     15  O   UNL     1       7.746   8.251  16.943  0.00  0.00    +0.000 OA
ATOM     16  C   UNL     1       8.071   7.927  18.087  0.00  0.00    +0.000 C 
ATOM     17  N   UNL     1       8.726   8.720  19.001  0.00  0.00    +0.000 N 
ATOM     18  C   UNL     1       8.949  10.047  18.766  0.00  0.00    +0.000 A 
ATOM     19  N   UNL     1       8.406  10.823  17.863  0.00  0.00    +0.000 NA
ATOM     20  C   UNL     1       8.956  12.083  17.952  0.00  0.00    +0.000 A 
ATOM     21  C   UNL     1       9.922  12.241  18.923  0.00  0.00    +0.000 A 
ATOM     22  S   UNL     1      10.088  10.777  19.807  0.00  0.00    +0.000 S 
ATOM     23  H   UNL     1       9.152   8.299  19.814  0.00  0.00    +0.000 HD
ENDBRANCH  14  16
ENDBRANCH   1  14
TORSDOF 3
ENDMDL
MODEL 4
REMARK VINA RESULT:      -7.2      3.710      4.694
REMARK  Name = 
REMARK  3 active torsions:
REMARK  status: ('A' for Active; 'I' for Inactive)
REMARK    1  A    between atoms: C_2  and  C_3
REMARK    2  A    between atoms: C_3  and  N_4
REMARK    3  A    between atoms: N_7  and  C_8
REMARK                            x       y       z     vdW  Elec       q    Type
REMARK                         _______ _______ _______ _____ _____    ______ ____
ROOT
ATOM      1  N   UNL     1       6.791   5.617  17.975  0.00  0.00    +0.000 N 
ATOM      2  C   UNL     1       6.849   4.961  16.691  0.00  0.00    +0.000 C 
ATOM      3  C   UNL     1       5.793   3.875  16.815  0.00  0.00    +0.000 C 
ATOM      4  N   UNL     1       4.919   4.367  17.861  0.00  0.00    +0.000 N 
ATOM      5  C   UNL     1       5.602   5.325  18.640  0.00  0.00    +0.000 C 
ATOM      6  O   UNL     1       5.278   5.813  19.711  0.00  0.00    +0.000 OA
ENDROOT
BRANCH   4   7
ATOM      7  C   UNL     1       3.658   3.789  18.157  0.00  0.00    +0.000 A 
ATOM      8  C   UNL     1       2.474   4.374  17.688  0.00  0.00    +0.000 A 
ATOM      9  C   UNL     1       1.228   3.793  17.948  0.00  0.00    +0.000 A 
ATOM     10  C   UNL     1       1.142   2.622  18.695  0.00  0.00    +0.000 A 
ATOM     11  C   UNL     1       2.304   2.027  19.174  0.00  0.00    +0.000 A 
ATOM     12  C   UNL     1       3.544   2.602  18.899  0.00  0.00    +0.000 A 
ATOM     13  F   UNL     1       4.629   1.989  19.400  0.00  0.00    +0.000 F 
ENDBRANCH   4   7
BRANCH   1  14
ATOM     14  C   UNL     1       7.910   6.336  18.561  0.00  0.00    +0.000 C 
BRANCH  14  16
ATOM     15  O   UNL     1       7.763   8.086  16.941  0.00  0.00    +0.000 OA
ATOM     16  C   UNL     1       8.062   7.783  18.098  0.00  0.00    +0.000 C 
ATOM     17  N   UNL     1       8.683   8.597  19.016  0.00  0.00    +0.000 N 
ATOM     18  C   UNL     1       8.897   9.923  18.766  0.00  0.00    +0.000 A 
ATOM     19  N   UNL     1       8.369  10.679  17.839  0.00  0.00    +0.000 NA
ATOM     20  C   UNL     1       8.902  11.947  17.922  0.00  0.00    +0.000 A 
ATOM     21  C   UNL     1       9.840  12.131  18.916  0.00  0.00    +0.000 A 
ATOM     22  S   UNL     1      10.000  10.682  19.826  0.00  0.00    +0.000 S 
ATOM     23  H   UNL     1       9.093   8.194  19.847  0.00  0.00    +0.000 HD
ENDBRANCH  14  16
ENDBRANCH   1  14
TORSDOF 3
ENDMDL
MODEL 5
REMARK VINA RESULT:      -7.1      3.313      4.261
REMARK  Name = 
REMARK  3 active torsions:
REMARK  status: ('A' for Active; 'I' for Inactive)
REMARK    1  A    between atoms: C_2  and  C_3
REMARK    2  A    between atoms: C_3  and  N_4
REMARK    3  A    between atoms: N_7  and  C_8
REMARK                            x       y       z     vdW  Elec       q    Type
REMARK                         _______ _______ _______ _____ _____    ______ ____
ROOT
ATOM      1  N   UNL     1       5.665   6.332  17.715  0.00  0.00    +0.000 N 
ATOM      2  C   UNL     1       4.500   7.068  17.288  0.00  0.00    +0.000 C 
ATOM      3  C   UNL     1       3.363   6.100  17.572  0.00  0.00    +0.000 C 
ATOM      4  N   UNL     1       3.909   5.221  18.586  0.00  0.00    +0.000 N 
ATOM      5  C   UNL     1       5.318   5.277  18.555  0.00  0.00    +0.000 C 
ATOM      6  O   UNL     1       6.126   4.547  19.109  0.00  0.00    +0.000 OA
ENDROOT
BRANCH   4   7
ATOM      7  C   UNL     1       3.121   4.301  19.324  0.00  0.00    +0.000 A 
ATOM      8  C   UNL     1       2.564   4.663  20.557  0.00  0.00    +0.000 A 
ATOM      9  C   UNL     1       1.759   3.773  21.276  0.00  0.00    +0.000 A 
ATOM     10  C   UNL     1       1.507   2.496  20.781  0.00  0.00    +0.000 A 
ATOM     11  C   UNL     1       2.054   2.114  19.560  0.00  0.00    +0.000 A 
ATOM     12  C   UNL     1       2.843   3.012  18.840  0.00  0.00    +0.000 A 
ATOM     13  F   UNL     1       3.354   2.581  17.676  0.00  0.00    +0.000 F 
ENDBRANCH   4   7
BRANCH   1  14
ATOM     14  C   UNL     1       6.999   6.562  17.185  0.00  0.00    +0.000 C 
BRANCH  14  16
ATOM     15  O   UNL     1       8.390   7.136  19.042  0.00  0.00    +0.000 OA
ATOM     16  C   UNL     1       7.860   7.526  17.999  0.00  0.00    +0.000 C 
ATOM     17  N   UNL     1       7.829   8.822  17.539  0.00  0.00    +0.000 N 
ATOM     18  C   UNL     1       8.545   9.813  18.148  0.00  0.00    +0.000 A 
ATOM     19  N   UNL     1       9.519   9.709  19.014  0.00  0.00    +0.000 NA
ATOM     20  C   UNL     1       9.925  10.967  19.402  0.00  0.00    +0.000 A 
ATOM     21  C   UNL     1       9.240  12.014  18.824  0.00  0.00    +0.000 A 
ATOM     22  S   UNL     1       8.100  11.398  17.695  0.00  0.00    +0.000 S 
ATOM     23  H   UNL     1       7.181   9.078  16.808  0.00  0.00    +0.000 HD
ENDBRANCH  14  16
ENDBRANCH   1  14
TORSDOF 3
ENDMDL
MODEL 6
REMARK VINA RESULT:      -6.9      3.526      4.619
REMARK  Name = 
REMARK  3 active torsions:
REMARK  status: ('A' for Active; 'I' for Inactive)
REMARK    1  A    between atoms: C_2  and  C_3
REMARK    2  A    between atoms: C_3  and  N_4
REMARK    3  A    between atoms: N_7  and  C_8
REMARK                            x       y       z     vdW  Elec       q    Type
REMARK                         _______ _______ _______ _____ _____    ______ ____
ROOT
ATOM      1  N   UNL     1       6.323   5.886  17.256  0.00  0.00    +0.000 N 
ATOM      2  C   UNL     1       6.894   4.631  17.683  0.00  0.00    +0.000 C 
ATOM      3  C   UNL     1       5.893   4.135  18.713  0.00  0.00    +0.000 C 
ATOM      4  N   UNL     1       4.669   4.826  18.360  0.00  0.00    +0.000 N 
ATOM      5  C   UNL     1       4.974   5.968  17.590  0.00  0.00    +0.000 C 
ATOM      6  O   UNL     1       4.245   6.896  17.275  0.00  0.00    +0.000 OA
ENDROOT
BRANCH   4   7
ATOM      7  C   UNL     1       3.404   4.496  18.908  0.00  0.00    +0.000 A 
ATOM      8  C   UNL     1       3.045   4.926  20.193  0.00  0.00    +0.000 A 
ATOM      9  C   UNL     1       1.786   4.633  20.728  0.00  0.00    +0.000 A 
ATOM     10  C   UNL     1       0.866   3.891  19.993  0.00  0.00    +0.000 A 
ATOM     11  C   UNL     1       1.202   3.450  18.717  0.00  0.00    +0.000 A 
ATOM     12  C   UNL     1       2.453   3.759  18.183  0.00  0.00    +0.000 A 
ATOM     13  F   UNL     1       2.725   3.295  16.952  0.00  0.00    +0.000 F 
ENDBRANCH   4   7
BRANCH   1  14
ATOM     14  C   UNL     1       7.108   6.982  16.712  0.00  0.00    +0.000 C 
BRANCH  14  16
ATOM     15  O   UNL     1       8.190   7.293  18.819  0.00  0.00    +0.000 OA
ATOM     16  C   UNL     1       7.867   7.809  17.747  0.00  0.00    +0.000 C 
ATOM     17  N   UNL     1       7.981   9.140  17.420  0.00  0.00    +0.000 N 
ATOM     18  C   UNL     1       8.633  10.023  18.232  0.00  0.00    +0.000 A 
ATOM     19  N   UNL     1       9.439   9.777  19.233  0.00  0.00    +0.000 NA
ATOM     20  C   UNL     1       9.837  10.966  19.805  0.00  0.00    +0.000 A 
ATOM     21  C   UNL     1       9.315  12.104  19.228  0.00  0.00    +0.000 A 
ATOM     22  S   UNL     1       8.353  11.668  17.872  0.00  0.00    +0.000 S 
ATOM     23  H   UNL     1       7.481   9.504  16.621  0.00  0.00    +0.000 HD
ENDBRANCH  14  16
ENDBRANCH   1  14
TORSDOF 3
ENDMDL
MODEL 7
REMARK VINA RESULT:      -6.9      5.789      7.833
REMARK  Name = 
REMARK  3 active torsions:
REMARK  status: ('A' for Active; 'I' for Inactive)
REMARK    1  A    between atoms: C_2  and  C_3
REMARK    2  A    between atoms: C_3  and  N_4
REMARK    3  A    between atoms: N_7  and  C_8
REMARK                            x       y       z     vdW  Elec       q    Type
REMARK                         _______ _______ _______ _____ _____    ______ ____
ROOT
ATOM      1  N   UNL     1       1.763   8.952  19.281  0.00  0.00    +0.000 N 
ATOM      2  C   UNL     1       1.568   8.427  20.611  0.00  0.00    +0.000 C 
ATOM      3  C   UNL     1       1.570   6.924  20.388  0.00  0.00    +0.000 C 
ATOM      4  N   UNL     1       2.291   6.765  19.140  0.00  0.00    +0.000 N 
ATOM      5  C   UNL     1       2.270   7.980  18.422  0.00  0.00    +0.000 C 
ATOM      6  O   UNL     1       2.591   8.189  17.262  0.00  0.00    +0.000 OA
ENDROOT
BRANCH   4   7
ATOM      7  C   UNL     1       2.740   5.511  18.655  0.00  0.00    +0.000 A 
ATOM      8  C   UNL     1       1.915   4.718  17.846  0.00  0.00    +0.000 A 
ATOM      9  C   UNL     1       2.362   3.495  17.336  0.00  0.00    +0.000 A 
ATOM     10  C   UNL     1       3.641   3.033  17.638  0.00  0.00    +0.000 A 
ATOM     11  C   UNL     1       4.475   3.802  18.442  0.00  0.00    +0.000 A 
ATOM     12  C   UNL     1       4.029   5.029  18.935  0.00  0.00    +0.000 A 
ATOM     13  F   UNL     1       4.875   5.719  19.717  0.00  0.00    +0.000 F 
ENDBRANCH   4   7
BRANCH   1  14
ATOM     14  C   UNL     1       1.314  10.270  18.864  0.00  0.00    +0.000 C 
BRANCH  14  16
ATOM     15  O   UNL     1      -0.808  10.348  19.958  0.00  0.00    +0.000 OA
ATOM     16  C   UNL     1      -0.198  10.478  18.895  0.00  0.00    +0.000 C 
ATOM     17  N   UNL     1      -0.761  10.647  17.651  0.00  0.00    +0.000 N 
ATOM     18  C   UNL     1      -2.103  10.849  17.496  0.00  0.00    +0.000 A 
ATOM     19  N   UNL     1      -2.994  11.172  18.397  0.00  0.00    +0.000 NA
ATOM     20  C   UNL     1      -4.240  11.228  17.810  0.00  0.00    +0.000 A 
ATOM     21  C   UNL     1      -4.273  10.936  16.463  0.00  0.00    +0.000 A 
ATOM     22  S   UNL     1      -2.675  10.658  15.898  0.00  0.00    +0.000 S 
ATOM     23  H   UNL     1      -0.198  10.510  16.824  0.00  0.00    +0.000 HD
ENDBRANCH  14  16
ENDBRANCH   1  14
TORSDOF 3
ENDMDL
MODEL 8
REMARK VINA RESULT:      -6.9      3.653      4.510
REMARK  Name = 
REMARK  3 active torsions:
REMARK  status: ('A' for Active; 'I' for Inactive)
REMARK    1  A    between atoms: C_2  and  C_3
REMARK    2  A    between atoms: C_3  and  N_4
REMARK    3  A    between atoms: N_7  and  C_8
REMARK                            x       y       z     vdW  Elec       q    Type
REMARK                         _______ _______ _______ _____ _____    ______ ____
ROOT
ATOM      1  N   UNL     1       6.265   6.300  18.276  0.00  0.00    +0.000 N 
ATOM      2  C   UNL     1       5.401   6.836  17.251  0.00  0.00    +0.000 C 
ATOM      3  C   UNL     1       4.278   5.814  17.186  0.00  0.00    +0.000 C 
ATOM      4  N   UNL     1       4.328   5.168  18.482  0.00  0.00    +0.000 N 
ATOM      5  C   UNL     1       5.600   5.363  19.061  0.00  0.00    +0.000 C 
ATOM      6  O   UNL     1       6.088   4.817  20.039  0.00  0.00    +0.000 OA
ENDROOT
BRANCH   4   7
ATOM      7  C   UNL     1       3.313   4.301  18.960  0.00  0.00    +0.000 A 
ATOM      8  C   UNL     1       2.380   4.744  19.908  0.00  0.00    +0.000 A 
ATOM      9  C   UNL     1       1.355   3.907  20.360  0.00  0.00    +0.000 A 
ATOM     10  C   UNL     1       1.251   2.603  19.883  0.00  0.00    +0.000 A 
ATOM     11  C   UNL     1       2.169   2.141  18.945  0.00  0.00    +0.000 A 
ATOM     12  C   UNL     1       3.179   2.986  18.486  0.00  0.00    +0.000 A 
ATOM     13  F   UNL     1       4.043   2.480  17.590  0.00  0.00    +0.000 F 
ENDBRANCH   4   7
BRANCH   1  14
ATOM     14  C   UNL     1       7.690   6.579  18.350  0.00  0.00    +0.000 C 
BRANCH  14  16
ATOM     15  O   UNL     1       8.103   8.322  16.768  0.00  0.00    +0.000 OA
ATOM     16  C   UNL     1       8.092   7.999  17.958  0.00  0.00    +0.000 C 
ATOM     17  N   UNL     1       8.562   8.753  19.008  0.00  0.00    +0.000 N 
ATOM     18  C   UNL     1       8.962  10.048  18.835  0.00  0.00    +0.000 A 
ATOM     19  N   UNL     1       8.744  10.846  17.822  0.00  0.00    +0.000 NA
ATOM     20  C   UNL     1       9.370  12.054  18.047  0.00  0.00    +0.000 A 
ATOM     21  C   UNL     1      10.064  12.148  19.235  0.00  0.00    +0.000 A 
ATOM     22  S   UNL     1       9.860  10.698  20.134  0.00  0.00    +0.000 S 
ATOM     23  H   UNL     1       8.724   8.317  19.904  0.00  0.00    +0.000 HD
ENDBRANCH  14  16
ENDBRANCH   1  14
TORSDOF 3
ENDMDL
MODEL 9
REMARK VINA RESULT:      -6.8      5.569      7.584
REMARK  Name = 
REMARK  3 active torsions:
REMARK  status: ('A' for Active; 'I' for Inactive)
REMARK    1  A    between atoms: C_2  and  C_3
REMARK    2  A    between atoms: C_3  and  N_4
REMARK    3  A    between atoms: N_7  and  C_8
REMARK                            x       y       z     vdW  Elec       q    Type
REMARK                         _______ _______ _______ _____ _____    ______ ____
ROOT
ATOM      1  N   UNL     1       1.837   8.634  19.277  0.00  0.00    +0.000 N 
ATOM      2  C   UNL     1       1.519   8.156  20.601  0.00  0.00    +0.000 C 
ATOM      3  C   UNL     1       1.512   6.646  20.425  0.00  0.00    +0.000 C 
ATOM      4  N   UNL     1       2.334   6.436  19.249  0.00  0.00    +0.000 N 
ATOM      5  C   UNL     1       2.398   7.627  18.495  0.00  0.00    +0.000 C 
ATOM      6  O   UNL     1       2.820   7.794  17.362  0.00  0.00    +0.000 OA
ENDROOT
BRANCH   4   7
ATOM      7  C   UNL     1       2.800   5.160  18.844  0.00  0.00    +0.000 A 
ATOM      8  C   UNL     1       3.955   4.605  19.412  0.00  0.00    +0.000 A 
ATOM      9  C   UNL     1       4.404   3.333  19.041  0.00  0.00    +0.000 A 
ATOM     10  C   UNL     1       3.713   2.596  18.083  0.00  0.00    +0.000 A 
ATOM     11  C   UNL     1       2.566   3.129  17.503  0.00  0.00    +0.000 A 
ATOM     12  C   UNL     1       2.115   4.391  17.888  0.00  0.00    +0.000 A 
ATOM     13  F   UNL     1       1.011   4.859  17.284  0.00  0.00    +0.000 F 
ENDBRANCH   4   7
BRANCH   1  14
ATOM     14  C   UNL     1       1.450   9.945  18.783  0.00  0.00    +0.000 C 
BRANCH  14  16
ATOM     15  O   UNL     1      -0.616  10.205  19.954  0.00  0.00    +0.000 OA
ATOM     16  C   UNL     1      -0.044  10.252  18.863  0.00  0.00    +0.000 C 
ATOM     17  N   UNL     1      -0.646  10.406  17.636  0.00  0.00    +0.000 N 
ATOM     18  C   UNL     1      -1.977  10.688  17.524  0.00  0.00    +0.000 A 
ATOM     19  N   UNL     1      -2.809  11.104  18.444  0.00  0.00    +0.000 NA
ATOM     20  C   UNL     1      -4.072  11.217  17.904  0.00  0.00    +0.000 A 
ATOM     21  C   UNL     1      -4.179  10.873  16.573  0.00  0.00    +0.000 A 
ATOM     22  S   UNL     1      -2.626  10.470  15.960  0.00  0.00    +0.000 S 
ATOM     23  H   UNL     1      -0.127  10.199  16.794  0.00  0.00    +0.000 HD
ENDBRANCH  14  16
ENDBRANCH   1  14
TORSDOF 3
ENDMDL
