MODEL 1
REMARK VINA RESULT:      -7.1      0.000      0.000
REMARK  Name = 
REMARK  1 active torsions:
REMARK  status: ('A' for Active; 'I' for Inactive)
REMARK    1  A    between atoms: C_10  and  C_11
REMARK                            x       y       z     vdW  Elec       q    Type
REMARK                         _______ _______ _______ _____ _____    ______ ____
ROOT
ATOM      1  N   UNL     1       2.495   2.570  21.763  0.00  0.00    +0.000 N 
ATOM      2  C   UNL     1       2.607   3.477  20.780  0.00  0.00    +0.000 A 
ATOM      3  N   UNL     1       3.058   3.182  19.585  0.00  0.00    +0.000 NA
ATOM      4  C   UNL     1       3.122   4.328  18.825  0.00  0.00    +0.000 A 
ATOM      5  C   UNL     1       2.659   5.469  19.440  0.00  0.00    +0.000 A 
ATOM      6  S   UNL     1       2.158   5.123  21.022  0.00  0.00    +0.000 S 
ATOM      7  C   UNL     1       2.647   6.778  18.834  0.00  0.00    +0.000 C 
ATOM      8  O   UNL     1       2.230   7.802  19.372  0.00  0.00    +0.000 OA
ATOM      9  C   UNL     1       3.149   6.808  17.386  0.00  0.00    +0.000 C 
ATOM     10  C   UNL     1       4.238   5.742  17.093  0.00  0.00    +0.000 C 
ATOM     11  C   UNL     1       3.674   4.332  17.441  0.00  0.00    +0.000 C 
ATOM     12  H   UNL     1       2.547   1.595  21.494  0.00  0.00    +0.000 HD
ATOM     13  H   UNL     1       1.917   2.776  22.565  0.00  0.00    +0.000 HD
ENDROOT
BRANCH  10  14
ATOM     14  C   UNL     1       5.608   6.012  17.725  0.00  0.00    +0.000 A 
ATOM     15  C   UNL     1       6.130   5.257  18.788  0.00  0.00    +0.000 A 
ATOM     16  C   UNL     1       7.379   5.553  19.343  0.00  0.00    +0.000 A 
ATOM     17  C   UNL     1       8.131   6.614  18.852  0.00  0.00    +0.000 A 
ATOM     18  C   UNL     1       7.630   7.386  17.809  0.00  0.00    +0.000 A 
ATOM     19  C   UNL     1       6.380   7.092  17.257  0.00  0.00    +0.000 A 
ENDBRANCH  10  14
TORSDOF 1
ENDMDL
MODEL 2
REMARK VINA RESULT:      -6.9      3.125      5.135
REMARK  Name = 
REMARK  1 active torsions:
REMARK  status: ('A' for Active; 'I' for Inactive)
REMARK    1  A    between atoms: C_10  and  C_11
REMARK                            x       y       z     vdW  Elec       q    Type
REMARK                         _______ _______ _______ _____ _____    ______ ____
ROOT
ATOM      1  N   UNL     1       8.609   7.738  18.633  0.00  0.00    +0.000 N 
ATOM      2  C   UNL     1       7.593   6.882  18.443  0.00  0.00    +0.000 A 
ATOM      3  N   UNL     1       6.681   7.052  17.516  0.00  0.00    +0.000 NA
ATOM      4  C   UNL     1       5.739   6.053  17.615  0.00  0.00    +0.000 A 
ATOM      5  C   UNL     1       5.986   5.103  18.580  0.00  0.00    +0.000 A 
ATOM      6  S   UNL     1       7.413   5.473  19.417  0.00  0.00    +0.000 S 
ATOM      7  C   UNL     1       5.125   3.982  18.864  0.00  0.00    +0.000 C 
ATOM      8  O   UNL     1       5.339   3.125  19.720  0.00  0.00    +0.000 OA
ATOM      9  C   UNL     1       3.900   3.878  17.948  0.00  0.00    +0.000 C 
ATOM     10  C   UNL     1       3.374   5.258  17.470  0.00  0.00    +0.000 C 
ATOM     11  C   UNL     1       4.527   6.018  16.749  0.00  0.00    +0.000 C 
ATOM     12  H   UNL     1       8.792   8.403  17.891  0.00  0.00    +0.000 HD
ATOM     13  H   UNL     1       9.412   7.445  19.170  0.00  0.00    +0.000 HD
ENDROOT
BRANCH  10  14
ATOM     14  C   UNL     1       2.679   6.104  18.544  0.00  0.00    +0.000 A 
ATOM     15  C   UNL     1       2.535   7.498  18.454  0.00  0.00    +0.000 A 
ATOM     16  C   UNL     1       1.907   8.228  19.468  0.00  0.00    +0.000 A 
ATOM     17  C   UNL     1       1.417   7.582  20.598  0.00  0.00    +0.000 A 
ATOM     18  C   UNL     1       1.562   6.204  20.717  0.00  0.00    +0.000 A 
ATOM     19  C   UNL     1       2.191   5.475  19.704  0.00  0.00    +0.000 A 
ENDBRANCH  10  14
TORSDOF 1
ENDMDL
MODEL 3
REMARK VINA RESULT:      -6.9      3.329      5.088
REMARK  Name = 
REMARK  1 active torsions:
REMARK  status: ('A' for Active; 'I' for Inactive)
REMARK    1  A    between atoms: C_10  and  C_11
REMARK                            x       y       z     vdW  Elec       q    Type
REMARK                         _______ _______ _______ _____ _____    ______ ____
ROOT
ATOM      1  N   UNL     1       7.193   5.494  14.361  0.00  0.00    +0.000 N 
ATOM      2  C   UNL     1       6.562   5.125  15.487  0.00  0.00    +0.000 A 
ATOM      3  N   UNL     1       5.346   4.636  15.494  0.00  0.00    +0.000 NA
ATOM      4  C   UNL     1       4.948   4.420  16.794  0.00  0.00    +0.000 A 
ATOM      5  C   UNL     1       5.897   4.693  17.753  0.00  0.00    +0.000 A 
ATOM      6  S   UNL     1       7.318   5.267  17.028  0.00  0.00    +0.000 S 
ATOM      7  C   UNL     1       5.690   4.552  19.173  0.00  0.00    +0.000 C 
ATOM      8  O   UNL     1       6.532   4.788  20.037  0.00  0.00    +0.000 OA
ATOM      9  C   UNL     1       4.312   4.003  19.559  0.00  0.00    +0.000 C 
ATOM     10  C   UNL     1       3.189   4.416  18.569  0.00  0.00    +0.000 C 
ATOM     11  C   UNL     1       3.578   3.945  17.136  0.00  0.00    +0.000 C 
ATOM     12  H   UNL     1       6.798   5.170  13.487  0.00  0.00    +0.000 HD
ATOM     13  H   UNL     1       8.196   5.619  14.373  0.00  0.00    +0.000 HD
ENDROOT
BRANCH  10  14
ATOM     14  C   UNL     1       2.775   5.890  18.623  0.00  0.00    +0.000 A 
ATOM     15  C   UNL     1       2.892   6.765  17.531  0.00  0.00    +0.000 A 
ATOM     16  C   UNL     1       2.516   8.108  17.634  0.00  0.00    +0.000 A 
ATOM     17  C   UNL     1       2.023   8.608  18.834  0.00  0.00    +0.000 A 
ATOM     18  C   UNL     1       1.913   7.766  19.935  0.00  0.00    +0.000 A 
ATOM     19  C   UNL     1       2.291   6.424  19.832  0.00  0.00    +0.000 A 
ENDBRANCH  10  14
TORSDOF 1
ENDMDL
MODEL 4
REMARK VINA RESULT:      -6.9      0.094      1.168
REMARK  Name = 
REMARK  1 active torsions:
REMARK  status: ('A' for Active; 'I' for Inactive)
REMARK    1  A    between atoms: C_10  and  C_11
REMARK                            x       y       z     vdW  Elec       q    Type
REMARK                         _______ _______ _______ _____ _____    ______ ____
ROOT
ATOM      1  N   UNL     1       2.467   2.587  21.706  0.00  0.00    +0.000 N 
ATOM      2  C   UNL     1       2.578   3.507  20.736  0.00  0.00    +0.000 A 
ATOM      3  N   UNL     1       3.031   3.228  19.537  0.00  0.00    +0.000 NA
ATOM      4  C   UNL     1       3.093   4.385  18.793  0.00  0.00    +0.000 A 
ATOM      5  C   UNL     1       2.628   5.517  19.423  0.00  0.00    +0.000 A 
ATOM      6  S   UNL     1       2.127   5.148  21.000  0.00  0.00    +0.000 S 
ATOM      7  C   UNL     1       2.615   6.834  18.835  0.00  0.00    +0.000 C 
ATOM      8  O   UNL     1       2.197   7.850  19.387  0.00  0.00    +0.000 OA
ATOM      9  C   UNL     1       3.118   6.884  17.387  0.00  0.00    +0.000 C 
ATOM     10  C   UNL     1       4.209   5.823  17.081  0.00  0.00    +0.000 C 
ATOM     11  C   UNL     1       3.647   4.408  17.410  0.00  0.00    +0.000 C 
ATOM     12  H   UNL     1       2.520   1.615  21.424  0.00  0.00    +0.000 HD
ATOM     13  H   UNL     1       1.888   2.781  22.511  0.00  0.00    +0.000 HD
ENDROOT
BRANCH  10  14
ATOM     14  C   UNL     1       5.579   6.086  17.717  0.00  0.00    +0.000 A 
ATOM     15  C   UNL     1       6.433   7.123  17.309  0.00  0.00    +0.000 A 
ATOM     16  C   UNL     1       7.681   7.314  17.910  0.00  0.00    +0.000 A 
ATOM     17  C   UNL     1       8.106   6.466  18.927  0.00  0.00    +0.000 A 
ATOM     18  C   UNL     1       7.285   5.421  19.338  0.00  0.00    +0.000 A 
ATOM     19  C   UNL     1       6.039   5.230  18.736  0.00  0.00    +0.000 A 
ENDBRANCH  10  14
TORSDOF 1
ENDMDL
MODEL 5
REMARK VINA RESULT:      -6.8      3.202      5.089
REMARK  Name = 
REMARK  1 active torsions:
REMARK  status: ('A' for Active; 'I' for Inactive)
REMARK    1  A    between atoms: C_10  and  C_11
REMARK                            x       y       z     vdW  Elec       q    Type
REMARK                         _______ _______ _______ _____ _____    ______ ____
ROOT
ATOM      1  N   UNL     1       8.433   8.127  18.016  0.00  0.00    +0.000 N 
ATOM      2  C   UNL     1       7.449   7.217  17.962  0.00  0.00    +0.000 A 
ATOM      3  N   UNL     1       6.437   7.308  17.133  0.00  0.00    +0.000 NA
ATOM      4  C   UNL     1       5.562   6.270  17.364  0.00  0.00    +0.000 A 
ATOM      5  C   UNL     1       5.957   5.370  18.328  0.00  0.00    +0.000 A 
ATOM      6  S   UNL     1       7.443   5.838  18.996  0.00  0.00    +0.000 S 
ATOM      7  C   UNL     1       5.189   4.220  18.737  0.00  0.00    +0.000 C 
ATOM      8  O   UNL     1       5.535   3.408  19.593  0.00  0.00    +0.000 OA
ATOM      9  C   UNL     1       3.882   4.024  17.961  0.00  0.00    +0.000 C 
ATOM     10  C   UNL     1       3.239   5.360  17.498  0.00  0.00    +0.000 C 
ATOM     11  C   UNL     1       4.270   6.146  16.634  0.00  0.00    +0.000 C 
ATOM     12  H   UNL     1       8.504   8.771  17.237  0.00  0.00    +0.000 HD
ATOM     13  H   UNL     1       9.302   7.892  18.474  0.00  0.00    +0.000 HD
ENDROOT
BRANCH  10  14
ATOM     14  C   UNL     1       2.618   6.211  18.611  0.00  0.00    +0.000 A 
ATOM     15  C   UNL     1       2.196   5.682  19.842  0.00  0.00    +0.000 A 
ATOM     16  C   UNL     1       1.619   6.497  20.822  0.00  0.00    +0.000 A 
ATOM     17  C   UNL     1       1.445   7.857  20.589  0.00  0.00    +0.000 A 
ATOM     18  C   UNL     1       1.841   8.401  19.372  0.00  0.00    +0.000 A 
ATOM     19  C   UNL     1       2.414   7.586  18.392  0.00  0.00    +0.000 A 
ENDBRANCH  10  14
TORSDOF 1
ENDMDL
MODEL 6
REMARK VINA RESULT:      -6.8      2.531      3.846
REMARK  Name = 
REMARK  1 active torsions:
REMARK  status: ('A' for Active; 'I' for Inactive)
REMARK    1  A    between atoms: C_10  and  C_11
REMARK                            x       y       z     vdW  Elec       q    Type
REMARK                         _______ _______ _______ _____ _____    ______ ____
ROOT
ATOM      1  N   UNL     1       1.061   2.519  22.360  0.00  0.00    +0.000 N 
ATOM      2  C   UNL     1       1.634   3.049  21.268  0.00  0.00    +0.000 A 
ATOM      3  N   UNL     1       2.721   3.781  21.318  0.00  0.00    +0.000 NA
ATOM      4  C   UNL     1       3.022   4.237  20.054  0.00  0.00    +0.000 A 
ATOM      5  C   UNL     1       2.190   3.789  19.053  0.00  0.00    +0.000 A 
ATOM      6  S   UNL     1       0.974   2.800  19.697  0.00  0.00    +0.000 S 
ATOM      7  C   UNL     1       2.315   4.153  17.663  0.00  0.00    +0.000 C 
ATOM      8  O   UNL     1       1.581   3.754  16.760  0.00  0.00    +0.000 OA
ATOM      9  C   UNL     1       3.513   5.056  17.350  0.00  0.00    +0.000 C 
ATOM     10  C   UNL     1       3.880   6.011  18.518  0.00  0.00    +0.000 C 
ATOM     11  C   UNL     1       4.158   5.165  19.797  0.00  0.00    +0.000 C 
ATOM     12  H   UNL     1       1.617   2.500  23.206  0.00  0.00    +0.000 HD
ATOM     13  H   UNL     1       0.394   1.768  22.255  0.00  0.00    +0.000 HD
ENDROOT
BRANCH  10  14
ATOM     14  C   UNL     1       2.895   7.160  18.762  0.00  0.00    +0.000 A 
ATOM     15  C   UNL     1       2.227   7.357  19.982  0.00  0.00    +0.000 A 
ATOM     16  C   UNL     1       1.323   8.411  20.152  0.00  0.00    +0.000 A 
ATOM     17  C   UNL     1       1.061   9.285  19.103  0.00  0.00    +0.000 A 
ATOM     18  C   UNL     1       1.698   9.101  17.880  0.00  0.00    +0.000 A 
ATOM     19  C   UNL     1       2.599   8.046  17.710  0.00  0.00    +0.000 A 
ENDBRANCH  10  14
TORSDOF 1
ENDMDL
MODEL 7
REMARK VINA RESULT:      -6.8      3.294      4.936
REMARK  Name = 
REMARK  1 active torsions:
REMARK  status: ('A' for Active; 'I' for Inactive)
REMARK    1  A    between atoms: C_10  and  C_11
REMARK                            x       y       z     vdW  Elec       q    Type
REMARK                         _______ _______ _______ _____ _____    ______ ____
ROOT
ATOM      1  N   UNL     1       7.352   5.716  15.502  0.00  0.00    +0.000 N 
ATOM      2  C   UNL     1       6.436   5.103  16.268  0.00  0.00    +0.000 A 
ATOM      3  N   UNL     1       5.187   4.948  15.900  0.00  0.00    +0.000 NA
ATOM      4  C   UNL     1       4.482   4.350  16.920  0.00  0.00    +0.000 A 
ATOM      5  C   UNL     1       5.225   4.005  18.027  0.00  0.00    +0.000 A 
ATOM      6  S   UNL     1       6.843   4.463  17.815  0.00  0.00    +0.000 S 
ATOM      7  C   UNL     1       4.687   3.384  19.212  0.00  0.00    +0.000 C 
ATOM      8  O   UNL     1       5.343   3.067  20.203  0.00  0.00    +0.000 OA
ATOM      9  C   UNL     1       3.189   3.068  19.136  0.00  0.00    +0.000 C 
ATOM     10  C   UNL     1       2.394   4.078  18.266  0.00  0.00    +0.000 C 
ATOM     11  C   UNL     1       3.013   4.115  16.836  0.00  0.00    +0.000 C 
ATOM     12  H   UNL     1       7.115   5.853  14.526  0.00  0.00    +0.000 HD
ATOM     13  H   UNL     1       8.333   5.589  15.703  0.00  0.00    +0.000 HD
ENDROOT
BRANCH  10  14
ATOM     14  C   UNL     1       2.214   5.472  18.876  0.00  0.00    +0.000 A 
ATOM     15  C   UNL     1       1.853   5.687  20.216  0.00  0.00    +0.000 A 
ATOM     16  C   UNL     1       1.685   6.979  20.724  0.00  0.00    +0.000 A 
ATOM     17  C   UNL     1       1.867   8.085  19.901  0.00  0.00    +0.000 A 
ATOM     18  C   UNL     1       2.210   7.898  18.566  0.00  0.00    +0.000 A 
ATOM     19  C   UNL     1       2.375   6.607  18.058  0.00  0.00    +0.000 A 
ENDBRANCH  10  14
TORSDOF 1
ENDMDL
MODEL 8
REMARK VINA RESULT:      -6.8      3.301      5.046
REMARK  Name = 
REMARK  1 active torsions:
REMARK  status: ('A' for Active; 'I' for Inactive)
REMARK    1  A    between atoms: C_10  and  C_11
REMARK                            x       y       z     vdW  Elec       q    Type
REMARK                         _______ _______ _______ _____ _____    ______ ____
ROOT
ATOM      1  N   UNL     1       7.336   5.557  15.492  0.00  0.00    +0.000 N 
ATOM      2  C   UNL     1       6.406   4.975  16.266  0.00  0.00    +0.000 A 
ATOM      3  N   UNL     1       5.160   4.821  15.888  0.00  0.00    +0.000 NA
ATOM      4  C   UNL     1       4.437   4.261  16.918  0.00  0.00    +0.000 A 
ATOM      5  C   UNL     1       5.165   3.942  18.043  0.00  0.00    +0.000 A 
ATOM      6  S   UNL     1       6.789   4.379  17.835  0.00  0.00    +0.000 S 
ATOM      7  C   UNL     1       4.608   3.362  19.240  0.00  0.00    +0.000 C 
ATOM      8  O   UNL     1       5.249   3.068  20.247  0.00  0.00    +0.000 OA
ATOM      9  C   UNL     1       3.108   3.057  19.156  0.00  0.00    +0.000 C 
ATOM     10  C   UNL     1       2.332   4.048  18.247  0.00  0.00    +0.000 C 
ATOM     11  C   UNL     1       2.968   4.036  16.825  0.00  0.00    +0.000 C 
ATOM     12  H   UNL     1       7.111   5.667  14.511  0.00  0.00    +0.000 HD
ATOM     13  H   UNL     1       8.314   5.427  15.709  0.00  0.00    +0.000 HD
ENDROOT
BRANCH  10  14
ATOM     14  C   UNL     1       2.159   5.462  18.814  0.00  0.00    +0.000 A 
ATOM     15  C   UNL     1       2.416   6.627  18.073  0.00  0.00    +0.000 A 
ATOM     16  C   UNL     1       2.260   7.896  18.640  0.00  0.00    +0.000 A 
ATOM     17  C   UNL     1       1.851   8.027  19.963  0.00  0.00    +0.000 A 
ATOM     18  C   UNL     1       1.606   6.888  20.722  0.00  0.00    +0.000 A 
ATOM     19  C   UNL     1       1.765   5.620  20.156  0.00  0.00    +0.000 A 
ENDBRANCH  10  14
TORSDOF 1
ENDMDL
MODEL 9
REMARK VINA RESULT:      -6.7      2.476      3.935
REMARK  Name = 
REMARK  1 active torsions:
REMARK  status: ('A' for Active; 'I' for Inactive)
REMARK    1  A    between atoms: C_10  and  C_11
REMARK                            x       y       z     vdW  Elec       q    Type
REMARK                         _______ _______ _______ _____ _____    ______ ____
ROOT
ATOM      1  N   UNL     1       1.206   2.487  22.282  0.00  0.00    +0.000 N 
ATOM      2  C   UNL     1       1.795   3.003  21.193  0.00  0.00    +0.000 A 
ATOM      3  N   UNL     1       2.860   3.765  21.252  0.00  0.00    +0.000 NA
ATOM      4  C   UNL     1       3.185   4.195  19.985  0.00  0.00    +0.000 A 
ATOM      5  C   UNL     1       2.393   3.699  18.974  0.00  0.00    +0.000 A 
ATOM      6  S   UNL     1       1.186   2.695  19.611  0.00  0.00    +0.000 S 
ATOM      7  C   UNL     1       2.547   4.028  17.578  0.00  0.00    +0.000 C 
ATOM      8  O   UNL     1       1.849   3.587  16.667  0.00  0.00    +0.000 OA
ATOM      9  C   UNL     1       3.730   4.955  17.274  0.00  0.00    +0.000 C 
ATOM     10  C   UNL     1       4.040   5.950  18.425  0.00  0.00    +0.000 C 
ATOM     11  C   UNL     1       4.303   5.146  19.733  0.00  0.00    +0.000 C 
ATOM     12  H   UNL     1       1.738   2.506  23.143  0.00  0.00    +0.000 HD
ATOM     13  H   UNL     1       0.561   1.716  22.179  0.00  0.00    +0.000 HD
ENDROOT
BRANCH  10  14
ATOM     14  C   UNL     1       3.018   7.078  18.611  0.00  0.00    +0.000 A 
ATOM     15  C   UNL     1       2.707   8.010  17.608  0.00  0.00    +0.000 A 
ATOM     16  C   UNL     1       1.779   9.032  17.831  0.00  0.00    +0.000 A 
ATOM     17  C   UNL     1       1.148   9.150  19.064  0.00  0.00    +0.000 A 
ATOM     18  C   UNL     1       1.451   8.248  20.079  0.00  0.00    +0.000 A 
ATOM     19  C   UNL     1       2.380   7.228  19.857  0.00  0.00    +0.000 A 
ENDBRANCH  10  14
TORSDOF 1
ENDMDL
