MODEL 1
REMARK VINA RESULT:      -7.2      0.000      0.000
REMARK  Name = 
REMARK  4 active torsions:
REMARK  status: ('A' for Active; 'I' for Inactive)
REMARK    1  A    between atoms: C_1  and  O_2
REMARK    2  A    between atoms: O_2  and  C_3
REMARK    3  A    between atoms: C_12  and  O_13
REMARK    4  A    between atoms: C_16  and  C_17
REMARK                            x       y       z     vdW  Elec       q    Type
REMARK                         _______ _______ _______ _____ _____    ______ ____
ROOT
ATOM      1  C   UNL     1       0.742  10.086  20.047  0.00  0.00    +0.000 A 
ATOM      2  C   UNL     1       0.496   9.113  21.010  0.00  0.00    +0.000 A 
ATOM      3  C   UNL     1       1.045   7.829  20.878  0.00  0.00    +0.000 A 
ATOM      4  C   UNL     1       1.862   7.488  19.806  0.00  0.00    +0.000 A 
ATOM      5  N   UNL     1       2.384   6.246  19.696  0.00  0.00    +0.000 NA
ATOM      6  C   UNL     1       3.191   5.913  18.651  0.00  0.00    +0.000 A 
ATOM      7  N   UNL     1       3.670   4.614  18.617  0.00  0.00    +0.000 N 
ATOM      8  C   UNL     1       3.868   3.891  19.875  0.00  0.00    +0.000 C 
ATOM      9  C   UNL     1       2.985   2.649  19.943  0.00  0.00    +0.000 C 
ATOM     10  C   UNL     1       3.113   1.782  18.692  0.00  0.00    +0.000 C 
ATOM     11  C   UNL     1       2.898   2.598  17.426  0.00  0.00    +0.000 C 
ATOM     12  C   UNL     1       3.777   3.843  17.377  0.00  0.00    +0.000 C 
ATOM     13  C   UNL     1       3.510   6.886  17.691  0.00  0.00    +0.000 A 
ATOM     14  C   UNL     1       2.960   8.168  17.790  0.00  0.00    +0.000 A 
ATOM     15  C   UNL     1       2.120   8.487  18.853  0.00  0.00    +0.000 A 
ATOM     16  C   UNL     1       1.569   9.775  18.974  0.00  0.00    +0.000 A 
ENDROOT
BRANCH   1  18
ATOM     17  C   UNL     1      -1.236  11.377  20.049  0.00  0.00    +0.000 C 
ATOM     18  O   UNL     1       0.171  11.308  20.267  0.00  0.00    +0.000 OA
ENDBRANCH   1  18
BRANCH  10  19
ATOM     19  O   UNL     1       4.373   1.115  18.657  0.00  0.00    +0.000 OA
ATOM     20  H   UNL     1       5.074   1.762  18.473  0.00  0.00    +0.000 HD
ENDBRANCH  10  19
BRANCH  13  21
ATOM     21  C   UNL     1       4.437   6.667  16.624  0.00  0.00    +0.000 C 
ATOM     22  N   UNL     1       5.209   6.528  15.767  0.00  0.00    +0.000 NA
ENDBRANCH  13  21
TORSDOF 3
ENDMDL
MODEL 2
REMARK VINA RESULT:      -7.1      3.210      6.189
REMARK  Name = 
REMARK  4 active torsions:
REMARK  status: ('A' for Active; 'I' for Inactive)
REMARK    1  A    between atoms: C_1  and  O_2
REMARK    2  A    between atoms: O_2  and  C_3
REMARK    3  A    between atoms: C_12  and  O_13
REMARK    4  A    between atoms: C_16  and  C_17
REMARK                            x       y       z     vdW  Elec       q    Type
REMARK                         _______ _______ _______ _____ _____    ______ ____
ROOT
ATOM      1  C   UNL     1       6.800   5.219  14.463  0.00  0.00    +0.000 A 
ATOM      2  C   UNL     1       6.536   3.870  14.678  0.00  0.00    +0.000 A 
ATOM      3  C   UNL     1       5.596   3.475  15.642  0.00  0.00    +0.000 A 
ATOM      4  C   UNL     1       4.887   4.403  16.397  0.00  0.00    +0.000 A 
ATOM      5  N   UNL     1       3.985   4.004  17.321  0.00  0.00    +0.000 NA
ATOM      6  C   UNL     1       3.283   4.912  18.055  0.00  0.00    +0.000 A 
ATOM      7  N   UNL     1       2.389   4.409  18.985  0.00  0.00    +0.000 N 
ATOM      8  C   UNL     1       1.757   3.111  18.742  0.00  0.00    +0.000 C 
ATOM      9  C   UNL     1       2.124   2.105  19.830  0.00  0.00    +0.000 C 
ATOM     10  C   UNL     1       1.893   2.664  21.232  0.00  0.00    +0.000 C 
ATOM     11  C   UNL     1       2.574   4.013  21.411  0.00  0.00    +0.000 C 
ATOM     12  C   UNL     1       2.209   5.003  20.310  0.00  0.00    +0.000 C 
ATOM     13  C   UNL     1       3.480   6.282  17.825  0.00  0.00    +0.000 A 
ATOM     14  C   UNL     1       4.425   6.700  16.882  0.00  0.00    +0.000 A 
ATOM     15  C   UNL     1       5.149   5.761  16.154  0.00  0.00    +0.000 A 
ATOM     16  C   UNL     1       6.093   6.166  15.194  0.00  0.00    +0.000 A 
ENDROOT
BRANCH   1  18
ATOM     17  C   UNL     1       7.496   4.894  12.229  0.00  0.00    +0.000 C 
ATOM     18  O   UNL     1       7.724   5.504  13.497  0.00  0.00    +0.000 OA
ENDBRANCH   1  18
BRANCH  10  19
ATOM     19  O   UNL     1       0.500   2.758  21.524  0.00  0.00    +0.000 OA
ATOM     20  H   UNL     1       0.075   1.904  21.339  0.00  0.00    +0.000 HD
ENDBRANCH  10  19
BRANCH  13  21
ATOM     21  C   UNL     1       2.712   7.307  18.461  0.00  0.00    +0.000 C 
ATOM     22  N   UNL     1       2.068   8.147  18.940  0.00  0.00    +0.000 NA
ENDBRANCH  13  21
TORSDOF 3
ENDMDL
MODEL 3
REMARK VINA RESULT:      -6.8      1.888      3.425
REMARK  Name = 
REMARK  4 active torsions:
REMARK  status: ('A' for Active; 'I' for Inactive)
REMARK    1  A    between atoms: C_1  and  O_2
REMARK    2  A    between atoms: O_2  and  C_3
REMARK    3  A    between atoms: C_12  and  O_13
REMARK    4  A    between atoms: C_16  and  C_17
REMARK                            x       y       z     vdW  Elec       q    Type
REMARK                         _______ _______ _______ _____ _____    ______ ____
ROOT
ATOM      1  C   UNL     1       0.323   9.399  20.784  0.00  0.00    +0.000 A 
ATOM      2  C   UNL     1       0.884   9.867  19.600  0.00  0.00    +0.000 A 
ATOM      3  C   UNL     1       1.772   9.064  18.869  0.00  0.00    +0.000 A 
ATOM      4  C   UNL     1       2.106   7.779  19.281  0.00  0.00    +0.000 A 
ATOM      5  N   UNL     1       2.963   7.019  18.562  0.00  0.00    +0.000 NA
ATOM      6  C   UNL     1       3.285   5.757  18.960  0.00  0.00    +0.000 A 
ATOM      7  N   UNL     1       4.179   5.059  18.166  0.00  0.00    +0.000 N 
ATOM      8  C   UNL     1       4.238   5.346  16.731  0.00  0.00    +0.000 C 
ATOM      9  C   UNL     1       5.615   5.865  16.328  0.00  0.00    +0.000 C 
ATOM     10  C   UNL     1       6.740   4.966  16.836  0.00  0.00    +0.000 C 
ATOM     11  C   UNL     1       6.613   4.709  18.330  0.00  0.00    +0.000 C 
ATOM     12  C   UNL     1       5.229   4.203  18.721  0.00  0.00    +0.000 C 
ATOM     13  C   UNL     1       2.693   5.229  20.117  0.00  0.00    +0.000 A 
ATOM     14  C   UNL     1       1.820   6.016  20.874  0.00  0.00    +0.000 A 
ATOM     15  C   UNL     1       1.516   7.312  20.466  0.00  0.00    +0.000 A 
ATOM     16  C   UNL     1       0.629   8.111  21.209  0.00  0.00    +0.000 A 
ENDROOT
BRANCH   1  18
ATOM     17  C   UNL     1      -0.658  10.061  22.829  0.00  0.00    +0.000 C 
ATOM     18  O   UNL     1      -0.536  10.250  21.421  0.00  0.00    +0.000 OA
ENDBRANCH   1  18
BRANCH  10  19
ATOM     19  O   UNL     1       6.783   3.738  16.112  0.00  0.00    +0.000 OA
ATOM     20  H   UNL     1       7.692   3.394  16.116  0.00  0.00    +0.000 HD
ENDBRANCH  10  19
BRANCH  13  21
ATOM     21  C   UNL     1       2.879   3.879  20.551  0.00  0.00    +0.000 C 
ATOM     22  N   UNL     1       2.987   2.776  20.898  0.00  0.00    +0.000 NA
ENDBRANCH  13  21
TORSDOF 3
ENDMDL
MODEL 4
REMARK VINA RESULT:      -6.8      1.948      3.377
REMARK  Name = 
REMARK  4 active torsions:
REMARK  status: ('A' for Active; 'I' for Inactive)
REMARK    1  A    between atoms: C_1  and  O_2
REMARK    2  A    between atoms: O_2  and  C_3
REMARK    3  A    between atoms: C_12  and  O_13
REMARK    4  A    between atoms: C_16  and  C_17
REMARK                            x       y       z     vdW  Elec       q    Type
REMARK                         _______ _______ _______ _____ _____    ______ ____
ROOT
ATOM      1  C   UNL     1      -0.022  10.496  20.070  0.00  0.00    +0.000 A 
ATOM      2  C   UNL     1       0.680  10.756  18.896  0.00  0.00    +0.000 A 
ATOM      3  C   UNL     1       1.592   9.817  18.393  0.00  0.00    +0.000 A 
ATOM      4  C   UNL     1       1.815   8.599  19.024  0.00  0.00    +0.000 A 
ATOM      5  N   UNL     1       2.697   7.706  18.523  0.00  0.00    +0.000 NA
ATOM      6  C   UNL     1       2.910   6.508  19.136  0.00  0.00    +0.000 A 
ATOM      7  N   UNL     1       3.841   5.663  18.556  0.00  0.00    +0.000 N 
ATOM      8  C   UNL     1       4.059   5.725  17.109  0.00  0.00    +0.000 C 
ATOM      9  C   UNL     1       5.496   6.124  16.784  0.00  0.00    +0.000 C 
ATOM     10  C   UNL     1       6.515   5.272  17.538  0.00  0.00    +0.000 C 
ATOM     11  C   UNL     1       6.224   5.252  19.032  0.00  0.00    +0.000 C 
ATOM     12  C   UNL     1       4.782   4.865  19.342  0.00  0.00    +0.000 C 
ATOM     13  C   UNL     1       2.177   6.187  20.289  0.00  0.00    +0.000 A 
ATOM     14  C   UNL     1       1.275   7.113  20.821  0.00  0.00    +0.000 A 
ATOM     15  C   UNL     1       1.084   8.341  20.195  0.00  0.00    +0.000 A 
ATOM     16  C   UNL     1       0.171   9.278  20.712  0.00  0.00    +0.000 A 
ENDROOT
BRANCH   1  18
ATOM     17  C   UNL     1      -1.660  12.078  19.441  0.00  0.00    +0.000 C 
ATOM     18  O   UNL     1      -0.894  11.466  20.476  0.00  0.00    +0.000 OA
ENDBRANCH   1  18
BRANCH  10  19
ATOM     19  O   UNL     1       6.564   3.946  17.014  0.00  0.00    +0.000 OA
ATOM     20  H   UNL     1       6.592   3.312  17.749  0.00  0.00    +0.000 HD
ENDBRANCH  10  19
BRANCH  13  21
ATOM     21  C   UNL     1       2.246   4.914  20.936  0.00  0.00    +0.000 C 
ATOM     22  N   UNL     1       2.268   3.891  21.488  0.00  0.00    +0.000 NA
ENDBRANCH  13  21
TORSDOF 3
ENDMDL
MODEL 5
REMARK VINA RESULT:      -6.5      1.657      2.072
REMARK  Name = 
REMARK  4 active torsions:
REMARK  status: ('A' for Active; 'I' for Inactive)
REMARK    1  A    between atoms: C_1  and  O_2
REMARK    2  A    between atoms: O_2  and  C_3
REMARK    3  A    between atoms: C_12  and  O_13
REMARK    4  A    between atoms: C_16  and  C_17
REMARK                            x       y       z     vdW  Elec       q    Type
REMARK                         _______ _______ _______ _____ _____    ______ ____
ROOT
ATOM      1  C   UNL     1      -0.121  11.080  21.488  0.00  0.00    +0.000 A 
ATOM      2  C   UNL     1      -0.466  10.087  22.401  0.00  0.00    +0.000 A 
ATOM      3  C   UNL     1      -0.049   8.763  22.200  0.00  0.00    +0.000 A 
ATOM      4  C   UNL     1       0.729   8.397  21.108  0.00  0.00    +0.000 A 
ATOM      5  N   UNL     1       1.123   7.115  20.932  0.00  0.00    +0.000 NA
ATOM      6  C   UNL     1       1.893   6.757  19.867  0.00  0.00    +0.000 A 
ATOM      7  N   UNL     1       2.237   5.420  19.764  0.00  0.00    +0.000 N 
ATOM      8  C   UNL     1       2.359   4.616  20.982  0.00  0.00    +0.000 C 
ATOM      9  C   UNL     1       1.354   3.468  20.990  0.00  0.00    +0.000 C 
ATOM     10  C   UNL     1       1.395   2.658  19.696  0.00  0.00    +0.000 C 
ATOM     11  C   UNL     1       1.265   3.557  18.475  0.00  0.00    +0.000 C 
ATOM     12  C   UNL     1       2.266   4.707  18.486  0.00  0.00    +0.000 C 
ATOM     13  C   UNL     1       2.309   7.741  18.958  0.00  0.00    +0.000 A 
ATOM     14  C   UNL     1       1.892   9.065  19.126  0.00  0.00    +0.000 A 
ATOM     15  C   UNL     1       1.088   9.412  20.207  0.00  0.00    +0.000 A 
ATOM     16  C   UNL     1       0.671  10.742  20.397  0.00  0.00    +0.000 A 
ENDROOT
BRANCH   1  18
ATOM     17  C   UNL     1      -1.285  12.475  22.997  0.00  0.00    +0.000 C 
ATOM     18  O   UNL     1      -0.565  12.340  21.774  0.00  0.00    +0.000 OA
ENDBRANCH   1  18
BRANCH  10  19
ATOM     19  O   UNL     1       2.581   1.870  19.621  0.00  0.00    +0.000 OA
ATOM     20  H   UNL     1       3.038   1.894  20.477  0.00  0.00    +0.000 HD
ENDBRANCH  10  19
BRANCH  13  21
ATOM     21  C   UNL     1       3.210   7.485  17.877  0.00  0.00    +0.000 C 
ATOM     22  N   UNL     1       3.926   7.312  16.979  0.00  0.00    +0.000 NA
ENDBRANCH  13  21
TORSDOF 3
ENDMDL
MODEL 6
REMARK VINA RESULT:      -6.5      2.437      7.839
REMARK  Name = 
REMARK  4 active torsions:
REMARK  status: ('A' for Active; 'I' for Inactive)
REMARK    1  A    between atoms: C_1  and  O_2
REMARK    2  A    between atoms: O_2  and  C_3
REMARK    3  A    between atoms: C_12  and  O_13
REMARK    4  A    between atoms: C_16  and  C_17
REMARK                            x       y       z     vdW  Elec       q    Type
REMARK                         _______ _______ _______ _____ _____    ______ ____
ROOT
ATOM      1  C   UNL     1       3.109   5.706  18.770  0.00  0.00    +0.000 A 
ATOM      2  C   UNL     1       3.156   6.597  17.701  0.00  0.00    +0.000 A 
ATOM      3  C   UNL     1       2.583   7.872  17.815  0.00  0.00    +0.000 A 
ATOM      4  C   UNL     1       1.972   8.300  18.987  0.00  0.00    +0.000 A 
ATOM      5  N   UNL     1       1.427   9.534  19.079  0.00  0.00    +0.000 NA
ATOM      6  C   UNL     1       0.835   9.957  20.230  0.00  0.00    +0.000 A 
ATOM      7  N   UNL     1       0.294  11.231  20.225  0.00  0.00    +0.000 N 
ATOM      8  C   UNL     1       0.880  12.254  19.356  0.00  0.00    +0.000 C 
ATOM      9  C   UNL     1      -0.132  12.754  18.330  0.00  0.00    +0.000 C 
ATOM     10  C   UNL     1      -1.455  13.160  18.976  0.00  0.00    +0.000 C 
ATOM     11  C   UNL     1      -2.002  12.053  19.865  0.00  0.00    +0.000 C 
ATOM     12  C   UNL     1      -0.976  11.554  20.877  0.00  0.00    +0.000 C 
ATOM     13  C   UNL     1       0.820   9.108  21.347  0.00  0.00    +0.000 A 
ATOM     14  C   UNL     1       1.367   7.825  21.254  0.00  0.00    +0.000 A 
ATOM     15  C   UNL     1       1.950   7.399  20.064  0.00  0.00    +0.000 A 
ATOM     16  C   UNL     1       2.517   6.116  19.959  0.00  0.00    +0.000 A 
ENDROOT
BRANCH   1  18
ATOM     17  C   UNL     1       3.112   3.397  19.265  0.00  0.00    +0.000 C 
ATOM     18  O   UNL     1       3.701   4.492  18.567  0.00  0.00    +0.000 OA
ENDBRANCH   1  18
BRANCH  10  19
ATOM     19  O   UNL     1      -1.315  14.376  19.710  0.00  0.00    +0.000 OA
ATOM     20  H   UNL     1      -1.608  15.119  19.158  0.00  0.00    +0.000 HD
ENDBRANCH  10  19
BRANCH  13  21
ATOM     21  C   UNL     1       0.326   9.503  22.630  0.00  0.00    +0.000 C 
ATOM     22  N   UNL     1      -0.034   9.822  23.687  0.00  0.00    +0.000 NA
ENDBRANCH  13  21
TORSDOF 3
ENDMDL
MODEL 7
REMARK VINA RESULT:      -6.5      2.070      3.584
REMARK  Name = 
REMARK  4 active torsions:
REMARK  status: ('A' for Active; 'I' for Inactive)
REMARK    1  A    between atoms: C_1  and  O_2
REMARK    2  A    between atoms: O_2  and  C_3
REMARK    3  A    between atoms: C_12  and  O_13
REMARK    4  A    between atoms: C_16  and  C_17
REMARK                            x       y       z     vdW  Elec       q    Type
REMARK                         _______ _______ _______ _____ _____    ______ ____
ROOT
ATOM      1  C   UNL     1       0.943   8.951  20.406  0.00  0.00    +0.000 A 
ATOM      2  C   UNL     1       1.268   9.423  19.138  0.00  0.00    +0.000 A 
ATOM      3  C   UNL     1       2.075   8.659  18.281  0.00  0.00    +0.000 A 
ATOM      4  C   UNL     1       2.559   7.410  18.652  0.00  0.00    +0.000 A 
ATOM      5  N   UNL     1       3.335   6.687  17.812  0.00  0.00    +0.000 NA
ATOM      6  C   UNL     1       3.803   5.460  18.170  0.00  0.00    +0.000 A 
ATOM      7  N   UNL     1       4.599   4.799  17.249  0.00  0.00    +0.000 N 
ATOM      8  C   UNL     1       4.400   5.052  15.820  0.00  0.00    +0.000 C 
ATOM      9  C   UNL     1       5.653   5.647  15.185  0.00  0.00    +0.000 C 
ATOM     10  C   UNL     1       6.905   4.836  15.512  0.00  0.00    +0.000 C 
ATOM     11  C   UNL     1       7.045   4.611  17.011  0.00  0.00    +0.000 C 
ATOM     12  C   UNL     1       5.782   4.028  17.635  0.00  0.00    +0.000 C 
ATOM     13  C   UNL     1       3.448   4.926  19.418  0.00  0.00    +0.000 A 
ATOM     14  C   UNL     1       2.661   5.675  20.297  0.00  0.00    +0.000 A 
ATOM     15  C   UNL     1       2.206   6.937  19.925  0.00  0.00    +0.000 A 
ATOM     16  C   UNL     1       1.403   7.698  20.794  0.00  0.00    +0.000 A 
ENDROOT
BRANCH   1  18
ATOM     17  C   UNL     1      -0.362   9.179  22.362  0.00  0.00    +0.000 C 
ATOM     18  O   UNL     1       0.146   9.762  21.164  0.00  0.00    +0.000 OA
ENDBRANCH   1  18
BRANCH  10  19
ATOM     19  O   UNL     1       6.911   3.594  14.811  0.00  0.00    +0.000 OA
ATOM     20  H   UNL     1       7.343   2.918  15.359  0.00  0.00    +0.000 HD
ENDBRANCH  10  19
BRANCH  13  21
ATOM     21  C   UNL     1       3.794   3.603  19.837  0.00  0.00    +0.000 C 
ATOM     22  N   UNL     1       4.045   2.531  20.208  0.00  0.00    +0.000 NA
ENDBRANCH  13  21
TORSDOF 3
ENDMDL
MODEL 8
REMARK VINA RESULT:      -6.4      1.472      1.647
REMARK  Name = 
REMARK  4 active torsions:
REMARK  status: ('A' for Active; 'I' for Inactive)
REMARK    1  A    between atoms: C_1  and  O_2
REMARK    2  A    between atoms: O_2  and  C_3
REMARK    3  A    between atoms: C_12  and  O_13
REMARK    4  A    between atoms: C_16  and  C_17
REMARK                            x       y       z     vdW  Elec       q    Type
REMARK                         _______ _______ _______ _____ _____    ______ ____
ROOT
ATOM      1  C   UNL     1       0.478  11.506  19.530  0.00  0.00    +0.000 A 
ATOM      2  C   UNL     1      -0.056  10.740  20.562  0.00  0.00    +0.000 A 
ATOM      3  C   UNL     1       0.272   9.382  20.681  0.00  0.00    +0.000 A 
ATOM      4  C   UNL     1       1.147   8.759  19.798  0.00  0.00    +0.000 A 
ATOM      5  N   UNL     1       1.454   7.449  19.930  0.00  0.00    +0.000 NA
ATOM      6  C   UNL     1       2.318   6.840  19.071  0.00  0.00    +0.000 A 
ATOM      7  N   UNL     1       2.562   5.493  19.278  0.00  0.00    +0.000 N 
ATOM      8  C   UNL     1       2.467   4.948  20.634  0.00  0.00    +0.000 C 
ATOM      9  C   UNL     1       1.379   3.882  20.727  0.00  0.00    +0.000 C 
ATOM     10  C   UNL     1       1.513   2.826  19.633  0.00  0.00    +0.000 C 
ATOM     11  C   UNL     1       1.608   3.463  18.254  0.00  0.00    +0.000 C 
ATOM     12  C   UNL     1       2.690   4.535  18.179  0.00  0.00    +0.000 C 
ATOM     13  C   UNL     1       2.921   7.594  18.054  0.00  0.00    +0.000 A 
ATOM     14  C   UNL     1       2.596   8.945  17.902  0.00  0.00    +0.000 A 
ATOM     15  C   UNL     1       1.696   9.549  18.775  0.00  0.00    +0.000 A 
ATOM     16  C   UNL     1       1.368  10.911  18.643  0.00  0.00    +0.000 A 
ENDROOT
BRANCH   1  18
ATOM     17  C   UNL     1      -0.476  13.268  18.279  0.00  0.00    +0.000 C 
ATOM     18  O   UNL     1       0.106  12.821  19.501  0.00  0.00    +0.000 OA
ENDBRANCH   1  18
BRANCH  10  19
ATOM     19  O   UNL     1       2.631   1.974  19.875  0.00  0.00    +0.000 OA
ATOM     20  H   UNL     1       2.480   1.117  19.444  0.00  0.00    +0.000 HD
ENDBRANCH  10  19
BRANCH  13  21
ATOM     21  C   UNL     1       3.925   7.074  17.177  0.00  0.00    +0.000 C 
ATOM     22  N   UNL     1       4.729   6.612  16.478  0.00  0.00    +0.000 NA
ENDBRANCH  13  21
TORSDOF 3
ENDMDL
MODEL 9
REMARK VINA RESULT:      -6.0      6.747      9.572
REMARK  Name = 
REMARK  4 active torsions:
REMARK  status: ('A' for Active; 'I' for Inactive)
REMARK    1  A    between atoms: C_1  and  O_2
REMARK    2  A    between atoms: O_2  and  C_3
REMARK    3  A    between atoms: C_12  and  O_13
REMARK    4  A    between atoms: C_16  and  C_17
REMARK                            x       y       z     vdW  Elec       q    Type
REMARK                         _______ _______ _______ _____ _____    ______ ____
ROOT
ATOM      1  C   UNL     1      -2.991  10.068  15.889  0.00  0.00    +0.000 A 
ATOM      2  C   UNL     1      -4.060  10.923  16.141  0.00  0.00    +0.000 A 
ATOM      3  C   UNL     1      -4.131  11.634  17.349  0.00  0.00    +0.000 A 
ATOM      4  C   UNL     1      -3.141  11.530  18.319  0.00  0.00    +0.000 A 
ATOM      5  N   UNL     1      -3.225  12.225  19.476  0.00  0.00    +0.000 NA
ATOM      6  C   UNL     1      -2.252  12.131  20.424  0.00  0.00    +0.000 A 
ATOM      7  N   UNL     1      -2.430  12.871  21.581  0.00  0.00    +0.000 N 
ATOM      8  C   UNL     1      -3.192  14.120  21.522  0.00  0.00    +0.000 C 
ATOM      9  C   UNL     1      -4.437  14.050  22.402  0.00  0.00    +0.000 C 
ATOM     10  C   UNL     1      -4.116  13.576  23.817  0.00  0.00    +0.000 C 
ATOM     11  C   UNL     1      -3.322  12.278  23.801  0.00  0.00    +0.000 C 
ATOM     12  C   UNL     1      -2.089  12.357  22.908  0.00  0.00    +0.000 C 
ATOM     13  C   UNL     1      -1.130  11.325  20.180  0.00  0.00    +0.000 A 
ATOM     14  C   UNL     1      -1.045  10.592  18.992  0.00  0.00    +0.000 A 
ATOM     15  C   UNL     1      -2.057  10.682  18.042  0.00  0.00    +0.000 A 
ATOM     16  C   UNL     1      -1.980   9.960  16.837  0.00  0.00    +0.000 A 
ENDROOT
BRANCH   1  18
ATOM     17  C   UNL     1      -3.771  10.059  13.660  0.00  0.00    +0.000 C 
ATOM     18  O   UNL     1      -3.006   9.426  14.683  0.00  0.00    +0.000 OA
ENDBRANCH   1  18
BRANCH  10  19
ATOM     19  O   UNL     1      -3.422  14.584  24.552  0.00  0.00    +0.000 OA
ATOM     20  H   UNL     1      -2.694  14.931  24.011  0.00  0.00    +0.000 HD
ENDBRANCH  10  19
BRANCH  13  21
ATOM     21  C   UNL     1      -0.005  11.252  21.060  0.00  0.00    +0.000 C 
ATOM     22  N   UNL     1       0.926  11.226  21.754  0.00  0.00    +0.000 NA
ENDBRANCH  13  21
TORSDOF 3
ENDMDL
