MODEL 1
REMARK VINA RESULT:      -7.5      0.000      0.000
REMARK  Name = 
REMARK  9 active torsions:
REMARK  status: ('A' for Active; 'I' for Inactive)
REMARK    1  A    between atoms: C_1  and  C_2
REMARK    2  A    between atoms: C_2  and  O_3
REMARK    3  A    between atoms: O_3  and  C_4
REMARK    4  A    between atoms: C_4  and  C_6
REMARK    5  A    between atoms: N_9  and  C_10
REMARK    6  A    between atoms: C_13  and  S_14
REMARK    7  A    between atoms: S_14  and  N_15
REMARK    8  A    between atoms: C_20  and  C_21
REMARK    9  A    between atoms: C_24  and  C_25
REMARK                            x       y       z     vdW  Elec       q    Type
REMARK                         _______ _______ _______ _____ _____    ______ ____
ROOT
ATOM      1  C   UNL     1       5.912   5.571  16.708  0.00  0.00    +0.000 A 
ATOM      2  N   UNL     1       6.192   6.874  16.382  0.00  0.00    +0.000 NA
ATOM      3  N   UNL     1       5.189   7.631  16.798  0.00  0.00    +0.000 NA
ATOM      4  N   UNL     1       4.337   6.861  17.517  0.00  0.00    +0.000 N 
ATOM      5  C   UNL     1       4.717   5.517  17.423  0.00  0.00    +0.000 A 
ENDROOT
BRANCH   5   6
ATOM      6  C   UNL     1       3.953   4.363  17.919  0.00  0.00    +0.000 A 
ATOM      7  C   UNL     1       2.783   3.935  17.271  0.00  0.00    +0.000 A 
ATOM      8  C   UNL     1       1.978   2.935  17.821  0.00  0.00    +0.000 A 
ATOM      9  C   UNL     1       2.377   2.271  18.981  0.00  0.00    +0.000 A 
ATOM     10  C   UNL     1       1.544   1.163  19.552  0.00  0.00    +0.000 C 
ATOM     11  C   UNL     1       3.587   2.625  19.583  0.00  0.00    +0.000 A 
ATOM     12  C   UNL     1       4.355   3.677  19.072  0.00  0.00    +0.000 A 
ENDBRANCH   5   6
BRANCH   4  13
ATOM     13  C   UNL     1       3.202   7.432  18.157  0.00  0.00    +0.000 A 
ATOM     14  C   UNL     1       2.820   6.962  19.425  0.00  0.00    +0.000 A 
ATOM     15  C   UNL     1       1.891   7.688  20.181  0.00  0.00    +0.000 A 
ATOM     16  C   UNL     1       1.339   8.864  19.658  0.00  0.00    +0.000 A 
ATOM     17  C   UNL     1       1.629   9.266  18.355  0.00  0.00    +0.000 A 
ATOM     18  C   UNL     1       2.542   8.532  17.599  0.00  0.00    +0.000 A 
BRANCH  16  19
ATOM     19  S   UNL     1       0.249   9.850  20.642  0.00  0.00    +0.000 S 
ATOM     20  O   UNL     1       1.028  10.748  21.463  0.00  0.00    +0.000 OA
ATOM     21  O   UNL     1      -0.849  10.303  19.823  0.00  0.00    +0.000 OA
BRANCH  19  22
ATOM     22  N   UNL     1      -0.398   8.713  21.697  0.00  0.00    +0.000 NA
ATOM     23  H   UNL     1      -0.128   8.938  22.655  0.00  0.00    +0.000 HD
ATOM     24  H   UNL     1      -1.409   8.658  21.563  0.00  0.00    +0.000 HD
ENDBRANCH  19  22
ENDBRANCH  16  19
ENDBRANCH   4  13
BRANCH   1  25
ATOM     25  C   UNL     1       6.741   4.455  16.274  0.00  0.00    +0.000 C 
ATOM     26  O   UNL     1       7.834   4.188  16.766  0.00  0.00    +0.000 OA
BRANCH  25  27
ATOM     27  O   UNL     1       6.202   3.770  15.221  0.00  0.00    +0.000 OA
BRANCH  27  29
ATOM     28  C   UNL     1       5.807   3.519  12.833  0.00  0.00    +0.000 C 
ATOM     29  C   UNL     1       6.578   4.250  13.921  0.00  0.00    +0.000 C 
ENDBRANCH  27  29
ENDBRANCH  25  27
ENDBRANCH   1  25
TORSDOF 7
ENDMDL
MODEL 2
REMARK VINA RESULT:      -7.4      1.830      2.395
REMARK  Name = 
REMARK  9 active torsions:
REMARK  status: ('A' for Active; 'I' for Inactive)
REMARK    1  A    between atoms: C_1  and  C_2
REMARK    2  A    between atoms: C_2  and  O_3
REMARK    3  A    between atoms: O_3  and  C_4
REMARK    4  A    between atoms: C_4  and  C_6
REMARK    5  A    between atoms: N_9  and  C_10
REMARK    6  A    between atoms: C_13  and  S_14
REMARK    7  A    between atoms: S_14  and  N_15
REMARK    8  A    between atoms: C_20  and  C_21
REMARK    9  A    between atoms: C_24  and  C_25
REMARK                            x       y       z     vdW  Elec       q    Type
REMARK                         _______ _______ _______ _____ _____    ______ ____
ROOT
ATOM      1  C   UNL     1       4.567   5.815  17.034  0.00  0.00    +0.000 A 
ATOM      2  N   UNL     1       4.719   6.988  16.339  0.00  0.00    +0.000 NA
ATOM      3  N   UNL     1       3.805   7.846  16.767  0.00  0.00    +0.000 NA
ATOM      4  N   UNL     1       3.165   7.299  17.828  0.00  0.00    +0.000 N 
ATOM      5  C   UNL     1       3.565   5.967  17.990  0.00  0.00    +0.000 A 
ENDROOT
BRANCH   5   6
ATOM      6  C   UNL     1       2.974   4.990  18.917  0.00  0.00    +0.000 A 
ATOM      7  C   UNL     1       1.732   4.395  18.649  0.00  0.00    +0.000 A 
ATOM      8  C   UNL     1       1.103   3.582  19.594  0.00  0.00    +0.000 A 
ATOM      9  C   UNL     1       1.748   3.265  20.789  0.00  0.00    +0.000 A 
ATOM     10  C   UNL     1       1.102   2.353  21.789  0.00  0.00    +0.000 C 
ATOM     11  C   UNL     1       3.026   3.777  21.026  0.00  0.00    +0.000 A 
ATOM     12  C   UNL     1       3.623   4.650  20.111  0.00  0.00    +0.000 A 
ENDBRANCH   5   6
BRANCH   4  13
ATOM     13  C   UNL     1       2.181   8.035  18.545  0.00  0.00    +0.000 A 
ATOM     14  C   UNL     1       1.992   7.778  19.913  0.00  0.00    +0.000 A 
ATOM     15  C   UNL     1       1.237   8.669  20.687  0.00  0.00    +0.000 A 
ATOM     16  C   UNL     1       0.665   9.796  20.085  0.00  0.00    +0.000 A 
ATOM     17  C   UNL     1       0.754   9.988  18.707  0.00  0.00    +0.000 A 
ATOM     18  C   UNL     1       1.493   9.091  17.937  0.00  0.00    +0.000 A 
BRANCH  16  19
ATOM     19  S   UNL     1      -0.198  10.989  21.067  0.00  0.00    +0.000 S 
ATOM     20  O   UNL     1      -1.225  11.614  20.267  0.00  0.00    +0.000 OA
ATOM     21  O   UNL     1      -0.463  10.427  22.369  0.00  0.00    +0.000 OA
BRANCH  19  22
ATOM     22  N   UNL     1       0.978  12.167  21.302  0.00  0.00    +0.000 NA
ATOM     23  H   UNL     1       1.892  11.798  21.037  0.00  0.00    +0.000 HD
ATOM     24  H   UNL     1       0.720  13.014  20.794  0.00  0.00    +0.000 HD
ENDBRANCH  19  22
ENDBRANCH  16  19
ENDBRANCH   4  13
BRANCH   1  25
ATOM     25  C   UNL     1       5.320   4.609  16.716  0.00  0.00    +0.000 C 
ATOM     26  O   UNL     1       5.128   3.934  15.710  0.00  0.00    +0.000 OA
BRANCH  25  27
ATOM     27  O   UNL     1       6.224   4.276  17.687  0.00  0.00    +0.000 OA
BRANCH  27  29
ATOM     28  C   UNL     1       7.645   5.744  19.009  0.00  0.00    +0.000 C 
ATOM     29  C   UNL     1       7.442   5.038  17.678  0.00  0.00    +0.000 C 
ENDBRANCH  27  29
ENDBRANCH  25  27
ENDBRANCH   1  25
TORSDOF 7
ENDMDL
MODEL 3
REMARK VINA RESULT:      -7.2      1.432      1.562
REMARK  Name = 
REMARK  9 active torsions:
REMARK  status: ('A' for Active; 'I' for Inactive)
REMARK    1  A    between atoms: C_1  and  C_2
REMARK    2  A    between atoms: C_2  and  O_3
REMARK    3  A    between atoms: O_3  and  C_4
REMARK    4  A    between atoms: C_4  and  C_6
REMARK    5  A    between atoms: N_9  and  C_10
REMARK    6  A    between atoms: C_13  and  S_14
REMARK    7  A    between atoms: S_14  and  N_15
REMARK    8  A    between atoms: C_20  and  C_21
REMARK    9  A    between atoms: C_24  and  C_25
REMARK                            x       y       z     vdW  Elec       q    Type
REMARK                         _______ _______ _______ _____ _____    ______ ____
ROOT
ATOM      1  C   UNL     1       4.770   5.801  16.772  0.00  0.00    +0.000 A 
ATOM      2  N   UNL     1       4.936   6.968  16.071  0.00  0.00    +0.000 NA
ATOM      3  N   UNL     1       4.037   7.842  16.499  0.00  0.00    +0.000 NA
ATOM      4  N   UNL     1       3.392   7.309  17.564  0.00  0.00    +0.000 N 
ATOM      5  C   UNL     1       3.772   5.971  17.731  0.00  0.00    +0.000 A 
ENDROOT
BRANCH   5   6
ATOM      6  C   UNL     1       3.170   5.008  18.664  0.00  0.00    +0.000 A 
ATOM      7  C   UNL     1       1.899   4.463  18.424  0.00  0.00    +0.000 A 
ATOM      8  C   UNL     1       1.266   3.663  19.377  0.00  0.00    +0.000 A 
ATOM      9  C   UNL     1       1.930   3.309  20.551  0.00  0.00    +0.000 A 
ATOM     10  C   UNL     1       1.277   2.412  21.559  0.00  0.00    +0.000 C 
ATOM     11  C   UNL     1       3.233   3.770  20.758  0.00  0.00    +0.000 A 
ATOM     12  C   UNL     1       3.838   4.630  19.836  0.00  0.00    +0.000 A 
ENDBRANCH   5   6
BRANCH   4  13
ATOM     13  C   UNL     1       2.421   8.062  18.281  0.00  0.00    +0.000 A 
ATOM     14  C   UNL     1       2.116   7.707  19.606  0.00  0.00    +0.000 A 
ATOM     15  C   UNL     1       1.381   8.590  20.407  0.00  0.00    +0.000 A 
ATOM     16  C   UNL     1       0.944   9.809  19.875  0.00  0.00    +0.000 A 
ATOM     17  C   UNL     1       1.146  10.109  18.528  0.00  0.00    +0.000 A 
ATOM     18  C   UNL     1       1.864   9.220  17.729  0.00  0.00    +0.000 A 
BRANCH  16  19
ATOM     19  S   UNL     1       0.111  10.982  20.904  0.00  0.00    +0.000 S 
ATOM     20  O   UNL     1      -0.696  10.279  21.874  0.00  0.00    +0.000 OA
ATOM     21  O   UNL     1       1.035  12.027  21.275  0.00  0.00    +0.000 OA
BRANCH  19  22
ATOM     22  N   UNL     1      -0.974  11.684  19.829  0.00  0.00    +0.000 NA
ATOM     23  H   UNL     1      -0.463  12.205  19.116  0.00  0.00    +0.000 HD
ATOM     24  H   UNL     1      -1.588  10.964  19.444  0.00  0.00    +0.000 HD
ENDBRANCH  19  22
ENDBRANCH  16  19
ENDBRANCH   4  13
BRANCH   1  25
ATOM     25  C   UNL     1       5.504   4.582  16.458  0.00  0.00    +0.000 C 
ATOM     26  O   UNL     1       6.331   4.074  17.209  0.00  0.00    +0.000 OA
BRANCH  25  27
ATOM     27  O   UNL     1       5.217   4.095  15.213  0.00  0.00    +0.000 OA
BRANCH  27  29
ATOM     28  C   UNL     1       5.860   3.666  12.906  0.00  0.00    +0.000 C 
ATOM     29  C   UNL     1       6.324   4.067  14.297  0.00  0.00    +0.000 C 
ENDBRANCH  27  29
ENDBRANCH  25  27
ENDBRANCH   1  25
TORSDOF 7
ENDMDL
MODEL 4
REMARK VINA RESULT:      -7.2      2.786      4.778
REMARK  Name = 
REMARK  9 active torsions:
REMARK  status: ('A' for Active; 'I' for Inactive)
REMARK    1  A    between atoms: C_1  and  C_2
REMARK    2  A    between atoms: C_2  and  O_3
REMARK    3  A    between atoms: O_3  and  C_4
REMARK    4  A    between atoms: C_4  and  C_6
REMARK    5  A    between atoms: N_9  and  C_10
REMARK    6  A    between atoms: C_13  and  S_14
REMARK    7  A    between atoms: S_14  and  N_15
REMARK    8  A    between atoms: C_20  and  C_21
REMARK    9  A    between atoms: C_24  and  C_25
REMARK                            x       y       z     vdW  Elec       q    Type
REMARK                         _______ _______ _______ _____ _____    ______ ____
ROOT
ATOM      1  C   UNL     1       3.610   2.908  20.079  0.00  0.00    +0.000 A 
ATOM      2  N   UNL     1       2.756   3.087  21.137  0.00  0.00    +0.000 NA
ATOM      3  N   UNL     1       2.390   4.360  21.165  0.00  0.00    +0.000 NA
ATOM      4  N   UNL     1       2.874   4.971  20.057  0.00  0.00    +0.000 N 
ATOM      5  C   UNL     1       3.728   4.101  19.368  0.00  0.00    +0.000 A 
ENDROOT
BRANCH   5   6
ATOM      6  C   UNL     1       4.577   4.448  18.219  0.00  0.00    +0.000 A 
ATOM      7  C   UNL     1       4.228   4.058  16.916  0.00  0.00    +0.000 A 
ATOM      8  C   UNL     1       5.102   4.258  15.845  0.00  0.00    +0.000 A 
ATOM      9  C   UNL     1       6.303   4.942  16.036  0.00  0.00    +0.000 A 
ATOM     10  C   UNL     1       7.225   5.204  14.884  0.00  0.00    +0.000 C 
ATOM     11  C   UNL     1       6.617   5.416  17.312  0.00  0.00    +0.000 A 
ATOM     12  C   UNL     1       5.775   5.151  18.397  0.00  0.00    +0.000 A 
ENDBRANCH   5   6
BRANCH   4  13
ATOM     13  C   UNL     1       2.566   6.332  19.782  0.00  0.00    +0.000 A 
ATOM     14  C   UNL     1       2.674   6.809  18.464  0.00  0.00    +0.000 A 
ATOM     15  C   UNL     1       2.118   8.049  18.129  0.00  0.00    +0.000 A 
ATOM     16  C   UNL     1       1.475   8.809  19.113  0.00  0.00    +0.000 A 
ATOM     17  C   UNL     1       1.470   8.391  20.444  0.00  0.00    +0.000 A 
ATOM     18  C   UNL     1       2.039   7.163  20.777  0.00  0.00    +0.000 A 
BRANCH  16  19
ATOM     19  S   UNL     1       0.671  10.326  18.684  0.00  0.00    +0.000 S 
ATOM     20  O   UNL     1      -0.406  10.051  17.763  0.00  0.00    +0.000 OA
ATOM     21  O   UNL     1       0.490  11.119  19.876  0.00  0.00    +0.000 OA
BRANCH  19  22
ATOM     22  N   UNL     1       1.855  11.108  17.783  0.00  0.00    +0.000 NA
ATOM     23  H   UNL     1       1.910  10.691  16.853  0.00  0.00    +0.000 HD
ATOM     24  H   UNL     1       1.666  12.111  17.767  0.00  0.00    +0.000 HD
ENDBRANCH  19  22
ENDBRANCH  16  19
ENDBRANCH   4  13
BRANCH   1  25
ATOM     25  C   UNL     1       4.313   1.655  19.838  0.00  0.00    +0.000 C 
ATOM     26  O   UNL     1       3.992   0.852  18.967  0.00  0.00    +0.000 OA
BRANCH  25  27
ATOM     27  O   UNL     1       5.334   1.439  20.722  0.00  0.00    +0.000 OA
BRANCH  27  29
ATOM     28  C   UNL     1       6.355  -0.110  22.296  0.00  0.00    +0.000 C 
ATOM     29  C   UNL     1       5.664   0.060  20.952  0.00  0.00    +0.000 C 
ENDBRANCH  27  29
ENDBRANCH  25  27
ENDBRANCH   1  25
TORSDOF 7
ENDMDL
MODEL 5
REMARK VINA RESULT:      -7.0      0.725      1.270
REMARK  Name = 
REMARK  9 active torsions:
REMARK  status: ('A' for Active; 'I' for Inactive)
REMARK    1  A    between atoms: C_1  and  C_2
REMARK    2  A    between atoms: C_2  and  O_3
REMARK    3  A    between atoms: O_3  and  C_4
REMARK    4  A    between atoms: C_4  and  C_6
REMARK    5  A    between atoms: N_9  and  C_10
REMARK    6  A    between atoms: C_13  and  S_14
REMARK    7  A    between atoms: S_14  and  N_15
REMARK    8  A    between atoms: C_20  and  C_21
REMARK    9  A    between atoms: C_24  and  C_25
REMARK                            x       y       z     vdW  Elec       q    Type
REMARK                         _______ _______ _______ _____ _____    ______ ____
ROOT
ATOM      1  C   UNL     1       5.924   5.664  16.879  0.00  0.00    +0.000 A 
ATOM      2  N   UNL     1       6.186   6.962  16.522  0.00  0.00    +0.000 NA
ATOM      3  N   UNL     1       5.157   7.710  16.890  0.00  0.00    +0.000 NA
ATOM      4  N   UNL     1       4.303   6.943  17.610  0.00  0.00    +0.000 N 
ATOM      5  C   UNL     1       4.713   5.605  17.565  0.00  0.00    +0.000 A 
ENDROOT
BRANCH   5   6
ATOM      6  C   UNL     1       3.960   4.450  18.075  0.00  0.00    +0.000 A 
ATOM      7  C   UNL     1       4.365   3.777  19.239  0.00  0.00    +0.000 A 
ATOM      8  C   UNL     1       3.740   2.595  19.642  0.00  0.00    +0.000 A 
ATOM      9  C   UNL     1       2.631   2.112  18.947  0.00  0.00    +0.000 A 
ATOM     10  C   UNL     1       1.924   0.871  19.401  0.00  0.00    +0.000 C 
ATOM     11  C   UNL     1       2.162   2.826  17.841  0.00  0.00    +0.000 A 
ATOM     12  C   UNL     1       2.834   3.969  17.395  0.00  0.00    +0.000 A 
ENDBRANCH   5   6
BRANCH   4  13
ATOM     13  C   UNL     1       3.141   7.508  18.205  0.00  0.00    +0.000 A 
ATOM     14  C   UNL     1       2.741   7.072  19.479  0.00  0.00    +0.000 A 
ATOM     15  C   UNL     1       1.778   7.801  20.189  0.00  0.00    +0.000 A 
ATOM     16  C   UNL     1       1.211   8.944  19.614  0.00  0.00    +0.000 A 
ATOM     17  C   UNL     1       1.522   9.309  18.304  0.00  0.00    +0.000 A 
ATOM     18  C   UNL     1       2.469   8.572  17.595  0.00  0.00    +0.000 A 
BRANCH  16  19
ATOM     19  S   UNL     1       0.077   9.938  20.539  0.00  0.00    +0.000 S 
ATOM     20  O   UNL     1      -0.758  10.684  19.627  0.00  0.00    +0.000 OA
ATOM     21  O   UNL     1      -0.466   9.153  21.622  0.00  0.00    +0.000 OA
BRANCH  19  22
ATOM     22  N   UNL     1       1.098  11.067  21.251  0.00  0.00    +0.000 NA
ATOM     23  H   UNL     1       1.284  11.825  20.595  0.00  0.00    +0.000 HD
ATOM     24  H   UNL     1       0.695  11.384  22.134  0.00  0.00    +0.000 HD
ENDBRANCH  19  22
ENDBRANCH  16  19
ENDBRANCH   4  13
BRANCH   1  25
ATOM     25  C   UNL     1       6.787   4.553  16.498  0.00  0.00    +0.000 C 
ATOM     26  O   UNL     1       7.893   4.352  16.991  0.00  0.00    +0.000 OA
BRANCH  25  27
ATOM     27  O   UNL     1       6.260   3.792  15.492  0.00  0.00    +0.000 OA
BRANCH  27  29
ATOM     28  C   UNL     1       5.634   3.642  13.146  0.00  0.00    +0.000 C 
ATOM     29  C   UNL     1       6.614   4.204  14.162  0.00  0.00    +0.000 C 
ENDBRANCH  27  29
ENDBRANCH  25  27
ENDBRANCH   1  25
TORSDOF 7
ENDMDL
MODEL 6
REMARK VINA RESULT:      -7.0      3.092      4.974
REMARK  Name = 
REMARK  9 active torsions:
REMARK  status: ('A' for Active; 'I' for Inactive)
REMARK    1  A    between atoms: C_1  and  C_2
REMARK    2  A    between atoms: C_2  and  O_3
REMARK    3  A    between atoms: O_3  and  C_4
REMARK    4  A    between atoms: C_4  and  C_6
REMARK    5  A    between atoms: N_9  and  C_10
REMARK    6  A    between atoms: C_13  and  S_14
REMARK    7  A    between atoms: S_14  and  N_15
REMARK    8  A    between atoms: C_20  and  C_21
REMARK    9  A    between atoms: C_24  and  C_25
REMARK                            x       y       z     vdW  Elec       q    Type
REMARK                         _______ _______ _______ _____ _____    ______ ____
ROOT
ATOM      1  C   UNL     1       3.920   2.559  20.524  0.00  0.00    +0.000 A 
ATOM      2  N   UNL     1       3.005   2.703  21.535  0.00  0.00    +0.000 NA
ATOM      3  N   UNL     1       2.418   3.883  21.399  0.00  0.00    +0.000 NA
ATOM      4  N   UNL     1       2.833   4.438  20.235  0.00  0.00    +0.000 N 
ATOM      5  C   UNL     1       3.855   3.663  19.675  0.00  0.00    +0.000 A 
ENDROOT
BRANCH   5   6
ATOM      6  C   UNL     1       4.677   4.021  18.510  0.00  0.00    +0.000 A 
ATOM      7  C   UNL     1       5.785   4.873  18.638  0.00  0.00    +0.000 A 
ATOM      8  C   UNL     1       6.477   5.330  17.515  0.00  0.00    +0.000 A 
ATOM      9  C   UNL     1       6.139   4.866  16.244  0.00  0.00    +0.000 A 
ATOM     10  C   UNL     1       6.907   5.313  15.037  0.00  0.00    +0.000 C 
ATOM     11  C   UNL     1       5.096   3.944  16.114  0.00  0.00    +0.000 A 
ATOM     12  C   UNL     1       4.358   3.544  17.232  0.00  0.00    +0.000 A 
ENDBRANCH   5   6
BRANCH   4  13
ATOM     13  C   UNL     1       2.300   5.680  19.790  0.00  0.00    +0.000 A 
ATOM     14  C   UNL     1       1.791   6.588  20.734  0.00  0.00    +0.000 A 
ATOM     15  C   UNL     1       1.523   7.908  20.350  0.00  0.00    +0.000 A 
ATOM     16  C   UNL     1       1.750   8.304  19.027  0.00  0.00    +0.000 A 
ATOM     17  C   UNL     1       2.143   7.376  18.064  0.00  0.00    +0.000 A 
ATOM     18  C   UNL     1       2.393   6.058  18.446  0.00  0.00    +0.000 A 
BRANCH  16  19
ATOM     19  S   UNL     1       1.522   9.993  18.552  0.00  0.00    +0.000 S 
ATOM     20  O   UNL     1       1.279  10.792  19.730  0.00  0.00    +0.000 OA
ATOM     21  O   UNL     1       2.515  10.346  17.566  0.00  0.00    +0.000 OA
BRANCH  19  22
ATOM     22  N   UNL     1       0.056   9.933  17.731  0.00  0.00    +0.000 NA
ATOM     23  H   UNL     1      -0.628  10.522  18.206  0.00  0.00    +0.000 HD
ATOM     24  H   UNL     1       0.201  10.187  16.753  0.00  0.00    +0.000 HD
ENDBRANCH  19  22
ENDBRANCH  16  19
ENDBRANCH   4  13
BRANCH   1  25
ATOM     25  C   UNL     1       4.844   1.434  20.453  0.00  0.00    +0.000 C 
ATOM     26  O   UNL     1       4.896   0.657  19.504  0.00  0.00    +0.000 OA
BRANCH  25  27
ATOM     27  O   UNL     1       5.607   1.301  21.579  0.00  0.00    +0.000 OA
BRANCH  27  29
ATOM     28  C   UNL     1       6.981  -0.561  22.335  0.00  0.00    +0.000 C 
ATOM     29  C   UNL     1       5.575   0.000  22.190  0.00  0.00    +0.000 C 
ENDBRANCH  27  29
ENDBRANCH  25  27
ENDBRANCH   1  25
TORSDOF 7
ENDMDL
MODEL 7
REMARK VINA RESULT:      -7.0      2.205      4.144
REMARK  Name = 
REMARK  9 active torsions:
REMARK  status: ('A' for Active; 'I' for Inactive)
REMARK    1  A    between atoms: C_1  and  C_2
REMARK    2  A    between atoms: C_2  and  O_3
REMARK    3  A    between atoms: O_3  and  C_4
REMARK    4  A    between atoms: C_4  and  C_6
REMARK    5  A    between atoms: N_9  and  C_10
REMARK    6  A    between atoms: C_13  and  S_14
REMARK    7  A    between atoms: S_14  and  N_15
REMARK    8  A    between atoms: C_20  and  C_21
REMARK    9  A    between atoms: C_24  and  C_25
REMARK                            x       y       z     vdW  Elec       q    Type
REMARK                         _______ _______ _______ _____ _____    ______ ____
ROOT
ATOM      1  C   UNL     1       5.355   4.536  16.253  0.00  0.00    +0.000 A 
ATOM      2  N   UNL     1       4.155   3.871  16.274  0.00  0.00    +0.000 NA
ATOM      3  N   UNL     1       3.368   4.463  17.159  0.00  0.00    +0.000 NA
ATOM      4  N   UNL     1       3.984   5.586  17.600  0.00  0.00    +0.000 N 
ATOM      5  C   UNL     1       5.293   5.636  17.107  0.00  0.00    +0.000 A 
ENDROOT
BRANCH   5   6
ATOM      6  C   UNL     1       6.331   6.603  17.495  0.00  0.00    +0.000 A 
ATOM      7  C   UNL     1       7.352   6.250  18.391  0.00  0.00    +0.000 A 
ATOM      8  C   UNL     1       8.250   7.205  18.873  0.00  0.00    +0.000 A 
ATOM      9  C   UNL     1       8.209   8.514  18.393  0.00  0.00    +0.000 A 
ATOM     10  C   UNL     1       9.200   9.533  18.868  0.00  0.00    +0.000 C 
ATOM     11  C   UNL     1       7.255   8.853  17.430  0.00  0.00    +0.000 A 
ATOM     12  C   UNL     1       6.310   7.914  17.003  0.00  0.00    +0.000 A 
ENDBRANCH   5   6
BRANCH   4  13
ATOM     13  C   UNL     1       3.331   6.469  18.505  0.00  0.00    +0.000 A 
ATOM     14  C   UNL     1       2.924   7.737  18.055  0.00  0.00    +0.000 A 
ATOM     15  C   UNL     1       2.047   8.499  18.837  0.00  0.00    +0.000 A 
ATOM     16  C   UNL     1       1.598   7.998  20.064  0.00  0.00    +0.000 A 
ATOM     17  C   UNL     1       2.093   6.794  20.564  0.00  0.00    +0.000 A 
ATOM     18  C   UNL     1       2.979   6.045  19.791  0.00  0.00    +0.000 A 
BRANCH  16  19
ATOM     19  S   UNL     1       0.405   8.899  21.011  0.00  0.00    +0.000 S 
ATOM     20  O   UNL     1      -0.042  10.043  20.252  0.00  0.00    +0.000 OA
ATOM     21  O   UNL     1      -0.512   7.969  21.625  0.00  0.00    +0.000 OA
BRANCH  19  22
ATOM     22  N   UNL     1       1.343   9.518  22.261  0.00  0.00    +0.000 NA
ATOM     23  H   UNL     1       1.852   8.760  22.717  0.00  0.00    +0.000 HD
ATOM     24  H   UNL     1       1.952  10.254  21.899  0.00  0.00    +0.000 HD
ENDBRANCH  19  22
ENDBRANCH  16  19
ENDBRANCH   4  13
BRANCH   1  25
ATOM     25  C   UNL     1       6.503   4.065  15.490  0.00  0.00    +0.000 C 
ATOM     26  O   UNL     1       7.663   4.373  15.747  0.00  0.00    +0.000 OA
BRANCH  25  27
ATOM     27  O   UNL     1       6.149   3.288  14.422  0.00  0.00    +0.000 OA
BRANCH  27  29
ATOM     28  C   UNL     1       5.401   3.353  12.107  0.00  0.00    +0.000 C 
ATOM     29  C   UNL     1       6.397   3.872  13.132  0.00  0.00    +0.000 C 
ENDBRANCH  27  29
ENDBRANCH  25  27
ENDBRANCH   1  25
TORSDOF 7
ENDMDL
MODEL 8
REMARK VINA RESULT:      -7.0      1.750      2.187
REMARK  Name = 
REMARK  9 active torsions:
REMARK  status: ('A' for Active; 'I' for Inactive)
REMARK    1  A    between atoms: C_1  and  C_2
REMARK    2  A    between atoms: C_2  and  O_3
REMARK    3  A    between atoms: O_3  and  C_4
REMARK    4  A    between atoms: C_4  and  C_6
REMARK    5  A    between atoms: N_9  and  C_10
REMARK    6  A    between atoms: C_13  and  S_14
REMARK    7  A    between atoms: S_14  and  N_15
REMARK    8  A    between atoms: C_20  and  C_21
REMARK    9  A    between atoms: C_24  and  C_25
REMARK                            x       y       z     vdW  Elec       q    Type
REMARK                         _______ _______ _______ _____ _____    ______ ____
ROOT
ATOM      1  C   UNL     1       4.340   5.811  17.201  0.00  0.00    +0.000 A 
ATOM      2  N   UNL     1       4.553   6.953  16.471  0.00  0.00    +0.000 NA
ATOM      3  N   UNL     1       3.697   7.876  16.884  0.00  0.00    +0.000 NA
ATOM      4  N   UNL     1       3.037   7.398  17.966  0.00  0.00    +0.000 N 
ATOM      5  C   UNL     1       3.359   6.049  18.162  0.00  0.00    +0.000 A 
ENDROOT
BRANCH   5   6
ATOM      6  C   UNL     1       2.722   5.136  19.123  0.00  0.00    +0.000 A 
ATOM      7  C   UNL     1       3.171   5.050  20.450  0.00  0.00    +0.000 A 
ATOM      8  C   UNL     1       2.667   4.082  21.321  0.00  0.00    +0.000 A 
ATOM      9  C   UNL     1       1.630   3.243  20.914  0.00  0.00    +0.000 A 
ATOM     10  C   UNL     1       1.048   2.234  21.858  0.00  0.00    +0.000 C 
ATOM     11  C   UNL     1       1.111   3.383  19.624  0.00  0.00    +0.000 A 
ATOM     12  C   UNL     1       1.667   4.303  18.730  0.00  0.00    +0.000 A 
ENDBRANCH   5   6
BRANCH   4  13
ATOM     13  C   UNL     1       2.106   8.211  18.670  0.00  0.00    +0.000 A 
ATOM     14  C   UNL     1       1.855   7.950  20.028  0.00  0.00    +0.000 A 
ATOM     15  C   UNL     1       1.166   8.895  20.798  0.00  0.00    +0.000 A 
ATOM     16  C   UNL     1       0.718  10.081  20.203  0.00  0.00    +0.000 A 
ATOM     17  C   UNL     1       0.863  10.286  18.832  0.00  0.00    +0.000 A 
ATOM     18  C   UNL     1       1.536   9.336  18.065  0.00  0.00    +0.000 A 
BRANCH  16  19
ATOM     19  S   UNL     1      -0.057  11.332  21.185  0.00  0.00    +0.000 S 
ATOM     20  O   UNL     1      -1.213  11.840  20.485  0.00  0.00    +0.000 OA
ATOM     21  O   UNL     1      -0.112  10.891  22.557  0.00  0.00    +0.000 OA
BRANCH  19  22
ATOM     22  N   UNL     1       1.082  12.568  21.141  0.00  0.00    +0.000 NA
ATOM     23  H   UNL     1       0.863  13.211  20.380  0.00  0.00    +0.000 HD
ATOM     24  H   UNL     1       1.130  13.022  22.054  0.00  0.00    +0.000 HD
ENDBRANCH  19  22
ENDBRANCH  16  19
ENDBRANCH   4  13
BRANCH   1  25
ATOM     25  C   UNL     1       5.017   4.554  16.912  0.00  0.00    +0.000 C 
ATOM     26  O   UNL     1       5.603   3.887  17.759  0.00  0.00    +0.000 OA
BRANCH  25  27
ATOM     27  O   UNL     1       4.979   4.223  15.586  0.00  0.00    +0.000 OA
BRANCH  27  29
ATOM     28  C   UNL     1       6.105   3.804  13.470  0.00  0.00    +0.000 C 
ATOM     29  C   UNL     1       6.238   4.309  14.898  0.00  0.00    +0.000 C 
ENDBRANCH  27  29
ENDBRANCH  25  27
ENDBRANCH   1  25
TORSDOF 7
ENDMDL
MODEL 9
REMARK VINA RESULT:      -6.9      0.916      1.906
REMARK  Name = 
REMARK  9 active torsions:
REMARK  status: ('A' for Active; 'I' for Inactive)
REMARK    1  A    between atoms: C_1  and  C_2
REMARK    2  A    between atoms: C_2  and  O_3
REMARK    3  A    between atoms: O_3  and  C_4
REMARK    4  A    between atoms: C_4  and  C_6
REMARK    5  A    between atoms: N_9  and  C_10
REMARK    6  A    between atoms: C_13  and  S_14
REMARK    7  A    between atoms: S_14  and  N_15
REMARK    8  A    between atoms: C_20  and  C_21
REMARK    9  A    between atoms: C_24  and  C_25
REMARK                            x       y       z     vdW  Elec       q    Type
REMARK                         _______ _______ _______ _____ _____    ______ ____
ROOT
ATOM      1  C   UNL     1       5.378   5.738  16.509  0.00  0.00    +0.000 A 
ATOM      2  N   UNL     1       5.577   7.009  16.034  0.00  0.00    +0.000 NA
ATOM      3  N   UNL     1       4.613   7.785  16.506  0.00  0.00    +0.000 NA
ATOM      4  N   UNL     1       3.882   7.071  17.395  0.00  0.00    +0.000 N 
ATOM      5  C   UNL     1       4.285   5.730  17.375  0.00  0.00    +0.000 A 
ENDROOT
BRANCH   5   6
ATOM      6  C   UNL     1       3.623   4.614  18.066  0.00  0.00    +0.000 A 
ATOM      7  C   UNL     1       4.201   4.017  19.197  0.00  0.00    +0.000 A 
ATOM      8  C   UNL     1       3.650   2.867  19.767  0.00  0.00    +0.000 A 
ATOM      9  C   UNL     1       2.452   2.346  19.279  0.00  0.00    +0.000 A 
ATOM     10  C   UNL     1       1.828   1.140  19.914  0.00  0.00    +0.000 C 
ATOM     11  C   UNL     1       1.819   2.988  18.211  0.00  0.00    +0.000 A 
ATOM     12  C   UNL     1       2.410   4.096  17.596  0.00  0.00    +0.000 A 
ENDBRANCH   5   6
BRANCH   4  13
ATOM     13  C   UNL     1       2.822   7.679  18.123  0.00  0.00    +0.000 A 
ATOM     14  C   UNL     1       2.530   7.225  19.421  0.00  0.00    +0.000 A 
ATOM     15  C   UNL     1       1.689   7.983  20.246  0.00  0.00    +0.000 A 
ATOM     16  C   UNL     1       1.134   9.174  19.764  0.00  0.00    +0.000 A 
ATOM     17  C   UNL     1       1.329   9.563  18.439  0.00  0.00    +0.000 A 
ATOM     18  C   UNL     1       2.154   8.798  17.615  0.00  0.00    +0.000 A 
BRANCH  16  19
ATOM     19  S   UNL     1       0.160  10.198  20.828  0.00  0.00    +0.000 S 
ATOM     20  O   UNL     1       1.031  11.079  21.571  0.00  0.00    +0.000 OA
ATOM     21  O   UNL     1      -0.991  10.676  20.102  0.00  0.00    +0.000 OA
BRANCH  19  22
ATOM     22  N   UNL     1      -0.425   9.086  21.945  0.00  0.00    +0.000 NA
ATOM     23  H   UNL     1      -1.296   9.432  22.351  0.00  0.00    +0.000 HD
ATOM     24  H   UNL     1      -0.521   8.172  21.500  0.00  0.00    +0.000 HD
ENDBRANCH  19  22
ENDBRANCH  16  19
ENDBRANCH   4  13
BRANCH   1  25
ATOM     25  C   UNL     1       6.176   4.600  16.074  0.00  0.00    +0.000 C 
ATOM     26  O   UNL     1       5.716   3.643  15.459  0.00  0.00    +0.000 OA
BRANCH  25  27
ATOM     27  O   UNL     1       7.482   4.684  16.472  0.00  0.00    +0.000 OA
BRANCH  27  29
ATOM     28  C   UNL     1       7.810   5.812  18.603  0.00  0.00    +0.000 C 
ATOM     29  C   UNL     1       7.708   4.480  17.876  0.00  0.00    +0.000 C 
ENDBRANCH  27  29
ENDBRANCH  25  27
ENDBRANCH   1  25
TORSDOF 7
ENDMDL
