MODEL 1
REMARK VINA RESULT:      -8.9      0.000      0.000
REMARK  Name = 
REMARK  10 active torsions:
REMARK  status: ('A' for Active; 'I' for Inactive)
REMARK    1  A    between atoms: C_1  and  O_2
REMARK    2  A    between atoms: O_2  and  C_3
REMARK    3  A    between atoms: C_6  and  N_7
REMARK    4  A    between atoms: N_7  and  C_8
REMARK    5  A    between atoms: C_15  and  N_16
REMARK    6  A    between atoms: N_16  and  C_17
REMARK    7  A    between atoms: C_17  and  N_19
REMARK    8  A    between atoms: N_19  and  C_20
REMARK    9  A    between atoms: C_30  and  O_31
REMARK   10  A    between atoms: O_31  and  C_32
REMARK                            x       y       z     vdW  Elec       q    Type
REMARK                         _______ _______ _______ _____ _____    ______ ____
ROOT
ATOM      1  C   UNL     1       0.037  10.847  20.297  0.00  0.00    +0.000 A 
ATOM      2  N   UNL     1       0.715  11.977  20.379  0.00  0.00    +0.000 NA
ATOM      3  C   UNL     1       1.546  12.121  19.353  0.00  0.00    +0.000 A 
ATOM      4  N   UNL     1       1.754  11.212  18.390  0.00  0.00    +0.000 NA
ATOM      5  C   UNL     1       1.426   9.962  18.691  0.00  0.00    +0.000 A 
ATOM      6  C   UNL     1       1.990   9.007  17.868  0.00  0.00    +0.000 A 
ATOM      7  C   UNL     1       2.369   7.743  18.305  0.00  0.00    +0.000 A 
ATOM      8  C   UNL     1       2.284   7.372  19.647  0.00  0.00    +0.000 A 
ATOM      9  C   UNL     1       1.460   8.270  20.419  0.00  0.00    +0.000 A 
ATOM     10  C   UNL     1       0.801   9.610  19.859  0.00  0.00    +0.000 A 
ENDROOT
BRANCH   1  11
ATOM     11  N   UNL     1      -1.398  11.128  19.841  0.00  0.00    +0.000 N 
ATOM     12  H   UNL     1      -1.262  12.137  19.673  0.00  0.00    +0.000 HD
BRANCH  11  16
ATOM     13  C   UNL     1      -3.518  10.593  15.908  0.00  0.00    +0.000 A 
ATOM     14  C   UNL     1      -2.318   9.927  16.196  0.00  0.00    +0.000 A 
ATOM     15  C   UNL     1      -1.644  10.048  17.466  0.00  0.00    +0.000 A 
ATOM     16  C   UNL     1      -2.103  10.869  18.502  0.00  0.00    +0.000 A 
ATOM     17  C   UNL     1      -3.332  11.527  18.200  0.00  0.00    +0.000 A 
ATOM     18  C   UNL     1      -4.040  11.411  16.930  0.00  0.00    +0.000 A 
BRANCH  13  20
ATOM     19  C   UNL     1      -3.530   9.919  13.590  0.00  0.00    +0.000 C 
ATOM     20  O   UNL     1      -4.150  10.539  14.700  0.00  0.00    +0.000 OA
ENDBRANCH  13  20
BRANCH  18  21
ATOM     21  O   UNL     1      -5.205  12.149  16.858  0.00  0.00    +0.000 OA
ATOM     22  C   UNL     1      -6.319  11.854  17.709  0.00  0.00    +0.000 C 
ENDBRANCH  18  21
ENDBRANCH  11  16
ENDBRANCH   1  11
BRANCH   8  23
ATOM     23  N   UNL     1       3.073   6.172  19.875  0.00  0.00    +0.000 N 
ATOM     24  H   UNL     1       3.977   6.401  20.280  0.00  0.00    +0.000 HD
BRANCH  23  25
ATOM     25  C   UNL     1       2.966   4.810  20.053  0.00  0.00    +0.000 C 
ATOM     26  S   UNL     1       1.856   4.023  21.010  0.00  0.00    +0.000 S 
BRANCH  25  27
ATOM     27  N   UNL     1       4.012   4.038  19.486  0.00  0.00    +0.000 N 
ATOM     28  H   UNL     1       3.933   3.039  19.669  0.00  0.00    +0.000 HD
BRANCH  27  29
ATOM     29  C   UNL     1       5.054   4.366  18.549  0.00  0.00    +0.000 A 
ATOM     30  C   UNL     1       6.232   4.998  18.933  0.00  0.00    +0.000 A 
ATOM     31  C   UNL     1       7.227   5.353  18.009  0.00  0.00    +0.000 A 
ATOM     32  C   UNL     1       7.048   5.124  16.652  0.00  0.00    +0.000 A 
ATOM     33  C   UNL     1       5.874   4.515  16.231  0.00  0.00    +0.000 A 
ATOM     34 CL   UNL     1       5.640   4.276  14.535  0.00  0.00    +0.000 Cl
ATOM     35  C   UNL     1       4.884   4.126  17.165  0.00  0.00    +0.000 A 
ENDBRANCH  27  29
ENDBRANCH  25  27
ENDBRANCH  23  25
ENDBRANCH   8  23
TORSDOF 8
ENDMDL
MODEL 2
REMARK VINA RESULT:      -8.6      0.996      1.295
REMARK  Name = 
REMARK  10 active torsions:
REMARK  status: ('A' for Active; 'I' for Inactive)
REMARK    1  A    between atoms: C_1  and  O_2
REMARK    2  A    between atoms: O_2  and  C_3
REMARK    3  A    between atoms: C_6  and  N_7
REMARK    4  A    between atoms: N_7  and  C_8
REMARK    5  A    between atoms: C_15  and  N_16
REMARK    6  A    between atoms: N_16  and  C_17
REMARK    7  A    between atoms: C_17  and  N_19
REMARK    8  A    between atoms: N_19  and  C_20
REMARK    9  A    between atoms: C_30  and  O_31
REMARK   10  A    between atoms: O_31  and  C_32
REMARK                            x       y       z     vdW  Elec       q    Type
REMARK                         _______ _______ _______ _____ _____    ______ ____
ROOT
ATOM      1  C   UNL     1       0.029  10.748  20.427  0.00  0.00    +0.000 A 
ATOM      2  N   UNL     1       0.717  11.874  20.475  0.00  0.00    +0.000 NA
ATOM      3  C   UNL     1       1.545  11.982  19.442  0.00  0.00    +0.000 A 
ATOM      4  N   UNL     1       1.743  11.045  18.504  0.00  0.00    +0.000 NA
ATOM      5  C   UNL     1       1.405   9.807  18.841  0.00  0.00    +0.000 A 
ATOM      6  C   UNL     1       1.957   8.825  18.043  0.00  0.00    +0.000 A 
ATOM      7  C   UNL     1       2.326   7.569  18.513  0.00  0.00    +0.000 A 
ATOM      8  C   UNL     1       2.243   7.237  19.866  0.00  0.00    +0.000 A 
ATOM      9  C   UNL     1       1.430   8.163  20.615  0.00  0.00    +0.000 A 
ATOM     10  C   UNL     1       0.780   9.493  20.020  0.00  0.00    +0.000 A 
ENDROOT
BRANCH   1  11
ATOM     11  N   UNL     1      -1.405  11.029  19.967  0.00  0.00    +0.000 N 
ATOM     12  H   UNL     1      -1.288  12.049  19.862  0.00  0.00    +0.000 HD
BRANCH  11  16
ATOM     13  C   UNL     1      -3.457  10.695  15.977  0.00  0.00    +0.000 A 
ATOM     14  C   UNL     1      -2.262  10.015  16.251  0.00  0.00    +0.000 A 
ATOM     15  C   UNL     1      -1.610  10.071  17.537  0.00  0.00    +0.000 A 
ATOM     16  C   UNL     1      -2.087  10.839  18.605  0.00  0.00    +0.000 A 
ATOM     17  C   UNL     1      -3.311  11.511  18.316  0.00  0.00    +0.000 A 
ATOM     18  C   UNL     1      -3.998  11.459  17.030  0.00  0.00    +0.000 A 
BRANCH  13  20
ATOM     19  C   UNL     1      -3.594   9.880  13.708  0.00  0.00    +0.000 C 
ATOM     20  O   UNL     1      -4.068  10.702  14.757  0.00  0.00    +0.000 OA
ENDBRANCH  13  20
BRANCH  18  21
ATOM     21  O   UNL     1      -5.162  12.200  16.975  0.00  0.00    +0.000 OA
ATOM     22  C   UNL     1      -5.899  12.504  18.166  0.00  0.00    +0.000 C 
ENDBRANCH  18  21
ENDBRANCH  11  16
ENDBRANCH   1  11
BRANCH   8  23
ATOM     23  N   UNL     1       3.022   6.037  20.124  0.00  0.00    +0.000 N 
ATOM     24  H   UNL     1       3.812   6.238  20.731  0.00  0.00    +0.000 HD
BRANCH  23  25
ATOM     25  C   UNL     1       2.943   4.661  20.131  0.00  0.00    +0.000 C 
ATOM     26  S   UNL     1       2.177   3.721  21.269  0.00  0.00    +0.000 S 
BRANCH  25  27
ATOM     27  N   UNL     1       3.733   4.002  19.154  0.00  0.00    +0.000 N 
ATOM     28  H   UNL     1       3.400   3.068  18.917  0.00  0.00    +0.000 HD
BRANCH  27  29
ATOM     29  C   UNL     1       4.795   4.463  18.300  0.00  0.00    +0.000 A 
ATOM     30  C   UNL     1       4.949   4.017  16.992  0.00  0.00    +0.000 A 
ATOM     31  C   UNL     1       6.012   4.440  16.177  0.00  0.00    +0.000 A 
ATOM     32  C   UNL     1       6.987   5.294  16.670  0.00  0.00    +0.000 A 
ATOM     33  C   UNL     1       6.876   5.742  17.980  0.00  0.00    +0.000 A 
ATOM     34 CL   UNL     1       8.121   6.769  18.600  0.00  0.00    +0.000 Cl
ATOM     35  C   UNL     1       5.788   5.344  18.792  0.00  0.00    +0.000 A 
ENDBRANCH  27  29
ENDBRANCH  25  27
ENDBRANCH  23  25
ENDBRANCH   8  23
TORSDOF 8
ENDMDL
MODEL 3
REMARK VINA RESULT:      -8.3      6.489      9.467
REMARK  Name = 
REMARK  10 active torsions:
REMARK  status: ('A' for Active; 'I' for Inactive)
REMARK    1  A    between atoms: C_1  and  O_2
REMARK    2  A    between atoms: O_2  and  C_3
REMARK    3  A    between atoms: C_6  and  N_7
REMARK    4  A    between atoms: N_7  and  C_8
REMARK    5  A    between atoms: C_15  and  N_16
REMARK    6  A    between atoms: N_16  and  C_17
REMARK    7  A    between atoms: C_17  and  N_19
REMARK    8  A    between atoms: N_19  and  C_20
REMARK    9  A    between atoms: C_30  and  O_31
REMARK   10  A    between atoms: O_31  and  C_32
REMARK                            x       y       z     vdW  Elec       q    Type
REMARK                         _______ _______ _______ _____ _____    ______ ____
ROOT
ATOM      1  C   UNL     1       5.845   5.996  15.978  0.00  0.00    +0.000 A 
ATOM      2  N   UNL     1       6.433   5.126  15.177  0.00  0.00    +0.000 NA
ATOM      3  C   UNL     1       7.276   4.344  15.842  0.00  0.00    +0.000 A 
ATOM      4  N   UNL     1       7.578   4.459  17.142  0.00  0.00    +0.000 NA
ATOM      5  C   UNL     1       7.339   5.643  17.691  0.00  0.00    +0.000 A 
ATOM      6  C   UNL     1       7.995   5.864  18.887  0.00  0.00    +0.000 A 
ATOM      7  C   UNL     1       8.459   7.111  19.290  0.00  0.00    +0.000 A 
ATOM      8  C   UNL     1       8.368   8.232  18.464  0.00  0.00    +0.000 A 
ATOM      9  C   UNL     1       7.458   8.036  17.362  0.00  0.00    +0.000 A 
ATOM     10  C   UNL     1       6.713   6.666  17.029  0.00  0.00    +0.000 A 
ENDROOT
BRANCH   1  11
ATOM     11  N   UNL     1       4.405   5.558  16.263  0.00  0.00    +0.000 N 
ATOM     12  H   UNL     1       4.365   4.833  15.529  0.00  0.00    +0.000 HD
BRANCH  11  16
ATOM     13  C   UNL     1       2.483   3.025  19.446  0.00  0.00    +0.000 A 
ATOM     14  C   UNL     1       3.432   2.499  18.558  0.00  0.00    +0.000 A 
ATOM     15  C   UNL     1       4.095   3.302  17.559  0.00  0.00    +0.000 A 
ATOM     16  C   UNL     1       3.819   4.659  17.361  0.00  0.00    +0.000 A 
ATOM     17  C   UNL     1       2.864   5.183  18.282  0.00  0.00    +0.000 A 
ATOM     18  C   UNL     1       2.191   4.396  19.309  0.00  0.00    +0.000 A 
BRANCH  13  20
ATOM     19  C   UNL     1       2.084   2.408  21.745  0.00  0.00    +0.000 C 
ATOM     20  O   UNL     1       1.803   2.280  20.365  0.00  0.00    +0.000 OA
ENDBRANCH  13  20
BRANCH  18  21
ATOM     21  O   UNL     1       1.294   5.112  20.078  0.00  0.00    +0.000 OA
ATOM     22  C   UNL     1       1.696   6.308  20.759  0.00  0.00    +0.000 C 
ENDBRANCH  18  21
ENDBRANCH  11  16
ENDBRANCH   1  11
BRANCH   8  23
ATOM     23  N   UNL     1       9.240   9.281  18.965  0.00  0.00    +0.000 N 
ATOM     24  H   UNL     1      10.211   9.092  18.731  0.00  0.00    +0.000 HD
BRANCH  23  25
ATOM     25  C   UNL     1       9.248  10.601  19.363  0.00  0.00    +0.000 C 
ATOM     26  S   UNL     1       9.282  11.160  20.930  0.00  0.00    +0.000 S 
BRANCH  25  27
ATOM     27  N   UNL     1       9.044  11.550  18.328  0.00  0.00    +0.000 N 
ATOM     28  H   UNL     1       8.108  11.526  17.926  0.00  0.00    +0.000 HD
BRANCH  27  29
ATOM     29  C   UNL     1       9.836  12.659  17.868  0.00  0.00    +0.000 A 
ATOM     30  C   UNL     1      11.123  12.500  17.363  0.00  0.00    +0.000 A 
ATOM     31  C   UNL     1      11.907  13.590  16.954  0.00  0.00    +0.000 A 
ATOM     32  C   UNL     1      11.438  14.889  17.084  0.00  0.00    +0.000 A 
ATOM     33  C   UNL     1      10.166  15.086  17.605  0.00  0.00    +0.000 A 
ATOM     34 CL   UNL     1       9.608  16.710  17.806  0.00  0.00    +0.000 Cl
ATOM     35  C   UNL     1       9.361  13.987  17.986  0.00  0.00    +0.000 A 
ENDBRANCH  27  29
ENDBRANCH  25  27
ENDBRANCH  23  25
ENDBRANCH   8  23
TORSDOF 8
ENDMDL
MODEL 4
REMARK VINA RESULT:      -8.2      1.733      2.605
REMARK  Name = 
REMARK  10 active torsions:
REMARK  status: ('A' for Active; 'I' for Inactive)
REMARK    1  A    between atoms: C_1  and  O_2
REMARK    2  A    between atoms: O_2  and  C_3
REMARK    3  A    between atoms: C_6  and  N_7
REMARK    4  A    between atoms: N_7  and  C_8
REMARK    5  A    between atoms: C_15  and  N_16
REMARK    6  A    between atoms: N_16  and  C_17
REMARK    7  A    between atoms: C_17  and  N_19
REMARK    8  A    between atoms: N_19  and  C_20
REMARK    9  A    between atoms: C_30  and  O_31
REMARK   10  A    between atoms: O_31  and  C_32
REMARK                            x       y       z     vdW  Elec       q    Type
REMARK                         _______ _______ _______ _____ _____    ______ ____
ROOT
ATOM      1  C   UNL     1       0.400  11.160  18.987  0.00  0.00    +0.000 A 
ATOM      2  N   UNL     1       1.216  12.198  19.030  0.00  0.00    +0.000 NA
ATOM      3  C   UNL     1       2.277  12.014  18.252  0.00  0.00    +0.000 A 
ATOM      4  N   UNL     1       2.554  10.895  17.570  0.00  0.00    +0.000 NA
ATOM      5  C   UNL     1       1.965   9.789  18.006  0.00  0.00    +0.000 A 
ATOM      6  C   UNL     1       2.542   8.616  17.558  0.00  0.00    +0.000 A 
ATOM      7  C   UNL     1       2.595   7.449  18.312  0.00  0.00    +0.000 A 
ATOM      8  C   UNL     1       2.137   7.403  19.629  0.00  0.00    +0.000 A 
ATOM      9  C   UNL     1       1.313   8.536  19.969  0.00  0.00    +0.000 A 
ATOM     10  C   UNL     1       1.033   9.780  19.010  0.00  0.00    +0.000 A 
ENDROOT
BRANCH   1  11
ATOM     11  N   UNL     1      -0.821  11.487  18.122  0.00  0.00    +0.000 N 
ATOM     12  H   UNL     1      -0.960  10.528  17.766  0.00  0.00    +0.000 HD
BRANCH  11  16
ATOM     13  C   UNL     1      -5.085  12.316  19.294  0.00  0.00    +0.000 A 
ATOM     14  C   UNL     1      -4.761  11.697  18.079  0.00  0.00    +0.000 A 
ATOM     15  C   UNL     1      -3.405  11.381  17.702  0.00  0.00    +0.000 A 
ATOM     16  C   UNL     1      -2.295  11.700  18.492  0.00  0.00    +0.000 A 
ATOM     17  C   UNL     1      -2.642  12.314  19.732  0.00  0.00    +0.000 A 
ATOM     18  C   UNL     1      -4.005  12.631  20.143  0.00  0.00    +0.000 A 
BRANCH  13  20
ATOM     19  C   UNL     1      -7.191  11.762  20.335  0.00  0.00    +0.000 C 
ATOM     20  O   UNL     1      -6.352  12.674  19.655  0.00  0.00    +0.000 OA
ENDBRANCH  13  20
BRANCH  18  21
ATOM     21  O   UNL     1      -4.101  13.237  21.380  0.00  0.00    +0.000 OA
ATOM     22  C   UNL     1      -3.559  12.612  22.551  0.00  0.00    +0.000 C 
ENDBRANCH  18  21
ENDBRANCH  11  16
ENDBRANCH   1  11
BRANCH   8  23
ATOM     23  N   UNL     1       2.643   6.206  20.281  0.00  0.00    +0.000 N 
ATOM     24  H   UNL     1       2.787   6.364  21.275  0.00  0.00    +0.000 HD
BRANCH  23  25
ATOM     25  C   UNL     1       2.711   4.836  20.152  0.00  0.00    +0.000 C 
ATOM     26  S   UNL     1       1.487   3.751  20.459  0.00  0.00    +0.000 S 
BRANCH  25  27
ATOM     27  N   UNL     1       4.004   4.313  19.889  0.00  0.00    +0.000 N 
ATOM     28  H   UNL     1       4.210   3.451  20.392  0.00  0.00    +0.000 HD
BRANCH  27  29
ATOM     29  C   UNL     1       5.003   4.658  18.912  0.00  0.00    +0.000 A 
ATOM     30  C   UNL     1       6.186   5.306  19.251  0.00  0.00    +0.000 A 
ATOM     31  C   UNL     1       7.138   5.677  18.289  0.00  0.00    +0.000 A 
ATOM     32  C   UNL     1       6.910   5.449  16.940  0.00  0.00    +0.000 A 
ATOM     33  C   UNL     1       5.728   4.822  16.564  0.00  0.00    +0.000 A 
ATOM     34 CL   UNL     1       5.431   4.583  14.878  0.00  0.00    +0.000 Cl
ATOM     35  C   UNL     1       4.782   4.417  17.535  0.00  0.00    +0.000 A 
ENDBRANCH  27  29
ENDBRANCH  25  27
ENDBRANCH  23  25
ENDBRANCH   8  23
TORSDOF 8
ENDMDL
MODEL 5
REMARK VINA RESULT:      -7.9      4.671      9.338
REMARK  Name = 
REMARK  10 active torsions:
REMARK  status: ('A' for Active; 'I' for Inactive)
REMARK    1  A    between atoms: C_1  and  O_2
REMARK    2  A    between atoms: O_2  and  C_3
REMARK    3  A    between atoms: C_6  and  N_7
REMARK    4  A    between atoms: N_7  and  C_8
REMARK    5  A    between atoms: C_15  and  N_16
REMARK    6  A    between atoms: N_16  and  C_17
REMARK    7  A    between atoms: C_17  and  N_19
REMARK    8  A    between atoms: N_19  and  C_20
REMARK    9  A    between atoms: C_30  and  O_31
REMARK   10  A    between atoms: O_31  and  C_32
REMARK                            x       y       z     vdW  Elec       q    Type
REMARK                         _______ _______ _______ _____ _____    ______ ____
ROOT
ATOM      1  C   UNL     1       3.456   3.379  19.059  0.00  0.00    +0.000 A 
ATOM      2  N   UNL     1       2.516   2.522  18.705  0.00  0.00    +0.000 NA
ATOM      3  C   UNL     1       1.662   3.065  17.844  0.00  0.00    +0.000 A 
ATOM      4  N   UNL     1       1.676   4.341  17.437  0.00  0.00    +0.000 NA
ATOM      5  C   UNL     1       2.312   5.195  18.229  0.00  0.00    +0.000 A 
ATOM      6  C   UNL     1       1.996   6.522  18.013  0.00  0.00    +0.000 A 
ATOM      7  C   UNL     1       1.954   7.477  19.022  0.00  0.00    +0.000 A 
ATOM      8  C   UNL     1       2.148   7.139  20.362  0.00  0.00    +0.000 A 
ATOM      9  C   UNL     1       2.729   5.830  20.526  0.00  0.00    +0.000 A 
ATOM     10  C   UNL     1       3.022   4.809  19.336  0.00  0.00    +0.000 A 
ENDROOT
BRANCH   1  11
ATOM     11  N   UNL     1       4.767   3.046  18.341  0.00  0.00    +0.000 N 
ATOM     12  H   UNL     1       4.394   2.253  17.797  0.00  0.00    +0.000 HD
BRANCH  11  16
ATOM     13  C   UNL     1       6.986   5.023  14.963  0.00  0.00    +0.000 A 
ATOM     14  C   UNL     1       6.186   3.890  14.758  0.00  0.00    +0.000 A 
ATOM     15  C   UNL     1       5.430   3.266  15.816  0.00  0.00    +0.000 A 
ATOM     16  C   UNL     1       5.462   3.708  17.143  0.00  0.00    +0.000 A 
ATOM     17  C   UNL     1       6.266   4.871  17.333  0.00  0.00    +0.000 A 
ATOM     18  C   UNL     1       7.028   5.529  16.278  0.00  0.00    +0.000 A 
BRANCH  13  20
ATOM     19  C   UNL     1       7.721   5.118  12.666  0.00  0.00    +0.000 C 
ATOM     20  O   UNL     1       7.752   5.603  13.994  0.00  0.00    +0.000 OA
ENDBRANCH  13  20
BRANCH  18  21
ATOM     21  O   UNL     1       7.746   6.631  16.696  0.00  0.00    +0.000 OA
ATOM     22  C   UNL     1       7.696   7.070  18.060  0.00  0.00    +0.000 C 
ENDBRANCH  18  21
ENDBRANCH  11  16
ENDBRANCH   1  11
BRANCH   8  23
ATOM     23  N   UNL     1       1.689   8.226  21.212  0.00  0.00    +0.000 N 
ATOM     24  H   UNL     1       2.473   8.709  21.643  0.00  0.00    +0.000 HD
BRANCH  23  25
ATOM     25  C   UNL     1       0.623   9.072  21.427  0.00  0.00    +0.000 C 
ATOM     26  S   UNL     1      -0.132   9.362  22.881  0.00  0.00    +0.000 S 
BRANCH  25  27
ATOM     27  N   UNL     1       0.027   9.611  20.257  0.00  0.00    +0.000 N 
ATOM     28  H   UNL     1      -0.575   8.955  19.762  0.00  0.00    +0.000 HD
BRANCH  27  29
ATOM     29  C   UNL     1      -0.040  10.951  19.739  0.00  0.00    +0.000 A 
ATOM     30  C   UNL     1      -1.235  11.660  19.656  0.00  0.00    +0.000 A 
ATOM     31  C   UNL     1      -1.302  12.952  19.112  0.00  0.00    +0.000 A 
ATOM     32  C   UNL     1      -0.171  13.560  18.588  0.00  0.00    +0.000 A 
ATOM     33  C   UNL     1       1.035  12.873  18.635  0.00  0.00    +0.000 A 
ATOM     34 CL   UNL     1       2.429  13.619  17.938  0.00  0.00    +0.000 Cl
ATOM     35  C   UNL     1       1.111  11.584  19.213  0.00  0.00    +0.000 A 
ENDBRANCH  27  29
ENDBRANCH  25  27
ENDBRANCH  23  25
ENDBRANCH   8  23
TORSDOF 8
ENDMDL
MODEL 6
REMARK VINA RESULT:      -7.8      6.801      9.459
REMARK  Name = 
REMARK  10 active torsions:
REMARK  status: ('A' for Active; 'I' for Inactive)
REMARK    1  A    between atoms: C_1  and  O_2
REMARK    2  A    between atoms: O_2  and  C_3
REMARK    3  A    between atoms: C_6  and  N_7
REMARK    4  A    between atoms: N_7  and  C_8
REMARK    5  A    between atoms: C_15  and  N_16
REMARK    6  A    between atoms: N_16  and  C_17
REMARK    7  A    between atoms: C_17  and  N_19
REMARK    8  A    between atoms: N_19  and  C_20
REMARK    9  A    between atoms: C_30  and  O_31
REMARK   10  A    between atoms: O_31  and  C_32
REMARK                            x       y       z     vdW  Elec       q    Type
REMARK                         _______ _______ _______ _____ _____    ______ ____
ROOT
ATOM      1  C   UNL     1       5.819   6.197  15.907  0.00  0.00    +0.000 A 
ATOM      2  N   UNL     1       6.412   5.409  15.030  0.00  0.00    +0.000 NA
ATOM      3  C   UNL     1       7.260   4.574  15.622  0.00  0.00    +0.000 A 
ATOM      4  N   UNL     1       7.560   4.570  16.927  0.00  0.00    +0.000 NA
ATOM      5  C   UNL     1       7.314   5.698  17.582  0.00  0.00    +0.000 A 
ATOM      6  C   UNL     1       7.968   5.812  18.793  0.00  0.00    +0.000 A 
ATOM      7  C   UNL     1       8.424   7.020  19.310  0.00  0.00    +0.000 A 
ATOM      8  C   UNL     1       8.327   8.211  18.591  0.00  0.00    +0.000 A 
ATOM      9  C   UNL     1       7.419   8.112  17.475  0.00  0.00    +0.000 A 
ATOM     10  C   UNL     1       6.682   6.774  17.016  0.00  0.00    +0.000 A 
ENDROOT
BRANCH   1  11
ATOM     11  N   UNL     1       4.381   5.727  16.149  0.00  0.00    +0.000 N 
ATOM     12  H   UNL     1       4.553   4.735  15.922  0.00  0.00    +0.000 HD
BRANCH  11  16
ATOM     13  C   UNL     1       2.246   4.651  19.961  0.00  0.00    +0.000 A 
ATOM     14  C   UNL     1       2.758   5.938  19.739  0.00  0.00    +0.000 A 
ATOM     15  C   UNL     1       3.406   6.319  18.508  0.00  0.00    +0.000 A 
ATOM     16  C   UNL     1       3.619   5.430  17.448  0.00  0.00    +0.000 A 
ATOM     17  C   UNL     1       3.078   4.131  17.681  0.00  0.00    +0.000 A 
ATOM     18  C   UNL     1       2.406   3.726  18.910  0.00  0.00    +0.000 A 
BRANCH  13  20
ATOM     19  C   UNL     1       2.257   3.211  21.897  0.00  0.00    +0.000 C 
ATOM     20  O   UNL     1       1.675   4.248  21.133  0.00  0.00    +0.000 OA
ENDBRANCH  13  20
BRANCH  18  21
ATOM     21  O   UNL     1       1.976   2.413  18.918  0.00  0.00    +0.000 OA
ATOM     22  C   UNL     1       0.593   2.089  18.728  0.00  0.00    +0.000 C 
ENDBRANCH  18  21
ENDBRANCH  11  16
ENDBRANCH   1  11
BRANCH   8  23
ATOM     23  N   UNL     1       9.193   9.215  19.187  0.00  0.00    +0.000 N 
ATOM     24  H   UNL     1      10.117   8.836  19.374  0.00  0.00    +0.000 HD
BRANCH  23  25
ATOM     25  C   UNL     1       9.363  10.577  19.315  0.00  0.00    +0.000 C 
ATOM     26  S   UNL     1       9.265  11.704  18.096  0.00  0.00    +0.000 S 
BRANCH  25  27
ATOM     27  N   UNL     1       9.822  11.016  20.584  0.00  0.00    +0.000 N 
ATOM     28  H   UNL     1      10.659  10.533  20.909  0.00  0.00    +0.000 HD
BRANCH  27  29
ATOM     29  C   UNL     1       9.450  12.134  21.410  0.00  0.00    +0.000 A 
ATOM     30  C   UNL     1      10.026  13.392  21.266  0.00  0.00    +0.000 A 
ATOM     31  C   UNL     1       9.689  14.469  22.102  0.00  0.00    +0.000 A 
ATOM     32  C   UNL     1       8.791  14.302  23.146  0.00  0.00    +0.000 A 
ATOM     33  C   UNL     1       8.214  13.052  23.332  0.00  0.00    +0.000 A 
ATOM     34 CL   UNL     1       7.132  12.841  24.664  0.00  0.00    +0.000 Cl
ATOM     35  C   UNL     1       8.526  11.975  22.470  0.00  0.00    +0.000 A 
ENDBRANCH  27  29
ENDBRANCH  25  27
ENDBRANCH  23  25
ENDBRANCH   8  23
TORSDOF 8
ENDMDL
MODEL 7
REMARK VINA RESULT:      -7.7      4.457      9.455
REMARK  Name = 
REMARK  10 active torsions:
REMARK  status: ('A' for Active; 'I' for Inactive)
REMARK    1  A    between atoms: C_1  and  O_2
REMARK    2  A    between atoms: O_2  and  C_3
REMARK    3  A    between atoms: C_6  and  N_7
REMARK    4  A    between atoms: N_7  and  C_8
REMARK    5  A    between atoms: C_15  and  N_16
REMARK    6  A    between atoms: N_16  and  C_17
REMARK    7  A    between atoms: C_17  and  N_19
REMARK    8  A    between atoms: N_19  and  C_20
REMARK    9  A    between atoms: C_30  and  O_31
REMARK   10  A    between atoms: O_31  and  C_32
REMARK                            x       y       z     vdW  Elec       q    Type
REMARK                         _______ _______ _______ _____ _____    ______ ____
ROOT
ATOM      1  C   UNL     1       4.441   3.551  19.137  0.00  0.00    +0.000 A 
ATOM      2  N   UNL     1       4.668   2.509  19.915  0.00  0.00    +0.000 NA
ATOM      3  C   UNL     1       3.537   2.004  20.394  0.00  0.00    +0.000 A 
ATOM      4  N   UNL     1       2.315   2.519  20.201  0.00  0.00    +0.000 NA
ATOM      5  C   UNL     1       2.273   3.801  19.863  0.00  0.00    +0.000 A 
ATOM      6  C   UNL     1       1.042   4.402  20.045  0.00  0.00    +0.000 A 
ATOM      7  C   UNL     1       0.884   5.733  20.414  0.00  0.00    +0.000 A 
ATOM      8  C   UNL     1       1.976   6.547  20.716  0.00  0.00    +0.000 A 
ATOM      9  C   UNL     1       3.226   5.987  20.266  0.00  0.00    +0.000 A 
ATOM     10  C   UNL     1       3.392   4.547  19.601  0.00  0.00    +0.000 A 
ENDROOT
BRANCH   1  11
ATOM     11  N   UNL     1       4.599   3.154  17.666  0.00  0.00    +0.000 N 
ATOM     12  H   UNL     1       3.696   3.542  17.352  0.00  0.00    +0.000 HD
BRANCH  11  16
ATOM     13  C   UNL     1       7.155   5.041  14.480  0.00  0.00    +0.000 A 
ATOM     14  C   UNL     1       6.346   3.927  14.213  0.00  0.00    +0.000 A 
ATOM     15  C   UNL     1       5.484   3.333  15.207  0.00  0.00    +0.000 A 
ATOM     16  C   UNL     1       5.413   3.786  16.528  0.00  0.00    +0.000 A 
ATOM     17  C   UNL     1       6.228   4.929  16.780  0.00  0.00    +0.000 A 
ATOM     18  C   UNL     1       7.096   5.557  15.790  0.00  0.00    +0.000 A 
BRANCH  13  20
ATOM     19  C   UNL     1       7.794   5.447  12.188  0.00  0.00    +0.000 C 
ATOM     20  O   UNL     1       8.017   5.592  13.577  0.00  0.00    +0.000 OA
ENDBRANCH  13  20
BRANCH  18  21
ATOM     21  O   UNL     1       7.805   6.644  16.262  0.00  0.00    +0.000 OA
ATOM     22  C   UNL     1       7.406   7.320  17.461  0.00  0.00    +0.000 C 
ENDBRANCH  18  21
ENDBRANCH  11  16
ENDBRANCH   1  11
BRANCH   8  23
ATOM     23  N   UNL     1       1.520   7.738  21.415  0.00  0.00    +0.000 N 
ATOM     24  H   UNL     1       2.124   7.952  22.204  0.00  0.00    +0.000 HD
BRANCH  23  25
ATOM     25  C   UNL     1       0.773   8.884  21.251  0.00  0.00    +0.000 C 
ATOM     26  S   UNL     1      -0.449   9.419  22.245  0.00  0.00    +0.000 S 
BRANCH  25  27
ATOM     27  N   UNL     1       0.974   9.572  20.025  0.00  0.00    +0.000 N 
ATOM     28  H   UNL     1       1.858   9.350  19.569  0.00  0.00    +0.000 HD
BRANCH  27  29
ATOM     29  C   UNL     1       0.096  10.372  19.214  0.00  0.00    +0.000 A 
ATOM     30  C   UNL     1       0.139  11.762  19.216  0.00  0.00    +0.000 A 
ATOM     31  C   UNL     1      -0.748  12.539  18.453  0.00  0.00    +0.000 A 
ATOM     32  C   UNL     1      -1.743  11.940  17.695  0.00  0.00    +0.000 A 
ATOM     33  C   UNL     1      -1.828  10.554  17.687  0.00  0.00    +0.000 A 
ATOM     34 CL   UNL     1      -3.099   9.818  16.776  0.00  0.00    +0.000 Cl
ATOM     35  C   UNL     1      -0.914   9.768  18.428  0.00  0.00    +0.000 A 
ENDBRANCH  27  29
ENDBRANCH  25  27
ENDBRANCH  23  25
ENDBRANCH   8  23
TORSDOF 8
ENDMDL
MODEL 8
REMARK VINA RESULT:      -7.7      2.611      3.729
REMARK  Name = 
REMARK  10 active torsions:
REMARK  status: ('A' for Active; 'I' for Inactive)
REMARK    1  A    between atoms: C_1  and  O_2
REMARK    2  A    between atoms: O_2  and  C_3
REMARK    3  A    between atoms: C_6  and  N_7
REMARK    4  A    between atoms: N_7  and  C_8
REMARK    5  A    between atoms: C_15  and  N_16
REMARK    6  A    between atoms: N_16  and  C_17
REMARK    7  A    between atoms: C_17  and  N_19
REMARK    8  A    between atoms: N_19  and  C_20
REMARK    9  A    between atoms: C_30  and  O_31
REMARK   10  A    between atoms: O_31  and  C_32
REMARK                            x       y       z     vdW  Elec       q    Type
REMARK                         _______ _______ _______ _____ _____    ______ ____
ROOT
ATOM      1  C   UNL     1       0.331  11.209  20.329  0.00  0.00    +0.000 A 
ATOM      2  N   UNL     1       1.138  12.248  20.215  0.00  0.00    +0.000 NA
ATOM      3  C   UNL     1       1.867  12.178  19.106  0.00  0.00    +0.000 A 
ATOM      4  N   UNL     1       1.869  11.154  18.242  0.00  0.00    +0.000 NA
ATOM      5  C   UNL     1       1.435   9.993  18.718  0.00  0.00    +0.000 A 
ATOM      6  C   UNL     1       1.797   8.894  17.965  0.00  0.00    +0.000 A 
ATOM      7  C   UNL     1       2.075   7.646  18.510  0.00  0.00    +0.000 A 
ATOM      8  C   UNL     1       2.090   7.433  19.889  0.00  0.00    +0.000 A 
ATOM      9  C   UNL     1       1.459   8.502  20.622  0.00  0.00    +0.000 A 
ATOM     10  C   UNL     1       0.900   9.847  19.971  0.00  0.00    +0.000 A 
ENDROOT
BRANCH   1  11
ATOM     11  N   UNL     1      -1.103  11.616  19.976  0.00  0.00    +0.000 N 
ATOM     12  H   UNL     1      -1.482  10.657  19.942  0.00  0.00    +0.000 HD
BRANCH  11  16
ATOM     13  C   UNL     1      -4.586  13.147  22.378  0.00  0.00    +0.000 A 
ATOM     14  C   UNL     1      -3.424  12.659  22.992  0.00  0.00    +0.000 A 
ATOM     15  C   UNL     1      -2.277  12.205  22.243  0.00  0.00    +0.000 A 
ATOM     16  C   UNL     1      -2.240  12.171  20.845  0.00  0.00    +0.000 A 
ATOM     17  C   UNL     1      -3.422  12.686  20.235  0.00  0.00    +0.000 A 
ATOM     18  C   UNL     1      -4.588  13.164  20.969  0.00  0.00    +0.000 A 
BRANCH  13  20
ATOM     19  C   UNL     1      -5.796  14.831  23.614  0.00  0.00    +0.000 C 
ATOM     20  O   UNL     1      -5.704  13.534  23.058  0.00  0.00    +0.000 OA
ENDBRANCH  13  20
BRANCH  18  21
ATOM     21  O   UNL     1      -5.624  13.604  20.169  0.00  0.00    +0.000 OA
ATOM     22  C   UNL     1      -6.567  12.682  19.608  0.00  0.00    +0.000 C 
ENDBRANCH  18  21
ENDBRANCH  11  16
ENDBRANCH   1  11
BRANCH   8  23
ATOM     23  N   UNL     1       2.758   6.175  20.183  0.00  0.00    +0.000 N 
ATOM     24  H   UNL     1       3.336   6.254  21.015  0.00  0.00    +0.000 HD
BRANCH  23  25
ATOM     25  C   UNL     1       2.678   4.817  19.965  0.00  0.00    +0.000 C 
ATOM     26  S   UNL     1       1.549   3.777  20.607  0.00  0.00    +0.000 S 
BRANCH  25  27
ATOM     27  N   UNL     1       3.767   4.250  19.253  0.00  0.00    +0.000 N 
ATOM     28  H   UNL     1       3.948   3.275  19.486  0.00  0.00    +0.000 HD
BRANCH  27  29
ATOM     29  C   UNL     1       4.540   4.724  18.136  0.00  0.00    +0.000 A 
ATOM     30  C   UNL     1       4.417   4.185  16.860  0.00  0.00    +0.000 A 
ATOM     31  C   UNL     1       5.204   4.623  15.783  0.00  0.00    +0.000 A 
ATOM     32  C   UNL     1       6.179   5.592  15.965  0.00  0.00    +0.000 A 
ATOM     33  C   UNL     1       6.344   6.137  17.232  0.00  0.00    +0.000 A 
ATOM     34 CL   UNL     1       7.593   7.310  17.461  0.00  0.00    +0.000 Cl
ATOM     35  C   UNL     1       5.530   5.721  18.312  0.00  0.00    +0.000 A 
ENDBRANCH  27  29
ENDBRANCH  25  27
ENDBRANCH  23  25
ENDBRANCH   8  23
TORSDOF 8
ENDMDL
MODEL 9
REMARK VINA RESULT:      -7.7      4.566      9.528
REMARK  Name = 
REMARK  10 active torsions:
REMARK  status: ('A' for Active; 'I' for Inactive)
REMARK    1  A    between atoms: C_1  and  O_2
REMARK    2  A    between atoms: O_2  and  C_3
REMARK    3  A    between atoms: C_6  and  N_7
REMARK    4  A    between atoms: N_7  and  C_8
REMARK    5  A    between atoms: C_15  and  N_16
REMARK    6  A    between atoms: N_16  and  C_17
REMARK    7  A    between atoms: C_17  and  N_19
REMARK    8  A    between atoms: N_19  and  C_20
REMARK    9  A    between atoms: C_30  and  O_31
REMARK   10  A    between atoms: O_31  and  C_32
REMARK                            x       y       z     vdW  Elec       q    Type
REMARK                         _______ _______ _______ _____ _____    ______ ____
ROOT
ATOM      1  C   UNL     1       2.851   5.789  19.903  0.00  0.00    +0.000 A 
ATOM      2  N   UNL     1       2.094   4.780  19.514  0.00  0.00    +0.000 NA
ATOM      3  C   UNL     1       1.535   5.018  18.332  0.00  0.00    +0.000 A 
ATOM      4  N   UNL     1       1.639   6.162  17.641  0.00  0.00    +0.000 NA
ATOM      5  C   UNL     1       1.971   7.236  18.346  0.00  0.00    +0.000 A 
ATOM      6  C   UNL     1       1.700   8.438  17.721  0.00  0.00    +0.000 A 
ATOM      7  C   UNL     1       1.317   9.589  18.401  0.00  0.00    +0.000 A 
ATOM      8  C   UNL     1       1.092   9.589  19.778  0.00  0.00    +0.000 A 
ATOM      9  C   UNL     1       1.632   8.420  20.428  0.00  0.00    +0.000 A 
ATOM     10  C   UNL     1       2.311   7.190  19.672  0.00  0.00    +0.000 A 
ENDROOT
BRANCH   1  11
ATOM     11  N   UNL     1       4.330   5.440  19.711  0.00  0.00    +0.000 N 
ATOM     12  H   UNL     1       4.230   4.432  19.909  0.00  0.00    +0.000 HD
BRANCH  11  16
ATOM     13  C   UNL     1       6.961   4.938  16.096  0.00  0.00    +0.000 A 
ATOM     14  C   UNL     1       6.018   3.967  16.463  0.00  0.00    +0.000 A 
ATOM     15  C   UNL     1       5.133   4.127  17.591  0.00  0.00    +0.000 A 
ATOM     16  C   UNL     1       5.166   5.238  18.440  0.00  0.00    +0.000 A 
ATOM     17  C   UNL     1       6.118   6.224  18.045  0.00  0.00    +0.000 A 
ATOM     18  C   UNL     1       7.014   6.093  16.901  0.00  0.00    +0.000 A 
BRANCH  13  20
ATOM     19  C   UNL     1       7.442   5.026  13.732  0.00  0.00    +0.000 C 
ATOM     20  O   UNL     1       7.845   4.792  15.067  0.00  0.00    +0.000 OA
ENDBRANCH  13  20
BRANCH  18  21
ATOM     21  O   UNL     1       7.863   7.167  16.716  0.00  0.00    +0.000 OA
ATOM     22  C   UNL     1       7.858   8.275  17.625  0.00  0.00    +0.000 C 
ENDBRANCH  18  21
ENDBRANCH  11  16
ENDBRANCH   1  11
BRANCH   8  23
ATOM     23  N   UNL     1       0.361  10.787  20.154  0.00  0.00    +0.000 N 
ATOM     24  H   UNL     1       0.434  11.502  19.435  0.00  0.00    +0.000 HD
BRANCH  23  25
ATOM     25  C   UNL     1      -0.662  11.236  20.962  0.00  0.00    +0.000 C 
ATOM     26  S   UNL     1      -0.860  10.908  22.581  0.00  0.00    +0.000 S 
BRANCH  25  27
ATOM     27  N   UNL     1      -1.719  11.905  20.291  0.00  0.00    +0.000 N 
ATOM     28  H   UNL     1      -1.935  12.824  20.676  0.00  0.00    +0.000 HD
BRANCH  27  29
ATOM     29  C   UNL     1      -2.413  11.622  19.063  0.00  0.00    +0.000 A 
ATOM     30  C   UNL     1      -1.753  11.204  17.912  0.00  0.00    +0.000 A 
ATOM     31  C   UNL     1      -2.431  10.969  16.705  0.00  0.00    +0.000 A 
ATOM     32  C   UNL     1      -3.796  11.192  16.603  0.00  0.00    +0.000 A 
ATOM     33  C   UNL     1      -4.483  11.631  17.727  0.00  0.00    +0.000 A 
ATOM     34 CL   UNL     1      -6.175  11.952  17.579  0.00  0.00    +0.000 Cl
ATOM     35  C   UNL     1      -3.808  11.837  18.954  0.00  0.00    +0.000 A 
ENDBRANCH  27  29
ENDBRANCH  25  27
ENDBRANCH  23  25
ENDBRANCH   8  23
TORSDOF 8
ENDMDL
