MODEL 1
REMARK VINA RESULT:      -7.5      0.000      0.000
REMARK  Name = 
REMARK  3 active torsions:
REMARK  status: ('A' for Active; 'I' for Inactive)
REMARK    1  A    between atoms: C_1  and  N_2
REMARK    2  A    between atoms: C_6  and  N_7
REMARK    3  A    between atoms: C_12  and  C_13
REMARK                            x       y       z     vdW  Elec       q    Type
REMARK                         _______ _______ _______ _____ _____    ______ ____
ROOT
ATOM      1  C   UNL     1       2.372   2.068  17.851  0.00  0.00    +0.000 C 
ATOM      2  N   UNL     1       2.609   3.217  18.702  0.00  0.00    +0.000 NA
ATOM      3  C   UNL     1       3.993   3.358  19.161  0.00  0.00    +0.000 C 
ATOM      4  C   UNL     1       4.708   4.541  18.593  0.00  0.00    +0.000 A 
ATOM      5  S   UNL     1       6.403   4.705  18.722  0.00  0.00    +0.000 S 
ATOM      6  C   UNL     1       6.368   6.226  17.964  0.00  0.00    +0.000 A 
ATOM      7  C   UNL     1       5.094   6.605  17.594  0.00  0.00    +0.000 A 
ATOM      8  C   UNL     1       4.115   5.630  17.987  0.00  0.00    +0.000 A 
ATOM      9  C   UNL     1       2.622   5.697  17.804  0.00  0.00    +0.000 C 
ATOM     10  C   UNL     1       1.869   4.429  18.315  0.00  0.00    +0.000 C 
ENDROOT
BRANCH   9  11
ATOM     11  C   UNL     1       2.175   6.956  18.535  0.00  0.00    +0.000 A 
ATOM     12  C   UNL     1       2.009   6.938  19.930  0.00  0.00    +0.000 A 
ATOM     13  C   UNL     1       1.600   8.088  20.615  0.00  0.00    +0.000 A 
ATOM     14  C   UNL     1       1.356   9.264  19.910  0.00  0.00    +0.000 A 
ATOM     15 BR   UNL     1       0.786  10.814  20.833  0.00  0.00    +0.000 Br
ATOM     16  C   UNL     1       1.528   9.308  18.531  0.00  0.00    +0.000 A 
ATOM     17  C   UNL     1       1.941   8.164  17.848  0.00  0.00    +0.000 A 
ENDBRANCH   9  11
BRANCH   6  18
ATOM     18  N   UNL     1       7.580   6.978  17.771  0.00  0.00    +0.000 N 
ATOM     19  O   UNL     1       8.275   7.172  18.781  0.00  0.00    +0.000 OA
ATOM     20  O   UNL     1       7.852   7.377  16.633  0.00  0.00    +0.000 OA
ENDBRANCH   6  18
TORSDOF 2
ENDMDL
MODEL 2
REMARK VINA RESULT:      -7.5      0.125      1.289
REMARK  Name = 
REMARK  3 active torsions:
REMARK  status: ('A' for Active; 'I' for Inactive)
REMARK    1  A    between atoms: C_1  and  N_2
REMARK    2  A    between atoms: C_6  and  N_7
REMARK    3  A    between atoms: C_12  and  C_13
REMARK                            x       y       z     vdW  Elec       q    Type
REMARK                         _______ _______ _______ _____ _____    ______ ____
ROOT
ATOM      1  C   UNL     1       2.489   2.121  17.820  0.00  0.00    +0.000 C 
ATOM      2  N   UNL     1       2.694   3.264  18.688  0.00  0.00    +0.000 NA
ATOM      3  C   UNL     1       4.071   3.426  19.164  0.00  0.00    +0.000 C 
ATOM      4  C   UNL     1       4.769   4.630  18.619  0.00  0.00    +0.000 A 
ATOM      5  S   UNL     1       6.458   4.825  18.768  0.00  0.00    +0.000 S 
ATOM      6  C   UNL     1       6.402   6.354  18.029  0.00  0.00    +0.000 A 
ATOM      7  C   UNL     1       5.125   6.714  17.650  0.00  0.00    +0.000 A 
ATOM      8  C   UNL     1       4.161   5.715  18.020  0.00  0.00    +0.000 A 
ATOM      9  C   UNL     1       2.669   5.755  17.822  0.00  0.00    +0.000 C 
ATOM     10  C   UNL     1       1.936   4.467  18.308  0.00  0.00    +0.000 C 
ENDROOT
BRANCH   9  11
ATOM     11  C   UNL     1       2.190   6.997  18.563  0.00  0.00    +0.000 A 
ATOM     12  C   UNL     1       1.912   8.176  17.853  0.00  0.00    +0.000 A 
ATOM     13  C   UNL     1       1.471   9.324  18.522  0.00  0.00    +0.000 A 
ATOM     14  C   UNL     1       1.304   9.299  19.905  0.00  0.00    +0.000 A 
ATOM     15 BR   UNL     1       0.724  10.855  20.811  0.00  0.00    +0.000 Br
ATOM     16  C   UNL     1       1.560   8.138  20.625  0.00  0.00    +0.000 A 
ATOM     17  C   UNL     1       1.995   6.992  19.959  0.00  0.00    +0.000 A 
ENDBRANCH   9  11
BRANCH   6  18
ATOM     18  N   UNL     1       7.602   7.132  17.858  0.00  0.00    +0.000 N 
ATOM     19  O   UNL     1       7.756   7.669  16.750  0.00  0.00    +0.000 OA
ATOM     20  O   UNL     1       8.390   7.217  18.807  0.00  0.00    +0.000 OA
ENDBRANCH   6  18
TORSDOF 2
ENDMDL
MODEL 3
REMARK VINA RESULT:      -6.4      3.357      4.501
REMARK  Name = 
REMARK  3 active torsions:
REMARK  status: ('A' for Active; 'I' for Inactive)
REMARK    1  A    between atoms: C_1  and  N_2
REMARK    2  A    between atoms: C_6  and  N_7
REMARK    3  A    between atoms: C_12  and  C_13
REMARK                            x       y       z     vdW  Elec       q    Type
REMARK                         _______ _______ _______ _____ _____    ______ ____
ROOT
ATOM      1  C   UNL     1       6.763   5.452  16.508  0.00  0.00    +0.000 C 
ATOM      2  N   UNL     1       5.365   5.833  16.468  0.00  0.00    +0.000 NA
ATOM      3  C   UNL     1       4.438   4.722  16.239  0.00  0.00    +0.000 C 
ATOM      4  C   UNL     1       3.569   4.399  17.411  0.00  0.00    +0.000 A 
ATOM      5  S   UNL     1       2.670   2.949  17.483  0.00  0.00    +0.000 S 
ATOM      6  C   UNL     1       1.967   3.394  18.965  0.00  0.00    +0.000 A 
ATOM      7  C   UNL     1       2.417   4.616  19.420  0.00  0.00    +0.000 A 
ATOM      8  C   UNL     1       3.336   5.220  18.496  0.00  0.00    +0.000 A 
ATOM      9  C   UNL     1       4.010   6.562  18.611  0.00  0.00    +0.000 C 
ATOM     10  C   UNL     1       4.987   6.876  17.436  0.00  0.00    +0.000 C 
ENDROOT
BRANCH   9  11
ATOM     11  C   UNL     1       2.880   7.581  18.698  0.00  0.00    +0.000 A 
ATOM     12  C   UNL     1       2.187   7.758  19.907  0.00  0.00    +0.000 A 
ATOM     13  C   UNL     1       1.147   8.691  20.001  0.00  0.00    +0.000 A 
ATOM     14  C   UNL     1       0.796   9.453  18.890  0.00  0.00    +0.000 A 
ATOM     15 BR   UNL     1      -0.620  10.701  19.013  0.00  0.00    +0.000 Br
ATOM     16  C   UNL     1       1.479   9.303  17.688  0.00  0.00    +0.000 A 
ATOM     17  C   UNL     1       2.519   8.378  17.594  0.00  0.00    +0.000 A 
ENDBRANCH   9  11
BRANCH   6  18
ATOM     18  N   UNL     1       1.008   2.534  19.609  0.00  0.00    +0.000 N 
ATOM     19  O   UNL     1       0.197   1.960  18.865  0.00  0.00    +0.000 OA
ATOM     20  O   UNL     1       1.050   2.422  20.839  0.00  0.00    +0.000 OA
ENDBRANCH   6  18
TORSDOF 2
ENDMDL
MODEL 4
REMARK VINA RESULT:      -6.4      3.243      4.373
REMARK  Name = 
REMARK  3 active torsions:
REMARK  status: ('A' for Active; 'I' for Inactive)
REMARK    1  A    between atoms: C_1  and  N_2
REMARK    2  A    between atoms: C_6  and  N_7
REMARK    3  A    between atoms: C_12  and  C_13
REMARK                            x       y       z     vdW  Elec       q    Type
REMARK                         _______ _______ _______ _____ _____    ______ ____
ROOT
ATOM      1  C   UNL     1       6.320   5.088  15.956  0.00  0.00    +0.000 C 
ATOM      2  N   UNL     1       4.930   5.379  16.247  0.00  0.00    +0.000 NA
ATOM      3  C   UNL     1       4.119   4.203  16.573  0.00  0.00    +0.000 C 
ATOM      4  C   UNL     1       3.653   4.155  17.992  0.00  0.00    +0.000 A 
ATOM      5  S   UNL     1       2.993   2.733  18.667  0.00  0.00    +0.000 S 
ATOM      6  C   UNL     1       2.678   3.514  20.144  0.00  0.00    +0.000 A 
ATOM      7  C   UNL     1       3.084   4.832  20.143  0.00  0.00    +0.000 A 
ATOM      8  C   UNL     1       3.631   5.219  18.873  0.00  0.00    +0.000 A 
ATOM      9  C   UNL     1       4.141   6.575  18.462  0.00  0.00    +0.000 C 
ATOM     10  C   UNL     1       4.709   6.619  17.010  0.00  0.00    +0.000 C 
ENDROOT
BRANCH   9  11
ATOM     11  C   UNL     1       2.964   7.526  18.641  0.00  0.00    +0.000 A 
ATOM     12  C   UNL     1       2.493   8.273  17.549  0.00  0.00    +0.000 A 
ATOM     13  C   UNL     1       1.412   9.150  17.699  0.00  0.00    +0.000 A 
ATOM     14  C   UNL     1       0.795   9.284  18.941  0.00  0.00    +0.000 A 
ATOM     15 BR   UNL     1      -0.654  10.482  19.147  0.00  0.00    +0.000 Br
ATOM     16  C   UNL     1       1.237   8.543  20.031  0.00  0.00    +0.000 A 
ATOM     17  C   UNL     1       2.310   7.665  19.882  0.00  0.00    +0.000 A 
ENDBRANCH   9  11
BRANCH   6  18
ATOM     18  N   UNL     1       2.047   2.807  21.228  0.00  0.00    +0.000 N 
ATOM     19  O   UNL     1       0.813   2.688  21.163  0.00  0.00    +0.000 OA
ATOM     20  O   UNL     1       2.758   2.369  22.139  0.00  0.00    +0.000 OA
ENDBRANCH   6  18
TORSDOF 2
ENDMDL
MODEL 5
REMARK VINA RESULT:      -6.4      3.333      4.560
REMARK  Name = 
REMARK  3 active torsions:
REMARK  status: ('A' for Active; 'I' for Inactive)
REMARK    1  A    between atoms: C_1  and  N_2
REMARK    2  A    between atoms: C_6  and  N_7
REMARK    3  A    between atoms: C_12  and  C_13
REMARK                            x       y       z     vdW  Elec       q    Type
REMARK                         _______ _______ _______ _____ _____    ______ ____
ROOT
ATOM      1  C   UNL     1       6.833   5.493  16.498  0.00  0.00    +0.000 C 
ATOM      2  N   UNL     1       5.432   5.862  16.462  0.00  0.00    +0.000 NA
ATOM      3  C   UNL     1       4.516   4.746  16.211  0.00  0.00    +0.000 C 
ATOM      4  C   UNL     1       3.648   4.393  17.375  0.00  0.00    +0.000 A 
ATOM      5  S   UNL     1       2.763   2.934  17.418  0.00  0.00    +0.000 S 
ATOM      6  C   UNL     1       2.052   3.344  18.906  0.00  0.00    +0.000 A 
ATOM      7  C   UNL     1       2.490   4.562  19.385  0.00  0.00    +0.000 A 
ATOM      8  C   UNL     1       3.405   5.192  18.474  0.00  0.00    +0.000 A 
ATOM      9  C   UNL     1       4.065   6.538  18.614  0.00  0.00    +0.000 C 
ATOM     10  C   UNL     1       5.042   6.883  17.448  0.00  0.00    +0.000 C 
ENDROOT
BRANCH   9  11
ATOM     11  C   UNL     1       2.926   7.544  18.718  0.00  0.00    +0.000 A 
ATOM     12  C   UNL     1       2.558   8.308  17.598  0.00  0.00    +0.000 A 
ATOM     13  C   UNL     1       1.513   9.236  17.680  0.00  0.00    +0.000 A 
ATOM     14  C   UNL     1       0.828   9.404  18.881  0.00  0.00    +0.000 A 
ATOM     15 BR   UNL     1      -0.573  10.669  18.995  0.00  0.00    +0.000 Br
ATOM     16  C   UNL     1       1.166   8.647  19.998  0.00  0.00    +0.000 A 
ATOM     17  C   UNL     1       2.204   7.719  19.916  0.00  0.00    +0.000 A 
ENDBRANCH   9  11
BRANCH   6  18
ATOM     18  N   UNL     1       1.101   2.464  19.533  0.00  0.00    +0.000 N 
ATOM     19  O   UNL     1       1.268   2.245  20.743  0.00  0.00    +0.000 OA
ATOM     20  O   UNL     1       0.192   1.990  18.842  0.00  0.00    +0.000 OA
ENDBRANCH   6  18
TORSDOF 2
ENDMDL
MODEL 6
REMARK VINA RESULT:      -6.3      3.237      4.228
REMARK  Name = 
REMARK  3 active torsions:
REMARK  status: ('A' for Active; 'I' for Inactive)
REMARK    1  A    between atoms: C_1  and  N_2
REMARK    2  A    between atoms: C_6  and  N_7
REMARK    3  A    between atoms: C_12  and  C_13
REMARK                            x       y       z     vdW  Elec       q    Type
REMARK                         _______ _______ _______ _____ _____    ______ ____
ROOT
ATOM      1  C   UNL     1       6.355   4.912  15.891  0.00  0.00    +0.000 C 
ATOM      2  N   UNL     1       4.975   5.232  16.195  0.00  0.00    +0.000 NA
ATOM      3  C   UNL     1       4.147   4.075  16.546  0.00  0.00    +0.000 C 
ATOM      4  C   UNL     1       3.698   4.054  17.972  0.00  0.00    +0.000 A 
ATOM      5  S   UNL     1       3.021   2.652  18.673  0.00  0.00    +0.000 S 
ATOM      6  C   UNL     1       2.738   3.457  20.143  0.00  0.00    +0.000 A 
ATOM      7  C   UNL     1       3.168   4.768  20.120  0.00  0.00    +0.000 A 
ATOM      8  C   UNL     1       3.706   5.128  18.838  0.00  0.00    +0.000 A 
ATOM      9  C   UNL     1       4.235   6.469  18.404  0.00  0.00    +0.000 C 
ATOM     10  C   UNL     1       4.786   6.485  16.945  0.00  0.00    +0.000 C 
ENDROOT
BRANCH   9  11
ATOM     11  C   UNL     1       3.078   7.444  18.585  0.00  0.00    +0.000 A 
ATOM     12  C   UNL     1       2.348   7.453  19.785  0.00  0.00    +0.000 A 
ATOM     13  C   UNL     1       1.283   8.344  19.965  0.00  0.00    +0.000 A 
ATOM     14  C   UNL     1       0.942   9.231  18.947  0.00  0.00    +0.000 A 
ATOM     15 BR   UNL     1      -0.508  10.422  19.183  0.00  0.00    +0.000 Br
ATOM     16  C   UNL     1       1.660   9.247  17.756  0.00  0.00    +0.000 A 
ATOM     17  C   UNL     1       2.725   8.365  17.578  0.00  0.00    +0.000 A 
ENDBRANCH   9  11
BRANCH   6  18
ATOM     18  N   UNL     1       2.108   2.775  21.244  0.00  0.00    +0.000 N 
ATOM     19  O   UNL     1       0.871   2.686  21.200  0.00  0.00    +0.000 OA
ATOM     20  O   UNL     1       2.823   2.328  22.147  0.00  0.00    +0.000 OA
ENDBRANCH   6  18
TORSDOF 2
ENDMDL
MODEL 7
REMARK VINA RESULT:      -5.9      0.862      1.065
REMARK  Name = 
REMARK  3 active torsions:
REMARK  status: ('A' for Active; 'I' for Inactive)
REMARK    1  A    between atoms: C_1  and  N_2
REMARK    2  A    between atoms: C_6  and  N_7
REMARK    3  A    between atoms: C_12  and  C_13
REMARK                            x       y       z     vdW  Elec       q    Type
REMARK                         _______ _______ _______ _____ _____    ______ ____
ROOT
ATOM      1  C   UNL     1       1.494   2.037  18.378  0.00  0.00    +0.000 C 
ATOM      2  N   UNL     1       1.809   3.227  19.142  0.00  0.00    +0.000 NA
ATOM      3  C   UNL     1       3.126   3.208  19.783  0.00  0.00    +0.000 C 
ATOM      4  C   UNL     1       4.096   4.193  19.216  0.00  0.00    +0.000 A 
ATOM      5  S   UNL     1       5.764   4.110  19.575  0.00  0.00    +0.000 S 
ATOM      6  C   UNL     1       6.083   5.519  18.681  0.00  0.00    +0.000 A 
ATOM      7  C   UNL     1       4.949   6.043  18.094  0.00  0.00    +0.000 A 
ATOM      8  C   UNL     1       3.778   5.282  18.430  0.00  0.00    +0.000 A 
ATOM      9  C   UNL     1       2.353   5.554  18.025  0.00  0.00    +0.000 C 
ATOM     10  C   UNL     1       1.339   4.485  18.538  0.00  0.00    +0.000 C 
ENDROOT
BRANCH   9  11
ATOM     11  C   UNL     1       2.034   6.944  18.561  0.00  0.00    +0.000 A 
ATOM     12  C   UNL     1       1.872   7.145  19.942  0.00  0.00    +0.000 A 
ATOM     13  C   UNL     1       1.578   8.417  20.447  0.00  0.00    +0.000 A 
ATOM     14  C   UNL     1       1.447   9.496  19.576  0.00  0.00    +0.000 A 
ATOM     15 BR   UNL     1       1.035  11.211  20.258  0.00  0.00    +0.000 Br
ATOM     16  C   UNL     1       1.618   9.322  18.207  0.00  0.00    +0.000 A 
ATOM     17  C   UNL     1       1.916   8.056  17.703  0.00  0.00    +0.000 A 
ENDBRANCH   9  11
BRANCH   6  18
ATOM     18  N   UNL     1       7.419   6.049  18.596  0.00  0.00    +0.000 N 
ATOM     19  O   UNL     1       7.580   7.016  17.834  0.00  0.00    +0.000 OA
ATOM     20  O   UNL     1       8.306   5.520  19.275  0.00  0.00    +0.000 OA
ENDBRANCH   6  18
TORSDOF 2
ENDMDL
MODEL 8
REMARK VINA RESULT:      -5.7      5.525      7.570
REMARK  Name = 
REMARK  3 active torsions:
REMARK  status: ('A' for Active; 'I' for Inactive)
REMARK    1  A    between atoms: C_1  and  N_2
REMARK    2  A    between atoms: C_6  and  N_7
REMARK    3  A    between atoms: C_12  and  C_13
REMARK                            x       y       z     vdW  Elec       q    Type
REMARK                         _______ _______ _______ _____ _____    ______ ____
ROOT
ATOM      1  C   UNL     1      -3.451  11.862  18.687  0.00  0.00    +0.000 C 
ATOM      2  N   UNL     1      -2.117  11.526  18.232  0.00  0.00    +0.000 NA
ATOM      3  C   UNL     1      -1.225  12.677  18.063  0.00  0.00    +0.000 C 
ATOM      4  C   UNL     1      -0.096  12.724  19.042  0.00  0.00    +0.000 A 
ATOM      5  S   UNL     1       0.851  14.130  19.243  0.00  0.00    +0.000 S 
ATOM      6  C   UNL     1       1.860  13.355  20.370  0.00  0.00    +0.000 A 
ATOM      7  C   UNL     1       1.480  12.052  20.614  0.00  0.00    +0.000 A 
ATOM      8  C   UNL     1       0.349  11.670  19.815  0.00  0.00    +0.000 A 
ATOM      9  C   UNL     1      -0.332  10.328  19.761  0.00  0.00    +0.000 C 
ATOM     10  C   UNL     1      -1.566  10.288  18.808  0.00  0.00    +0.000 C 
ENDROOT
BRANCH   9  11
ATOM     11  C   UNL     1       0.746   9.339  19.338  0.00  0.00    +0.000 A 
ATOM     12  C   UNL     1       1.301   9.413  18.049  0.00  0.00    +0.000 A 
ATOM     13  C   UNL     1       2.292   8.510  17.647  0.00  0.00    +0.000 A 
ATOM     14  C   UNL     1       2.736   7.530  18.531  0.00  0.00    +0.000 A 
ATOM     15 BR   UNL     1       4.064   6.300  17.982  0.00  0.00    +0.000 Br
ATOM     16  C   UNL     1       2.211   7.448  19.816  0.00  0.00    +0.000 A 
ATOM     17  C   UNL     1       1.227   8.350  20.219  0.00  0.00    +0.000 A 
ENDBRANCH   9  11
BRANCH   6  18
ATOM     18  N   UNL     1       2.975  14.051  20.958  0.00  0.00    +0.000 N 
ATOM     19  O   UNL     1       2.887  14.309  22.169  0.00  0.00    +0.000 OA
ATOM     20  O   UNL     1       3.935  14.344  20.236  0.00  0.00    +0.000 OA
ENDBRANCH   6  18
TORSDOF 2
ENDMDL
MODEL 9
REMARK VINA RESULT:      -5.7      6.299      8.537
REMARK  Name = 
REMARK  3 active torsions:
REMARK  status: ('A' for Active; 'I' for Inactive)
REMARK    1  A    between atoms: C_1  and  N_2
REMARK    2  A    between atoms: C_6  and  N_7
REMARK    3  A    between atoms: C_12  and  C_13
REMARK                            x       y       z     vdW  Elec       q    Type
REMARK                         _______ _______ _______ _____ _____    ______ ____
ROOT
ATOM      1  C   UNL     1       0.092  14.279  21.351  0.00  0.00    +0.000 C 
ATOM      2  N   UNL     1      -0.100  12.851  21.199  0.00  0.00    +0.000 NA
ATOM      3  C   UNL     1      -1.479  12.450  20.908  0.00  0.00    +0.000 C 
ATOM      4  C   UNL     1      -1.676  11.890  19.537  0.00  0.00    +0.000 A 
ATOM      5  S   UNL     1      -3.236  11.680  18.875  0.00  0.00    +0.000 S 
ATOM      6  C   UNL     1      -2.603  10.978  17.463  0.00  0.00    +0.000 A 
ATOM      7  C   UNL     1      -1.224  10.919  17.472  0.00  0.00    +0.000 A 
ATOM      8  C   UNL     1      -0.680  11.428  18.700  0.00  0.00    +0.000 A 
ATOM      9  C   UNL     1       0.768  11.494  19.110  0.00  0.00    +0.000 C 
ATOM     10  C   UNL     1       0.996  12.155  20.504  0.00  0.00    +0.000 C 
ENDROOT
BRANCH   9  11
ATOM     11  C   UNL     1       1.269  10.056  19.074  0.00  0.00    +0.000 A 
ATOM     12  C   UNL     1       1.085   9.219  20.187  0.00  0.00    +0.000 A 
ATOM     13  C   UNL     1       1.540   7.896  20.167  0.00  0.00    +0.000 A 
ATOM     14  C   UNL     1       2.181   7.400  19.034  0.00  0.00    +0.000 A 
ATOM     15 BR   UNL     1       2.811   5.617  19.013  0.00  0.00    +0.000 Br
ATOM     16  C   UNL     1       2.361   8.208  17.916  0.00  0.00    +0.000 A 
ATOM     17  C   UNL     1       1.903   9.525  17.933  0.00  0.00    +0.000 A 
ENDBRANCH   9  11
BRANCH   6  18
ATOM     18  N   UNL     1      -3.477  10.516  16.417  0.00  0.00    +0.000 N 
ATOM     19  O   UNL     1      -4.633  10.971  16.424  0.00  0.00    +0.000 OA
ATOM     20  O   UNL     1      -3.034   9.711  15.590  0.00  0.00    +0.000 OA
ENDBRANCH   6  18
TORSDOF 2
ENDMDL
