MODEL 1
REMARK VINA RESULT:      -8.6      0.000      0.000
REMARK  Name = 
REMARK  6 active torsions:
REMARK  status: ('A' for Active; 'I' for Inactive)
REMARK    1  A    between atoms: C_1  and  S_2
REMARK    2  A    between atoms: S_2  and  C_5
REMARK    3  A    between atoms: C_8  and  C_9
REMARK    4  A    between atoms: C_10  and  C_11
REMARK    5  A    between atoms: C_14  and  S_15
REMARK    6  A    between atoms: S_15  and  N_18
REMARK                            x       y       z     vdW  Elec       q    Type
REMARK                         _______ _______ _______ _____ _____    ______ ____
ROOT
ATOM      1  C   UNL     1      -0.015  10.042  19.288  0.00  0.00    +0.000 C 
ATOM      2  C   UNL     1       0.903   9.336  20.040  0.00  0.00    +0.000 C 
ATOM      3  C   UNL     1       1.133   9.865  21.443  0.00  0.00    +0.000 C 
ATOM      4  O   UNL     1       1.695   9.326  22.378  0.00  0.00    +0.000 OA
ATOM      5  O   UNL     1       0.638  11.067  21.532  0.00  0.00    +0.000 OA
ATOM      6  C   UNL     1      -0.022  11.194  20.341  0.00  0.00    +0.000 C 
ENDROOT
BRANCH   1  10
ATOM      7  C   UNL     1      -3.927  11.310  18.270  0.00  0.00    +0.000 A 
ATOM      8  C   UNL     1      -3.201  12.020  19.203  0.00  0.00    +0.000 A 
ATOM      9  C   UNL     1      -1.806  12.028  19.110  0.00  0.00    +0.000 A 
ATOM     10  C   UNL     1      -1.106  10.937  18.465  0.00  0.00    +0.000 A 
ATOM     11  C   UNL     1      -1.868  10.253  17.484  0.00  0.00    +0.000 A 
ATOM     12  C   UNL     1      -3.271  10.462  17.371  0.00  0.00    +0.000 A 
BRANCH   7  14
ATOM     13  C   UNL     1      -5.780  12.794  19.587  0.00  0.00    +0.000 C 
ATOM     14  S   UNL     1      -5.625  11.807  18.102  0.00  0.00    +0.000 S 
ATOM     15  O   UNL     1      -6.452  10.624  18.245  0.00  0.00    +0.000 OA
ATOM     16  O   UNL     1      -5.732  12.682  16.954  0.00  0.00    +0.000 OA
ENDBRANCH   7  14
ENDBRANCH   1  10
BRANCH   2  17
ATOM     17  C   UNL     1       1.751   8.137  19.795  0.00  0.00    +0.000 A 
ATOM     18  C   UNL     1       1.615   6.972  20.565  0.00  0.00    +0.000 A 
ATOM     19  C   UNL     1       2.210   5.767  20.156  0.00  0.00    +0.000 A 
ATOM     20  C   UNL     1       2.889   5.692  18.932  0.00  0.00    +0.000 A 
ATOM     21  C   UNL     1       2.967   6.808  18.104  0.00  0.00    +0.000 A 
ATOM     22  C   UNL     1       2.406   8.012  18.540  0.00  0.00    +0.000 A 
BRANCH  20  23
ATOM     23  S   UNL     1       3.583   4.125  18.434  0.00  0.00    +0.000 S 
ATOM     24  O   UNL     1       2.625   3.123  18.861  0.00  0.00    +0.000 OA
ATOM     25  O   UNL     1       3.924   4.276  17.034  0.00  0.00    +0.000 OA
BRANCH  23  26
ATOM     26  N   UNL     1       4.944   3.956  19.290  0.00  0.00    +0.000 NA
ATOM     27  N   UNL     1       4.926   2.865  19.868  0.00  0.00    +0.000 NA
ATOM     28  N   UNL     1       4.938   1.868  20.427  0.00  0.00    +0.000 NA
ENDBRANCH  23  26
ENDBRANCH  20  23
ENDBRANCH   2  17
TORSDOF 5
ENDMDL
MODEL 2
REMARK VINA RESULT:      -8.6      1.083      1.225
REMARK  Name = 
REMARK  6 active torsions:
REMARK  status: ('A' for Active; 'I' for Inactive)
REMARK    1  A    between atoms: C_1  and  S_2
REMARK    2  A    between atoms: S_2  and  C_5
REMARK    3  A    between atoms: C_8  and  C_9
REMARK    4  A    between atoms: C_10  and  C_11
REMARK    5  A    between atoms: C_14  and  S_15
REMARK    6  A    between atoms: S_15  and  N_18
REMARK                            x       y       z     vdW  Elec       q    Type
REMARK                         _______ _______ _______ _____ _____    ______ ____
ROOT
ATOM      1  C   UNL     1       0.028   9.954  19.397  0.00  0.00    +0.000 C 
ATOM      2  C   UNL     1       0.927   9.242  20.166  0.00  0.00    +0.000 C 
ATOM      3  C   UNL     1       1.186   9.810  21.548  0.00  0.00    +0.000 C 
ATOM      4  O   UNL     1       1.737   9.284  22.498  0.00  0.00    +0.000 OA
ATOM      5  O   UNL     1       0.734  11.031  21.600  0.00  0.00    +0.000 OA
ATOM      6  C   UNL     1       0.070  11.140  20.410  0.00  0.00    +0.000 C 
ENDROOT
BRANCH   1  10
ATOM      7  C   UNL     1      -3.830  11.435  18.463  0.00  0.00    +0.000 A 
ATOM      8  C   UNL     1      -3.002  12.163  19.291  0.00  0.00    +0.000 A 
ATOM      9  C   UNL     1      -1.618  12.053  19.129  0.00  0.00    +0.000 A 
ATOM     10  C   UNL     1      -1.038  10.857  18.552  0.00  0.00    +0.000 A 
ATOM     11  C   UNL     1      -1.903  10.154  17.675  0.00  0.00    +0.000 A 
ATOM     12  C   UNL     1      -3.291  10.464  17.614  0.00  0.00    +0.000 A 
BRANCH   7  14
ATOM     13  C   UNL     1      -6.383  10.524  18.622  0.00  0.00    +0.000 C 
ATOM     14  S   UNL     1      -5.493  12.049  18.336  0.00  0.00    +0.000 S 
ATOM     15  O   UNL     1      -5.712  12.462  16.962  0.00  0.00    +0.000 OA
ATOM     16  O   UNL     1      -5.736  12.941  19.450  0.00  0.00    +0.000 OA
ENDBRANCH   7  14
ENDBRANCH   1  10
BRANCH   2  17
ATOM     17  C   UNL     1       1.730   8.006  19.956  0.00  0.00    +0.000 A 
ATOM     18  C   UNL     1       1.520   6.855  20.730  0.00  0.00    +0.000 A 
ATOM     19  C   UNL     1       2.077   5.622  20.348  0.00  0.00    +0.000 A 
ATOM     20  C   UNL     1       2.790   5.509  19.147  0.00  0.00    +0.000 A 
ATOM     21  C   UNL     1       2.941   6.613  18.314  0.00  0.00    +0.000 A 
ATOM     22  C   UNL     1       2.418   7.843  18.724  0.00  0.00    +0.000 A 
BRANCH  20  23
ATOM     23  S   UNL     1       3.432   3.909  18.682  0.00  0.00    +0.000 S 
ATOM     24  O   UNL     1       3.585   3.177  19.924  0.00  0.00    +0.000 OA
ATOM     25  O   UNL     1       2.552   3.424  17.638  0.00  0.00    +0.000 OA
BRANCH  23  26
ATOM     26  N   UNL     1       4.892   4.190  18.047  0.00  0.00    +0.000 NA
ATOM     27  N   UNL     1       5.660   4.553  18.943  0.00  0.00    +0.000 NA
ATOM     28  N   UNL     1       6.395   4.902  19.745  0.00  0.00    +0.000 NA
ENDBRANCH  23  26
ENDBRANCH  20  23
ENDBRANCH   2  17
TORSDOF 5
ENDMDL
MODEL 3
REMARK VINA RESULT:      -8.5      0.924      1.049
REMARK  Name = 
REMARK  6 active torsions:
REMARK  status: ('A' for Active; 'I' for Inactive)
REMARK    1  A    between atoms: C_1  and  S_2
REMARK    2  A    between atoms: S_2  and  C_5
REMARK    3  A    between atoms: C_8  and  C_9
REMARK    4  A    between atoms: C_10  and  C_11
REMARK    5  A    between atoms: C_14  and  S_15
REMARK    6  A    between atoms: S_15  and  N_18
REMARK                            x       y       z     vdW  Elec       q    Type
REMARK                         _______ _______ _______ _____ _____    ______ ____
ROOT
ATOM      1  C   UNL     1      -0.048  10.010  19.419  0.00  0.00    +0.000 C 
ATOM      2  C   UNL     1       0.853   9.294  20.183  0.00  0.00    +0.000 C 
ATOM      3  C   UNL     1       1.097   9.843  21.576  0.00  0.00    +0.000 C 
ATOM      4  O   UNL     1       1.646   9.307  22.521  0.00  0.00    +0.000 OA
ATOM      5  O   UNL     1       0.631  11.058  21.644  0.00  0.00    +0.000 OA
ATOM      6  C   UNL     1      -0.026  11.180  20.451  0.00  0.00    +0.000 C 
ENDROOT
BRANCH   1  10
ATOM      7  C   UNL     1      -3.912  11.483  18.496  0.00  0.00    +0.000 A 
ATOM      8  C   UNL     1      -3.087  12.208  19.330  0.00  0.00    +0.000 A 
ATOM      9  C   UNL     1      -1.703  12.104  19.168  0.00  0.00    +0.000 A 
ATOM     10  C   UNL     1      -1.118  10.916  18.581  0.00  0.00    +0.000 A 
ATOM     11  C   UNL     1      -1.979  10.216  17.698  0.00  0.00    +0.000 A 
ATOM     12  C   UNL     1      -3.369  10.521  17.639  0.00  0.00    +0.000 A 
BRANCH   7  14
ATOM     13  C   UNL     1      -6.461  10.555  18.618  0.00  0.00    +0.000 C 
ATOM     14  S   UNL     1      -5.577  12.091  18.373  0.00  0.00    +0.000 S 
ATOM     15  O   UNL     1      -5.790  12.535  17.008  0.00  0.00    +0.000 OA
ATOM     16  O   UNL     1      -5.831  12.956  19.506  0.00  0.00    +0.000 OA
ENDBRANCH   7  14
ENDBRANCH   1  10
BRANCH   2  17
ATOM     17  C   UNL     1       1.670   8.071  19.959  0.00  0.00    +0.000 A 
ATOM     18  C   UNL     1       1.486   6.914  20.732  0.00  0.00    +0.000 A 
ATOM     19  C   UNL     1       2.055   5.690  20.339  0.00  0.00    +0.000 A 
ATOM     20  C   UNL     1       2.753   5.590  19.128  0.00  0.00    +0.000 A 
ATOM     21  C   UNL     1       2.878   6.698  18.297  0.00  0.00    +0.000 A 
ATOM     22  C   UNL     1       2.344   7.920  18.717  0.00  0.00    +0.000 A 
BRANCH  20  23
ATOM     23  S   UNL     1       3.411   4.001  18.651  0.00  0.00    +0.000 S 
ATOM     24  O   UNL     1       2.651   3.601  17.483  0.00  0.00    +0.000 OA
ATOM     25  O   UNL     1       4.847   4.179  18.577  0.00  0.00    +0.000 OA
BRANCH  23  26
ATOM     26  N   UNL     1       3.070   2.999  19.874  0.00  0.00    +0.000 NA
ATOM     27  N   UNL     1       4.095   2.392  20.197  0.00  0.00    +0.000 NA
ATOM     28  N   UNL     1       5.022   1.804  20.515  0.00  0.00    +0.000 NA
ENDBRANCH  23  26
ENDBRANCH  20  23
ENDBRANCH   2  17
TORSDOF 5
ENDMDL
MODEL 4
REMARK VINA RESULT:      -8.4      0.842      1.236
REMARK  Name = 
REMARK  6 active torsions:
REMARK  status: ('A' for Active; 'I' for Inactive)
REMARK    1  A    between atoms: C_1  and  S_2
REMARK    2  A    between atoms: S_2  and  C_5
REMARK    3  A    between atoms: C_8  and  C_9
REMARK    4  A    between atoms: C_10  and  C_11
REMARK    5  A    between atoms: C_14  and  S_15
REMARK    6  A    between atoms: S_15  and  N_18
REMARK                            x       y       z     vdW  Elec       q    Type
REMARK                         _______ _______ _______ _____ _____    ______ ____
ROOT
ATOM      1  C   UNL     1      -0.033   9.976  19.460  0.00  0.00    +0.000 C 
ATOM      2  C   UNL     1       0.900   9.252  20.178  0.00  0.00    +0.000 C 
ATOM      3  C   UNL     1       1.194   9.779  21.569  0.00  0.00    +0.000 C 
ATOM      4  O   UNL     1       1.781   9.230  22.484  0.00  0.00    +0.000 OA
ATOM      5  O   UNL     1       0.726  10.991  21.675  0.00  0.00    +0.000 OA
ATOM      6  C   UNL     1       0.024  11.128  20.510  0.00  0.00    +0.000 C 
ENDROOT
BRANCH   1  10
ATOM      7  C   UNL     1      -3.938  11.432  18.699  0.00  0.00    +0.000 A 
ATOM      8  C   UNL     1      -3.092  12.146  19.521  0.00  0.00    +0.000 A 
ATOM      9  C   UNL     1      -1.713  12.059  19.311  0.00  0.00    +0.000 A 
ATOM     10  C   UNL     1      -1.137  10.890  18.678  0.00  0.00    +0.000 A 
ATOM     11  C   UNL     1      -2.021  10.202  17.809  0.00  0.00    +0.000 A 
ATOM     12  C   UNL     1      -3.415  10.494  17.802  0.00  0.00    +0.000 A 
BRANCH   7  14
ATOM     13  C   UNL     1      -5.707  12.451  16.909  0.00  0.00    +0.000 C 
ATOM     14  S   UNL     1      -5.611  12.027  18.644  0.00  0.00    +0.000 S 
ATOM     15  O   UNL     1      -5.676  13.249  19.423  0.00  0.00    +0.000 OA
ATOM     16  O   UNL     1      -6.500  10.912  18.897  0.00  0.00    +0.000 OA
ENDBRANCH   7  14
ENDBRANCH   1  10
BRANCH   2  17
ATOM     17  C   UNL     1       1.714   8.037  19.902  0.00  0.00    +0.000 A 
ATOM     18  C   UNL     1       1.530   6.851  20.629  0.00  0.00    +0.000 A 
ATOM     19  C   UNL     1       2.095   5.643  20.186  0.00  0.00    +0.000 A 
ATOM     20  C   UNL     1       2.789   5.589  18.970  0.00  0.00    +0.000 A 
ATOM     21  C   UNL     1       2.913   6.730  18.183  0.00  0.00    +0.000 A 
ATOM     22  C   UNL     1       2.383   7.935  18.653  0.00  0.00    +0.000 A 
BRANCH  20  23
ATOM     23  S   UNL     1       3.441   4.019  18.427  0.00  0.00    +0.000 S 
ATOM     24  O   UNL     1       2.344   3.079  18.550  0.00  0.00    +0.000 OA
ATOM     25  O   UNL     1       4.058   4.276  17.141  0.00  0.00    +0.000 OA
BRANCH  23  26
ATOM     26  N   UNL     1       4.594   3.631  19.492  0.00  0.00    +0.000 NA
ATOM     27  N   UNL     1       5.539   4.417  19.370  0.00  0.00    +0.000 NA
ATOM     28  N   UNL     1       6.436   5.119  19.277  0.00  0.00    +0.000 NA
ENDBRANCH  23  26
ENDBRANCH  20  23
ENDBRANCH   2  17
TORSDOF 5
ENDMDL
MODEL 5
REMARK VINA RESULT:      -8.4      1.030      1.121
REMARK  Name = 
REMARK  6 active torsions:
REMARK  status: ('A' for Active; 'I' for Inactive)
REMARK    1  A    between atoms: C_1  and  S_2
REMARK    2  A    between atoms: S_2  and  C_5
REMARK    3  A    between atoms: C_8  and  C_9
REMARK    4  A    between atoms: C_10  and  C_11
REMARK    5  A    between atoms: C_14  and  S_15
REMARK    6  A    between atoms: S_15  and  N_18
REMARK                            x       y       z     vdW  Elec       q    Type
REMARK                         _______ _______ _______ _____ _____    ______ ____
ROOT
ATOM      1  C   UNL     1      -0.083  10.045  19.416  0.00  0.00    +0.000 C 
ATOM      2  C   UNL     1       0.813   9.350  20.205  0.00  0.00    +0.000 C 
ATOM      3  C   UNL     1       1.107   9.979  21.554  0.00  0.00    +0.000 C 
ATOM      4  O   UNL     1       1.661   9.487  22.519  0.00  0.00    +0.000 OA
ATOM      5  O   UNL     1       0.682  11.211  21.553  0.00  0.00    +0.000 OA
ATOM      6  C   UNL     1       0.001  11.277  20.369  0.00  0.00    +0.000 C 
ENDROOT
BRANCH   1  10
ATOM      7  C   UNL     1      -3.954  11.314  18.253  0.00  0.00    +0.000 A 
ATOM      8  C   UNL     1      -3.254  12.036  19.196  0.00  0.00    +0.000 A 
ATOM      9  C   UNL     1      -1.857  12.036  19.147  0.00  0.00    +0.000 A 
ATOM     10  C   UNL     1      -1.142  10.930  18.544  0.00  0.00    +0.000 A 
ATOM     11  C   UNL     1      -1.877  10.233  17.550  0.00  0.00    +0.000 A 
ATOM     12  C   UNL     1      -3.275  10.448  17.390  0.00  0.00    +0.000 A 
BRANCH   7  14
ATOM     13  C   UNL     1      -5.790  12.956  19.395  0.00  0.00    +0.000 C 
ATOM     14  S   UNL     1      -5.643  11.817  18.024  0.00  0.00    +0.000 S 
ATOM     15  O   UNL     1      -6.490  10.668  18.285  0.00  0.00    +0.000 OA
ATOM     16  O   UNL     1      -5.731  12.566  16.789  0.00  0.00    +0.000 OA
ENDBRANCH   7  14
ENDBRANCH   1  10
BRANCH   2  17
ATOM     17  C   UNL     1       1.586   8.089  20.043  0.00  0.00    +0.000 A 
ATOM     18  C   UNL     1       1.351   6.974  20.863  0.00  0.00    +0.000 A 
ATOM     19  C   UNL     1       1.877   5.714  20.530  0.00  0.00    +0.000 A 
ATOM     20  C   UNL     1       2.583   5.536  19.332  0.00  0.00    +0.000 A 
ATOM     21  C   UNL     1       2.758   6.602  18.455  0.00  0.00    +0.000 A 
ATOM     22  C   UNL     1       2.265   7.860  18.816  0.00  0.00    +0.000 A 
BRANCH  20  23
ATOM     23  S   UNL     1       3.185   3.904  18.931  0.00  0.00    +0.000 S 
ATOM     24  O   UNL     1       3.088   3.798  17.488  0.00  0.00    +0.000 OA
ATOM     25  O   UNL     1       4.465   3.785  19.600  0.00  0.00    +0.000 OA
BRANCH  23  26
ATOM     26  N   UNL     1       2.142   2.872  19.610  0.00  0.00    +0.000 NA
ATOM     27  N   UNL     1       2.452   2.704  20.794  0.00  0.00    +0.000 NA
ATOM     28  N   UNL     1       2.715   2.518  21.890  0.00  0.00    +0.000 NA
ENDBRANCH  23  26
ENDBRANCH  20  23
ENDBRANCH   2  17
TORSDOF 5
ENDMDL
MODEL 6
REMARK VINA RESULT:      -8.4      0.982      1.191
REMARK  Name = 
REMARK  6 active torsions:
REMARK  status: ('A' for Active; 'I' for Inactive)
REMARK    1  A    between atoms: C_1  and  S_2
REMARK    2  A    between atoms: S_2  and  C_5
REMARK    3  A    between atoms: C_8  and  C_9
REMARK    4  A    between atoms: C_10  and  C_11
REMARK    5  A    between atoms: C_14  and  S_15
REMARK    6  A    between atoms: S_15  and  N_18
REMARK                            x       y       z     vdW  Elec       q    Type
REMARK                         _______ _______ _______ _____ _____    ______ ____
ROOT
ATOM      1  C   UNL     1      -0.296  10.141  18.982  0.00  0.00    +0.000 C 
ATOM      2  C   UNL     1       0.719   9.575  19.728  0.00  0.00    +0.000 C 
ATOM      3  C   UNL     1       0.830  10.080  21.154  0.00  0.00    +0.000 C 
ATOM      4  O   UNL     1       1.462   9.609  22.082  0.00  0.00    +0.000 OA
ATOM      5  O   UNL     1       0.132  11.173  21.276  0.00  0.00    +0.000 OA
ATOM      6  C   UNL     1      -0.520  11.231  20.075  0.00  0.00    +0.000 C 
ENDROOT
BRANCH   1  10
ATOM      7  C   UNL     1      -4.348  11.152  18.272  0.00  0.00    +0.000 A 
ATOM      8  C   UNL     1      -3.541  12.022  18.974  0.00  0.00    +0.000 A 
ATOM      9  C   UNL     1      -2.170  12.037  18.705  0.00  0.00    +0.000 A 
ATOM     10  C   UNL     1      -1.512  10.865  18.167  0.00  0.00    +0.000 A 
ATOM     11  C   UNL     1      -2.362  10.012  17.417  0.00  0.00    +0.000 A 
ATOM     12  C   UNL     1      -3.776  10.176  17.451  0.00  0.00    +0.000 A 
BRANCH   7  14
ATOM     13  C   UNL     1      -6.133  12.613  19.705  0.00  0.00    +0.000 C 
ATOM     14  S   UNL     1      -6.071  11.586  18.241  0.00  0.00    +0.000 S 
ATOM     15  O   UNL     1      -6.839  10.380  18.489  0.00  0.00    +0.000 OA
ATOM     16  O   UNL     1      -6.311  12.419  17.082  0.00  0.00    +0.000 OA
ENDBRANCH   7  14
ENDBRANCH   1  10
BRANCH   2  17
ATOM     17  C   UNL     1       1.766   8.552  19.459  0.00  0.00    +0.000 A 
ATOM     18  C   UNL     1       1.828   7.356  20.190  0.00  0.00    +0.000 A 
ATOM     19  C   UNL     1       2.630   6.288  19.752  0.00  0.00    +0.000 A 
ATOM     20  C   UNL     1       3.324   6.375  18.538  0.00  0.00    +0.000 A 
ATOM     21  C   UNL     1       3.214   7.514  17.747  0.00  0.00    +0.000 A 
ATOM     22  C   UNL     1       2.446   8.586  18.212  0.00  0.00    +0.000 A 
BRANCH  20  23
ATOM     23  S   UNL     1       4.287   4.970  18.002  0.00  0.00    +0.000 S 
ATOM     24  O   UNL     1       3.370   3.847  18.001  0.00  0.00    +0.000 OA
ATOM     25  O   UNL     1       4.947   5.391  16.782  0.00  0.00    +0.000 OA
BRANCH  23  26
ATOM     26  N   UNL     1       5.404   4.742  19.148  0.00  0.00    +0.000 NA
ATOM     27  N   UNL     1       6.511   4.616  18.615  0.00  0.00    +0.000 NA
ATOM     28  N   UNL     1       7.549   4.484  18.156  0.00  0.00    +0.000 NA
ENDBRANCH  23  26
ENDBRANCH  20  23
ENDBRANCH   2  17
TORSDOF 5
ENDMDL
MODEL 7
REMARK VINA RESULT:      -8.3      1.618      1.883
REMARK  Name = 
REMARK  6 active torsions:
REMARK  status: ('A' for Active; 'I' for Inactive)
REMARK    1  A    between atoms: C_1  and  S_2
REMARK    2  A    between atoms: S_2  and  C_5
REMARK    3  A    between atoms: C_8  and  C_9
REMARK    4  A    between atoms: C_10  and  C_11
REMARK    5  A    between atoms: C_14  and  S_15
REMARK    6  A    between atoms: S_15  and  N_18
REMARK                            x       y       z     vdW  Elec       q    Type
REMARK                         _______ _______ _______ _____ _____    ______ ____
ROOT
ATOM      1  C   UNL     1      -0.134  10.258  19.662  0.00  0.00    +0.000 C 
ATOM      2  C   UNL     1       0.788   9.479  20.333  0.00  0.00    +0.000 C 
ATOM      3  C   UNL     1       1.121   9.940  21.739  0.00  0.00    +0.000 C 
ATOM      4  O   UNL     1       1.706   9.337  22.620  0.00  0.00    +0.000 OA
ATOM      5  O   UNL     1       0.692  11.160  21.902  0.00  0.00    +0.000 OA
ATOM      6  C   UNL     1      -0.025  11.365  20.756  0.00  0.00    +0.000 C 
ENDROOT
BRANCH   1  10
ATOM      7  C   UNL     1      -4.031  11.740  18.907  0.00  0.00    +0.000 A 
ATOM      8  C   UNL     1      -3.226  12.375  19.830  0.00  0.00    +0.000 A 
ATOM      9  C   UNL     1      -1.840  12.326  19.665  0.00  0.00    +0.000 A 
ATOM     10  C   UNL     1      -1.223  11.236  18.937  0.00  0.00    +0.000 A 
ATOM     11  C   UNL     1      -2.064  10.631  17.969  0.00  0.00    +0.000 A 
ATOM     12  C   UNL     1      -3.461  10.907  17.940  0.00  0.00    +0.000 A 
BRANCH   7  14
ATOM     13  C   UNL     1      -5.903  12.463  17.078  0.00  0.00    +0.000 C 
ATOM     14  S   UNL     1      -5.710  12.318  18.851  0.00  0.00    +0.000 S 
ATOM     15  O   UNL     1      -5.744  13.648  19.430  0.00  0.00    +0.000 OA
ATOM     16  O   UNL     1      -6.573  11.257  19.325  0.00  0.00    +0.000 OA
ENDBRANCH   7  14
ENDBRANCH   1  10
BRANCH   2  17
ATOM     17  C   UNL     1       1.560   8.252  19.994  0.00  0.00    +0.000 A 
ATOM     18  C   UNL     1       1.397   7.060  20.716  0.00  0.00    +0.000 A 
ATOM     19  C   UNL     1       1.910   5.848  20.225  0.00  0.00    +0.000 A 
ATOM     20  C   UNL     1       2.529   5.798  18.969  0.00  0.00    +0.000 A 
ATOM     21  C   UNL     1       2.629   6.946  18.190  0.00  0.00    +0.000 A 
ATOM     22  C   UNL     1       2.152   8.155  18.706  0.00  0.00    +0.000 A 
BRANCH  20  23
ATOM     23  S   UNL     1       3.118   4.223  18.369  0.00  0.00    +0.000 S 
ATOM     24  O   UNL     1       4.300   4.522  17.585  0.00  0.00    +0.000 OA
ATOM     25  O   UNL     1       3.199   3.366  19.536  0.00  0.00    +0.000 OA
BRANCH  23  26
ATOM     26  N   UNL     1       1.959   3.665  17.390  0.00  0.00    +0.000 NA
ATOM     27  N   UNL     1       1.162   2.989  18.050  0.00  0.00    +0.000 NA
ATOM     28  N   UNL     1       0.412   2.349  18.627  0.00  0.00    +0.000 NA
ENDBRANCH  23  26
ENDBRANCH  20  23
ENDBRANCH   2  17
TORSDOF 5
ENDMDL
MODEL 8
REMARK VINA RESULT:      -8.3      1.221      1.418
REMARK  Name = 
REMARK  6 active torsions:
REMARK  status: ('A' for Active; 'I' for Inactive)
REMARK    1  A    between atoms: C_1  and  S_2
REMARK    2  A    between atoms: S_2  and  C_5
REMARK    3  A    between atoms: C_8  and  C_9
REMARK    4  A    between atoms: C_10  and  C_11
REMARK    5  A    between atoms: C_14  and  S_15
REMARK    6  A    between atoms: S_15  and  N_18
REMARK                            x       y       z     vdW  Elec       q    Type
REMARK                         _______ _______ _______ _____ _____    ______ ____
ROOT
ATOM      1  C   UNL     1      -0.097  10.026  19.396  0.00  0.00    +0.000 C 
ATOM      2  C   UNL     1       0.804   9.340  20.185  0.00  0.00    +0.000 C 
ATOM      3  C   UNL     1       1.047   9.938  21.558  0.00  0.00    +0.000 C 
ATOM      4  O   UNL     1       1.595   9.438  22.522  0.00  0.00    +0.000 OA
ATOM      5  O   UNL     1       0.581  11.155  21.581  0.00  0.00    +0.000 OA
ATOM      6  C   UNL     1      -0.076  11.233  20.384  0.00  0.00    +0.000 C 
ENDROOT
BRANCH   1  10
ATOM      7  C   UNL     1      -3.979  11.321  18.298  0.00  0.00    +0.000 A 
ATOM      8  C   UNL     1      -3.241  12.062  19.197  0.00  0.00    +0.000 A 
ATOM      9  C   UNL     1      -1.847  12.037  19.111  0.00  0.00    +0.000 A 
ATOM     10  C   UNL     1      -1.166  10.901  18.524  0.00  0.00    +0.000 A 
ATOM     11  C   UNL     1      -1.939  10.185  17.574  0.00  0.00    +0.000 A 
ATOM     12  C   UNL     1      -3.338  10.417  17.445  0.00  0.00    +0.000 A 
BRANCH   7  14
ATOM     13  C   UNL     1      -5.811  12.894  19.540  0.00  0.00    +0.000 C 
ATOM     14  S   UNL     1      -5.665  11.844  18.098  0.00  0.00    +0.000 S 
ATOM     15  O   UNL     1      -6.517  10.685  18.282  0.00  0.00    +0.000 OA
ATOM     16  O   UNL     1      -5.748  12.673  16.914  0.00  0.00    +0.000 OA
ENDBRANCH   7  14
ENDBRANCH   1  10
BRANCH   2  17
ATOM     17  C   UNL     1       1.622   8.109  20.007  0.00  0.00    +0.000 A 
ATOM     18  C   UNL     1       1.427   6.975  20.810  0.00  0.00    +0.000 A 
ATOM     19  C   UNL     1       1.999   5.740  20.459  0.00  0.00    +0.000 A 
ATOM     20  C   UNL     1       2.712   5.605  19.260  0.00  0.00    +0.000 A 
ATOM     21  C   UNL     1       2.849   6.689  18.399  0.00  0.00    +0.000 A 
ATOM     22  C   UNL     1       2.311   7.923  18.778  0.00  0.00    +0.000 A 
BRANCH  20  23
ATOM     23  S   UNL     1       3.373   4.002  18.836  0.00  0.00    +0.000 S 
ATOM     24  O   UNL     1       4.774   4.049  19.207  0.00  0.00    +0.000 OA
ATOM     25  O   UNL     1       2.478   3.037  19.442  0.00  0.00    +0.000 OA
BRANCH  23  26
ATOM     26  N   UNL     1       3.253   3.889  17.228  0.00  0.00    +0.000 NA
ATOM     27  N   UNL     1       4.386   3.900  16.736  0.00  0.00    +0.000 NA
ATOM     28  N   UNL     1       5.418   3.919  16.245  0.00  0.00    +0.000 NA
ENDBRANCH  23  26
ENDBRANCH  20  23
ENDBRANCH   2  17
TORSDOF 5
ENDMDL
MODEL 9
REMARK VINA RESULT:      -8.1      4.151      5.069
REMARK  Name = 
REMARK  6 active torsions:
REMARK  status: ('A' for Active; 'I' for Inactive)
REMARK    1  A    between atoms: C_1  and  S_2
REMARK    2  A    between atoms: S_2  and  C_5
REMARK    3  A    between atoms: C_8  and  C_9
REMARK    4  A    between atoms: C_10  and  C_11
REMARK    5  A    between atoms: C_14  and  S_15
REMARK    6  A    between atoms: S_15  and  N_18
REMARK                            x       y       z     vdW  Elec       q    Type
REMARK                         _______ _______ _______ _____ _____    ______ ____
ROOT
ATOM      1  C   UNL     1       1.671   8.537  19.353  0.00  0.00    +0.000 C 
ATOM      2  C   UNL     1       2.184   7.263  19.493  0.00  0.00    +0.000 C 
ATOM      3  C   UNL     1       1.628   6.467  20.658  0.00  0.00    +0.000 C 
ATOM      4  O   UNL     1       1.723   5.274  20.881  0.00  0.00    +0.000 OA
ATOM      5  O   UNL     1       1.004   7.275  21.468  0.00  0.00    +0.000 OA
ATOM      6  C   UNL     1       1.003   8.445  20.760  0.00  0.00    +0.000 C 
ENDROOT
BRANCH   1  10
ATOM      7  C   UNL     1       1.431  12.663  20.287  0.00  0.00    +0.000 A 
ATOM      8  C   UNL     1       2.083  12.260  19.141  0.00  0.00    +0.000 A 
ATOM      9  C   UNL     1       1.674  11.082  18.510  0.00  0.00    +0.000 A 
ATOM     10  C   UNL     1       1.019  10.032  19.263  0.00  0.00    +0.000 A 
ATOM     11  C   UNL     1       0.325  10.486  20.414  0.00  0.00    +0.000 A 
ATOM     12  C   UNL     1       0.512  11.809  20.906  0.00  0.00    +0.000 A 
BRANCH   7  14
ATOM     13  C   UNL     1       3.053  14.761  19.707  0.00  0.00    +0.000 C 
ATOM     14  S   UNL     1       1.598  14.388  20.678  0.00  0.00    +0.000 S 
ATOM     15  O   UNL     1       1.940  14.495  22.084  0.00  0.00    +0.000 OA
ATOM     16  O   UNL     1       0.469  15.096  20.111  0.00  0.00    +0.000 OA
ENDBRANCH   7  14
ENDBRANCH   1  10
BRANCH   2  17
ATOM     17  C   UNL     1       3.188   6.455  18.748  0.00  0.00    +0.000 A 
ATOM     18  C   UNL     1       3.441   6.675  17.385  0.00  0.00    +0.000 A 
ATOM     19  C   UNL     1       4.569   6.111  16.765  0.00  0.00    +0.000 A 
ATOM     20  C   UNL     1       5.500   5.380  17.516  0.00  0.00    +0.000 A 
ATOM     21  C   UNL     1       5.322   5.218  18.886  0.00  0.00    +0.000 A 
ATOM     22  C   UNL     1       4.176   5.749  19.486  0.00  0.00    +0.000 A 
BRANCH  20  23
ATOM     23  S   UNL     1       6.942   4.729  16.690  0.00  0.00    +0.000 S 
ATOM     24  O   UNL     1       7.856   4.346  17.747  0.00  0.00    +0.000 OA
ATOM     25  O   UNL     1       6.442   3.747  15.749  0.00  0.00    +0.000 OA
BRANCH  23  26
ATOM     26  N   UNL     1       7.573   5.969  15.866  0.00  0.00    +0.000 NA
ATOM     27  N   UNL     1       7.669   6.946  16.615  0.00  0.00    +0.000 NA
ATOM     28  N   UNL     1       7.763   7.872  17.277  0.00  0.00    +0.000 NA
ENDBRANCH  23  26
ENDBRANCH  20  23
ENDBRANCH   2  17
TORSDOF 5
ENDMDL
