MODEL 1
REMARK VINA RESULT:      -7.6      0.000      0.000
REMARK  Name = 
REMARK  2 active torsions:
REMARK  status: ('A' for Active; 'I' for Inactive)
REMARK    1  A    between atoms: N_10  and  C_11
REMARK    2  A    between atoms: C_16  and  O_17
REMARK                            x       y       z     vdW  Elec       q    Type
REMARK                         _______ _______ _______ _____ _____    ______ ____
ROOT
ATOM      1  N   UNL     1       4.111   1.322  18.077  0.00  0.00    +0.000 N 
ATOM      2  C   UNL     1       3.558   2.462  18.542  0.00  0.00    +0.000 A 
ATOM      3  N   UNL     1       2.567   2.475  19.398  0.00  0.00    +0.000 NA
ATOM      4  C   UNL     1       2.366   3.787  19.708  0.00  0.00    +0.000 A 
ATOM      5  C   UNL     1       1.415   4.339  20.582  0.00  0.00    +0.000 A 
ATOM      6  C   UNL     1       1.373   5.724  20.758  0.00  0.00    +0.000 A 
ATOM      7  C   UNL     1       2.248   6.549  20.059  0.00  0.00    +0.000 A 
ATOM      8  C   UNL     1       3.186   6.018  19.165  0.00  0.00    +0.000 A 
ATOM      9  C   UNL     1       3.251   4.618  19.023  0.00  0.00    +0.000 A 
ATOM     10  N   UNL     1       4.017   3.749  18.234  0.00  0.00    +0.000 N 
ATOM     11  H   UNL     1       3.521   0.506  18.203  0.00  0.00    +0.000 HD
ATOM     12  H   UNL     1       4.487   1.369  17.130  0.00  0.00    +0.000 HD
ENDROOT
BRANCH  10  13
ATOM     13  C   UNL     1       5.058   4.132  17.323  0.00  0.00    +0.000 A 
ATOM     14  C   UNL     1       4.793   4.122  15.942  0.00  0.00    +0.000 A 
ATOM     15  C   UNL     1       5.796   4.419  15.015  0.00  0.00    +0.000 A 
ATOM     16  C   UNL     1       7.073   4.754  15.452  0.00  0.00    +0.000 A 
ATOM     17  C   UNL     1       7.346   4.800  16.817  0.00  0.00    +0.000 A 
ATOM     18  C   UNL     1       6.348   4.484  17.748  0.00  0.00    +0.000 A 
BRANCH  18  19
ATOM     19  O   UNL     1       6.695   4.481  19.071  0.00  0.00    +0.000 OA
ATOM     20  H   UNL     1       6.127   5.111  19.549  0.00  0.00    +0.000 HD
ENDBRANCH  18  19
ENDBRANCH  10  13
TORSDOF 2
ENDMDL
MODEL 2
REMARK VINA RESULT:      -7.5      1.831      5.384
REMARK  Name = 
REMARK  2 active torsions:
REMARK  status: ('A' for Active; 'I' for Inactive)
REMARK    1  A    between atoms: N_10  and  C_11
REMARK    2  A    between atoms: C_16  and  O_17
REMARK                            x       y       z     vdW  Elec       q    Type
REMARK                         _______ _______ _______ _____ _____    ______ ____
ROOT
ATOM      1  N   UNL     1       7.294   5.363  19.872  0.00  0.00    +0.000 N 
ATOM      2  C   UNL     1       6.897   5.172  18.596  0.00  0.00    +0.000 A 
ATOM      3  N   UNL     1       7.701   5.313  17.572  0.00  0.00    +0.000 NA
ATOM      4  C   UNL     1       6.978   4.931  16.482  0.00  0.00    +0.000 A 
ATOM      5  C   UNL     1       7.382   4.899  15.137  0.00  0.00    +0.000 A 
ATOM      6  C   UNL     1       6.476   4.472  14.162  0.00  0.00    +0.000 A 
ATOM      7  C   UNL     1       5.182   4.104  14.517  0.00  0.00    +0.000 A 
ATOM      8  C   UNL     1       4.755   4.153  15.850  0.00  0.00    +0.000 A 
ATOM      9  C   UNL     1       5.685   4.544  16.833  0.00  0.00    +0.000 A 
ATOM     10  N   UNL     1       5.622   4.730  18.220  0.00  0.00    +0.000 N 
ATOM     11  H   UNL     1       8.150   5.902  19.953  0.00  0.00    +0.000 HD
ATOM     12  H   UNL     1       6.575   5.705  20.510  0.00  0.00    +0.000 HD
ENDROOT
BRANCH  10  13
ATOM     13  C   UNL     1       4.477   4.491  19.053  0.00  0.00    +0.000 A 
ATOM     14  C   UNL     1       3.589   5.551  19.310  0.00  0.00    +0.000 A 
ATOM     15  C   UNL     1       2.501   5.384  20.172  0.00  0.00    +0.000 A 
ATOM     16  C   UNL     1       2.268   4.151  20.771  0.00  0.00    +0.000 A 
ATOM     17  C   UNL     1       3.119   3.081  20.503  0.00  0.00    +0.000 A 
ATOM     18  C   UNL     1       4.221   3.250  19.656  0.00  0.00    +0.000 A 
BRANCH  18  19
ATOM     19  O   UNL     1       5.059   2.182  19.485  0.00  0.00    +0.000 OA
ATOM     20  H   UNL     1       5.640   2.354  18.723  0.00  0.00    +0.000 HD
ENDBRANCH  18  19
ENDBRANCH  10  13
TORSDOF 2
ENDMDL
MODEL 3
REMARK VINA RESULT:      -7.5      2.458      5.637
REMARK  Name = 
REMARK  2 active torsions:
REMARK  status: ('A' for Active; 'I' for Inactive)
REMARK    1  A    between atoms: N_10  and  C_11
REMARK    2  A    between atoms: C_16  and  O_17
REMARK                            x       y       z     vdW  Elec       q    Type
REMARK                         _______ _______ _______ _____ _____    ______ ____
ROOT
ATOM      1  N   UNL     1       2.232   7.714  19.204  0.00  0.00    +0.000 N 
ATOM      2  C   UNL     1       2.974   6.970  18.357  0.00  0.00    +0.000 A 
ATOM      3  N   UNL     1       3.735   7.494  17.428  0.00  0.00    +0.000 NA
ATOM      4  C   UNL     1       4.400   6.447  16.864  0.00  0.00    +0.000 A 
ATOM      5  C   UNL     1       5.337   6.474  15.818  0.00  0.00    +0.000 A 
ATOM      6  C   UNL     1       5.907   5.275  15.380  0.00  0.00    +0.000 A 
ATOM      7  C   UNL     1       5.534   4.067  15.960  0.00  0.00    +0.000 A 
ATOM      8  C   UNL     1       4.583   4.019  16.988  0.00  0.00    +0.000 A 
ATOM      9  C   UNL     1       4.043   5.234  17.452  0.00  0.00    +0.000 A 
ATOM     10  N   UNL     1       3.084   5.574  18.415  0.00  0.00    +0.000 N 
ATOM     11  H   UNL     1       2.079   8.663  18.880  0.00  0.00    +0.000 HD
ATOM     12  H   UNL     1       1.366   7.283  19.525  0.00  0.00    +0.000 HD
ENDROOT
BRANCH  10  13
ATOM     13  C   UNL     1       2.391   4.659  19.276  0.00  0.00    +0.000 A 
ATOM     14  C   UNL     1       2.745   4.601  20.636  0.00  0.00    +0.000 A 
ATOM     15  C   UNL     1       2.146   3.676  21.496  0.00  0.00    +0.000 A 
ATOM     16  C   UNL     1       1.168   2.811  21.019  0.00  0.00    +0.000 A 
ATOM     17  C   UNL     1       0.781   2.876  19.683  0.00  0.00    +0.000 A 
ATOM     18  C   UNL     1       1.393   3.787  18.813  0.00  0.00    +0.000 A 
BRANCH  18  19
ATOM     19  O   UNL     1       1.019   3.757  17.498  0.00  0.00    +0.000 OA
ATOM     20  H   UNL     1       0.729   4.647  17.230  0.00  0.00    +0.000 HD
ENDBRANCH  18  19
ENDBRANCH  10  13
TORSDOF 2
ENDMDL
MODEL 4
REMARK VINA RESULT:      -7.4      1.894      2.534
REMARK  Name = 
REMARK  2 active torsions:
REMARK  status: ('A' for Active; 'I' for Inactive)
REMARK    1  A    between atoms: N_10  and  C_11
REMARK    2  A    between atoms: C_16  and  O_17
REMARK                            x       y       z     vdW  Elec       q    Type
REMARK                         _______ _______ _______ _____ _____    ______ ____
ROOT
ATOM      1  N   UNL     1       5.226   2.965  16.362  0.00  0.00    +0.000 N 
ATOM      2  C   UNL     1       4.351   3.449  17.268  0.00  0.00    +0.000 A 
ATOM      3  N   UNL     1       3.199   2.879  17.521  0.00  0.00    +0.000 NA
ATOM      4  C   UNL     1       2.659   3.584  18.555  0.00  0.00    +0.000 A 
ATOM      5  C   UNL     1       1.428   3.377  19.200  0.00  0.00    +0.000 A 
ATOM      6  C   UNL     1       1.056   4.223  20.248  0.00  0.00    +0.000 A 
ATOM      7  C   UNL     1       1.886   5.271  20.634  0.00  0.00    +0.000 A 
ATOM      8  C   UNL     1       3.105   5.507  19.986  0.00  0.00    +0.000 A 
ATOM      9  C   UNL     1       3.493   4.626  18.958  0.00  0.00    +0.000 A 
ATOM     10  N   UNL     1       4.593   4.555  18.093  0.00  0.00    +0.000 N 
ATOM     11  H   UNL     1       4.807   2.322  15.699  0.00  0.00    +0.000 HD
ATOM     12  H   UNL     1       5.806   3.661  15.895  0.00  0.00    +0.000 HD
ENDROOT
BRANCH  10  13
ATOM     13  C   UNL     1       5.724   5.439  18.092  0.00  0.00    +0.000 A 
ATOM     14  C   UNL     1       6.753   5.230  19.027  0.00  0.00    +0.000 A 
ATOM     15  C   UNL     1       7.839   6.107  19.110  0.00  0.00    +0.000 A 
ATOM     16  C   UNL     1       7.927   7.192  18.244  0.00  0.00    +0.000 A 
ATOM     17  C   UNL     1       6.933   7.397  17.290  0.00  0.00    +0.000 A 
ATOM     18  C   UNL     1       5.834   6.532  17.218  0.00  0.00    +0.000 A 
BRANCH  18  19
ATOM     19  O   UNL     1       4.857   6.823  16.306  0.00  0.00    +0.000 OA
ATOM     20  H   UNL     1       3.996   6.549  16.666  0.00  0.00    +0.000 HD
ENDBRANCH  18  19
ENDBRANCH  10  13
TORSDOF 2
ENDMDL
MODEL 5
REMARK VINA RESULT:      -7.3      1.579      2.592
REMARK  Name = 
REMARK  2 active torsions:
REMARK  status: ('A' for Active; 'I' for Inactive)
REMARK    1  A    between atoms: N_10  and  C_11
REMARK    2  A    between atoms: C_16  and  O_17
REMARK                            x       y       z     vdW  Elec       q    Type
REMARK                         _______ _______ _______ _____ _____    ______ ____
ROOT
ATOM      1  N   UNL     1       3.402   7.576  17.801  0.00  0.00    +0.000 N 
ATOM      2  C   UNL     1       3.129   6.469  18.525  0.00  0.00    +0.000 A 
ATOM      3  N   UNL     1       2.086   6.371  19.311  0.00  0.00    +0.000 NA
ATOM      4  C   UNL     1       2.092   5.089  19.772  0.00  0.00    +0.000 A 
ATOM      5  C   UNL     1       1.184   4.476  20.651  0.00  0.00    +0.000 A 
ATOM      6  C   UNL     1       1.374   3.137  21.004  0.00  0.00    +0.000 A 
ATOM      7  C   UNL     1       2.461   2.426  20.508  0.00  0.00    +0.000 A 
ATOM      8  C   UNL     1       3.391   3.028  19.650  0.00  0.00    +0.000 A 
ATOM      9  C   UNL     1       3.171   4.366  19.265  0.00  0.00    +0.000 A 
ATOM     10  N   UNL     1       3.870   5.281  18.467  0.00  0.00    +0.000 N 
ATOM     11  H   UNL     1       2.922   8.405  18.134  0.00  0.00    +0.000 HD
ATOM     12  H   UNL     1       4.391   7.758  17.631  0.00  0.00    +0.000 HD
ENDROOT
BRANCH  10  13
ATOM     13  C   UNL     1       5.080   5.018  17.742  0.00  0.00    +0.000 A 
ATOM     14  C   UNL     1       5.004   4.744  16.365  0.00  0.00    +0.000 A 
ATOM     15  C   UNL     1       6.148   4.413  15.633  0.00  0.00    +0.000 A 
ATOM     16  C   UNL     1       7.389   4.373  16.258  0.00  0.00    +0.000 A 
ATOM     17  C   UNL     1       7.489   4.673  17.614  0.00  0.00    +0.000 A 
ATOM     18  C   UNL     1       6.342   4.986  18.355  0.00  0.00    +0.000 A 
BRANCH  18  19
ATOM     19  O   UNL     1       6.495   5.204  19.697  0.00  0.00    +0.000 OA
ATOM     20  H   UNL     1       7.437   5.360  19.888  0.00  0.00    +0.000 HD
ENDBRANCH  18  19
ENDBRANCH  10  13
TORSDOF 2
ENDMDL
MODEL 6
REMARK VINA RESULT:      -7.2      2.084      5.370
REMARK  Name = 
REMARK  2 active torsions:
REMARK  status: ('A' for Active; 'I' for Inactive)
REMARK    1  A    between atoms: N_10  and  C_11
REMARK    2  A    between atoms: C_16  and  O_17
REMARK                            x       y       z     vdW  Elec       q    Type
REMARK                         _______ _______ _______ _____ _____    ______ ____
ROOT
ATOM      1  N   UNL     1       6.252   5.060  19.587  0.00  0.00    +0.000 N 
ATOM      2  C   UNL     1       6.210   4.931  18.244  0.00  0.00    +0.000 A 
ATOM      3  N   UNL     1       7.189   5.312  17.461  0.00  0.00    +0.000 NA
ATOM      4  C   UNL     1       6.830   4.920  16.207  0.00  0.00    +0.000 A 
ATOM      5  C   UNL     1       7.537   5.093  15.005  0.00  0.00    +0.000 A 
ATOM      6  C   UNL     1       6.985   4.615  13.813  0.00  0.00    +0.000 A 
ATOM      7  C   UNL     1       5.741   3.993  13.814  0.00  0.00    +0.000 A 
ATOM      8  C   UNL     1       5.011   3.833  14.999  0.00  0.00    +0.000 A 
ATOM      9  C   UNL     1       5.591   4.281  16.203  0.00  0.00    +0.000 A 
ATOM     10  N   UNL     1       5.170   4.313  17.538  0.00  0.00    +0.000 N 
ATOM     11  H   UNL     1       6.945   5.729  19.907  0.00  0.00    +0.000 HD
ATOM     12  H   UNL     1       5.352   5.206  20.043  0.00  0.00    +0.000 HD
ENDROOT
BRANCH  10  13
ATOM     13  C   UNL     1       3.930   3.796  18.046  0.00  0.00    +0.000 A 
ATOM     14  C   UNL     1       2.725   4.399  17.644  0.00  0.00    +0.000 A 
ATOM     15  C   UNL     1       1.499   3.975  18.167  0.00  0.00    +0.000 A 
ATOM     16  C   UNL     1       1.456   2.928  19.080  0.00  0.00    +0.000 A 
ATOM     17  C   UNL     1       2.636   2.298  19.466  0.00  0.00    +0.000 A 
ATOM     18  C   UNL     1       3.867   2.733  18.959  0.00  0.00    +0.000 A 
BRANCH  18  19
ATOM     19  O   UNL     1       4.997   2.119  19.427  0.00  0.00    +0.000 OA
ATOM     20  H   UNL     1       5.669   2.112  18.722  0.00  0.00    +0.000 HD
ENDBRANCH  18  19
ENDBRANCH  10  13
TORSDOF 2
ENDMDL
MODEL 7
REMARK VINA RESULT:      -7.1      2.171      5.439
REMARK  Name = 
REMARK  2 active torsions:
REMARK  status: ('A' for Active; 'I' for Inactive)
REMARK    1  A    between atoms: N_10  and  C_11
REMARK    2  A    between atoms: C_16  and  O_17
REMARK                            x       y       z     vdW  Elec       q    Type
REMARK                         _______ _______ _______ _____ _____    ______ ____
ROOT
ATOM      1  N   UNL     1       2.425   7.559  18.686  0.00  0.00    +0.000 N 
ATOM      2  C   UNL     1       3.225   6.785  17.922  0.00  0.00    +0.000 A 
ATOM      3  N   UNL     1       4.124   7.277  17.106  0.00  0.00    +0.000 NA
ATOM      4  C   UNL     1       4.795   6.202  16.607  0.00  0.00    +0.000 A 
ATOM      5  C   UNL     1       5.856   6.189  15.686  0.00  0.00    +0.000 A 
ATOM      6  C   UNL     1       6.408   4.966  15.297  0.00  0.00    +0.000 A 
ATOM      7  C   UNL     1       5.899   3.773  15.801  0.00  0.00    +0.000 A 
ATOM      8  C   UNL     1       4.826   3.765  16.701  0.00  0.00    +0.000 A 
ATOM      9  C   UNL     1       4.301   5.004  17.120  0.00  0.00    +0.000 A 
ATOM     10  N   UNL     1       3.249   5.385  17.964  0.00  0.00    +0.000 N 
ATOM     11  H   UNL     1       2.366   8.520  18.365  0.00  0.00    +0.000 HD
ATOM     12  H   UNL     1       1.503   7.174  18.887  0.00  0.00    +0.000 HD
ENDROOT
BRANCH  10  13
ATOM     13  C   UNL     1       2.404   4.499  18.713  0.00  0.00    +0.000 A 
ATOM     14  C   UNL     1       1.652   3.530  18.024  0.00  0.00    +0.000 A 
ATOM     15  C   UNL     1       0.762   2.693  18.704  0.00  0.00    +0.000 A 
ATOM     16  C   UNL     1       0.627   2.794  20.084  0.00  0.00    +0.000 A 
ATOM     17  C   UNL     1       1.387   3.726  20.787  0.00  0.00    +0.000 A 
ATOM     18  C   UNL     1       2.264   4.579  20.107  0.00  0.00    +0.000 A 
BRANCH  18  19
ATOM     19  O   UNL     1       2.933   5.519  20.843  0.00  0.00    +0.000 OA
ATOM     20  H   UNL     1       2.293   6.170  21.181  0.00  0.00    +0.000 HD
ENDBRANCH  18  19
ENDBRANCH  10  13
TORSDOF 2
ENDMDL
MODEL 8
REMARK VINA RESULT:      -7.0      1.716      2.184
REMARK  Name = 
REMARK  2 active torsions:
REMARK  status: ('A' for Active; 'I' for Inactive)
REMARK    1  A    between atoms: N_10  and  C_11
REMARK    2  A    between atoms: C_16  and  O_17
REMARK                            x       y       z     vdW  Elec       q    Type
REMARK                         _______ _______ _______ _____ _____    ______ ____
ROOT
ATOM      1  N   UNL     1       5.383   3.198  16.389  0.00  0.00    +0.000 N 
ATOM      2  C   UNL     1       4.471   3.654  17.274  0.00  0.00    +0.000 A 
ATOM      3  N   UNL     1       3.350   3.027  17.528  0.00  0.00    +0.000 NA
ATOM      4  C   UNL     1       2.760   3.724  18.539  0.00  0.00    +0.000 A 
ATOM      5  C   UNL     1       1.535   3.464  19.176  0.00  0.00    +0.000 A 
ATOM      6  C   UNL     1       1.104   4.312  20.200  0.00  0.00    +0.000 A 
ATOM      7  C   UNL     1       1.870   5.413  20.570  0.00  0.00    +0.000 A 
ATOM      8  C   UNL     1       3.081   5.701  19.929  0.00  0.00    +0.000 A 
ATOM      9  C   UNL     1       3.530   4.820  18.926  0.00  0.00    +0.000 A 
ATOM     10  N   UNL     1       4.642   4.791  18.075  0.00  0.00    +0.000 N 
ATOM     11  H   UNL     1       5.008   2.518  15.737  0.00  0.00    +0.000 HD
ATOM     12  H   UNL     1       5.929   3.915  15.911  0.00  0.00    +0.000 HD
ENDROOT
BRANCH  10  13
ATOM     13  C   UNL     1       5.722   5.736  18.064  0.00  0.00    +0.000 A 
ATOM     14  C   UNL     1       5.730   6.751  17.091  0.00  0.00    +0.000 A 
ATOM     15  C   UNL     1       6.796   7.651  16.998  0.00  0.00    +0.000 A 
ATOM     16  C   UNL     1       7.859   7.567  17.890  0.00  0.00    +0.000 A 
ATOM     17  C   UNL     1       7.854   6.588  18.881  0.00  0.00    +0.000 A 
ATOM     18  C   UNL     1       6.797   5.673  18.965  0.00  0.00    +0.000 A 
BRANCH  18  19
ATOM     19  O   UNL     1       6.881   4.694  19.916  0.00  0.00    +0.000 OA
ATOM     20  H   UNL     1       6.819   3.824  19.482  0.00  0.00    +0.000 HD
ENDBRANCH  18  19
ENDBRANCH  10  13
TORSDOF 2
ENDMDL
MODEL 9
REMARK VINA RESULT:      -7.0      2.486      5.540
REMARK  Name = 
REMARK  2 active torsions:
REMARK  status: ('A' for Active; 'I' for Inactive)
REMARK    1  A    between atoms: N_10  and  C_11
REMARK    2  A    between atoms: C_16  and  O_17
REMARK                            x       y       z     vdW  Elec       q    Type
REMARK                         _______ _______ _______ _____ _____    ______ ____
ROOT
ATOM      1  N   UNL     1       1.871   7.501  18.171  0.00  0.00    +0.000 N 
ATOM      2  C   UNL     1       3.058   6.889  17.978  0.00  0.00    +0.000 A 
ATOM      3  N   UNL     1       4.045   7.441  17.316  0.00  0.00    +0.000 NA
ATOM      4  C   UNL     1       5.094   6.579  17.433  0.00  0.00    +0.000 A 
ATOM      5  C   UNL     1       6.387   6.705  16.901  0.00  0.00    +0.000 A 
ATOM      6  C   UNL     1       7.325   5.696  17.137  0.00  0.00    +0.000 A 
ATOM      7  C   UNL     1       6.973   4.569  17.873  0.00  0.00    +0.000 A 
ATOM      8  C   UNL     1       5.681   4.415  18.391  0.00  0.00    +0.000 A 
ATOM      9  C   UNL     1       4.754   5.454  18.184  0.00  0.00    +0.000 A 
ATOM     10  N   UNL     1       3.407   5.644  18.519  0.00  0.00    +0.000 N 
ATOM     11  H   UNL     1       1.702   8.267  17.527  0.00  0.00    +0.000 HD
ATOM     12  H   UNL     1       1.063   6.883  18.238  0.00  0.00    +0.000 HD
ENDROOT
BRANCH  10  13
ATOM     13  C   UNL     1       2.588   4.739  19.275  0.00  0.00    +0.000 A 
ATOM     14  C   UNL     1       2.734   4.694  20.673  0.00  0.00    +0.000 A 
ATOM     15  C   UNL     1       2.009   3.779  21.442  0.00  0.00    +0.000 A 
ATOM     16  C   UNL     1       1.111   2.911  20.831  0.00  0.00    +0.000 A 
ATOM     17  C   UNL     1       0.929   2.963  19.452  0.00  0.00    +0.000 A 
ATOM     18  C   UNL     1       1.668   3.865  18.676  0.00  0.00    +0.000 A 
BRANCH  18  19
ATOM     19  O   UNL     1       1.496   3.823  17.319  0.00  0.00    +0.000 OA
ATOM     20  H   UNL     1       1.784   2.953  16.990  0.00  0.00    +0.000 HD
ENDBRANCH  18  19
ENDBRANCH  10  13
TORSDOF 2
ENDMDL
