MODEL 1
REMARK VINA RESULT:      -7.5      0.000      0.000
REMARK  Name = 
REMARK  8 active torsions:
REMARK  status: ('A' for Active; 'I' for Inactive)
REMARK    1  A    between atoms: C_1  and  C_2
REMARK    2  A    between atoms: C_6  and  N_7
REMARK    3  A    between atoms: C_8  and  S_9
REMARK    4  A    between atoms: N_10  and  N_11
REMARK    5  A    between atoms: C_12  and  C_14
REMARK    6  A    between atoms: C_14  and  C_15
REMARK    7  A    between atoms: C_15  and  N_16
REMARK    8  A    between atoms: C_18  and  C_19
REMARK                            x       y       z     vdW  Elec       q    Type
REMARK                         _______ _______ _______ _____ _____    ______ ____
ROOT
ATOM      1  N   UNL     1       8.578   8.022  18.865  0.00  0.00    +0.000 N 
ATOM      2  C   UNL     1       7.684   7.239  18.169  0.00  0.00    +0.000 C 
ATOM      3  N   UNL     1       7.026   7.565  17.097  0.00  0.00    +0.000 NA
ATOM      4  H   UNL     1       8.936   7.621  19.721  0.00  0.00    +0.000 HD
ENDROOT
BRANCH   1  10
ATOM      5  C   UNL     1      10.886  12.152  20.361  0.00  0.00    +0.000 C 
ATOM      6  C   UNL     1       9.890  11.502  19.445  0.00  0.00    +0.000 A 
ATOM      7  C   UNL     1       9.253  12.197  18.418  0.00  0.00    +0.000 A 
ATOM      8  C   UNL     1       8.379  11.516  17.573  0.00  0.00    +0.000 A 
ATOM      9  C   UNL     1       8.168  10.140  17.728  0.00  0.00    +0.000 A 
ATOM     10  C   UNL     1       8.811   9.410  18.743  0.00  0.00    +0.000 A 
ATOM     11  C   UNL     1       9.632  10.133  19.615  0.00  0.00    +0.000 A 
ENDBRANCH   1  10
BRANCH   3  12
ATOM     12  N   UNL     1       6.132   6.678  16.571  0.00  0.00    +0.000 N 
ATOM     13  C   UNL     1       6.552   5.749  15.628  0.00  0.00    +0.000 C 
ATOM     14  O   UNL     1       7.654   5.722  15.101  0.00  0.00    +0.000 OA
ATOM     15  H   UNL     1       5.233   6.590  17.033  0.00  0.00    +0.000 HD
BRANCH  13  16
ATOM     16  C   UNL     1       5.467   4.743  15.296  0.00  0.00    +0.000 C 
BRANCH  16  17
ATOM     17  C   UNL     1       5.277   3.785  16.462  0.00  0.00    +0.000 C 
BRANCH  17  18
ATOM     18  N   UNL     1       3.985   3.918  17.111  0.00  0.00    +0.000 N 
ATOM     19  C   UNL     1       3.178   2.897  17.518  0.00  0.00    +0.000 A 
ATOM     20  C   UNL     1       2.100   3.472  18.154  0.00  0.00    +0.000 A 
ATOM     21  C   UNL     1       0.942   2.794  18.782  0.00  0.00    +0.000 C 
ATOM     22  C   UNL     1       2.363   4.859  18.081  0.00  0.00    +0.000 A 
ATOM     23  N   UNL     1       3.506   5.137  17.442  0.00  0.00    +0.000 NA
ENDBRANCH  17  18
ENDBRANCH  16  17
ENDBRANCH  13  16
ENDBRANCH   3  12
BRANCH   2  24
ATOM     24  S   UNL     1       7.502   5.614  18.873  0.00  0.00    +0.000 S 
ATOM     25  H   UNL     1       6.312   5.316  18.334  0.00  0.00    +0.000 HD
ENDBRANCH   2  24
TORSDOF 6
ENDMDL
MODEL 2
REMARK VINA RESULT:      -7.4      5.180      7.674
REMARK  Name = 
REMARK  8 active torsions:
REMARK  status: ('A' for Active; 'I' for Inactive)
REMARK    1  A    between atoms: C_1  and  C_2
REMARK    2  A    between atoms: C_6  and  N_7
REMARK    3  A    between atoms: C_8  and  S_9
REMARK    4  A    between atoms: N_10  and  N_11
REMARK    5  A    between atoms: C_12  and  C_14
REMARK    6  A    between atoms: C_14  and  C_15
REMARK    7  A    between atoms: C_15  and  N_16
REMARK    8  A    between atoms: C_18  and  C_19
REMARK                            x       y       z     vdW  Elec       q    Type
REMARK                         _______ _______ _______ _____ _____    ______ ____
ROOT
ATOM      1  N   UNL     1       3.796   4.523  18.834  0.00  0.00    +0.000 N 
ATOM      2  C   UNL     1       3.013   5.576  19.252  0.00  0.00    +0.000 C 
ATOM      3  N   UNL     1       3.021   6.791  18.789  0.00  0.00    +0.000 NA
ATOM      4  H   UNL     1       3.699   3.669  19.365  0.00  0.00    +0.000 HD
ENDROOT
BRANCH   1  10
ATOM      5  C   UNL     1       5.876   4.059  14.353  0.00  0.00    +0.000 C 
ATOM      6  C   UNL     1       6.046   4.311  15.823  0.00  0.00    +0.000 A 
ATOM      7  C   UNL     1       7.271   4.661  16.386  0.00  0.00    +0.000 A 
ATOM      8  C   UNL     1       7.343   4.931  17.752  0.00  0.00    +0.000 A 
ATOM      9  C   UNL     1       6.190   4.886  18.546  0.00  0.00    +0.000 A 
ATOM     10  C   UNL     1       4.938   4.553  18.002  0.00  0.00    +0.000 A 
ATOM     11  C   UNL     1       4.909   4.225  16.643  0.00  0.00    +0.000 A 
ENDBRANCH   1  10
BRANCH   3  12
ATOM     12  N   UNL     1       2.213   7.727  19.367  0.00  0.00    +0.000 N 
ATOM     13  C   UNL     1       1.764   8.808  18.620  0.00  0.00    +0.000 C 
ATOM     14  O   UNL     1       2.134   9.094  17.491  0.00  0.00    +0.000 OA
ATOM     15  H   UNL     1       1.799   7.498  20.264  0.00  0.00    +0.000 HD
BRANCH  13  16
ATOM     16  C   UNL     1       0.743   9.637  19.375  0.00  0.00    +0.000 C 
BRANCH  16  17
ATOM     17  C   UNL     1       0.256  10.781  18.499  0.00  0.00    +0.000 C 
BRANCH  17  18
ATOM     18  N   UNL     1      -1.142  10.666  18.127  0.00  0.00    +0.000 N 
ATOM     19  C   UNL     1      -2.164  11.447  18.579  0.00  0.00    +0.000 A 
ATOM     20  C   UNL     1      -3.298  11.047  17.908  0.00  0.00    +0.000 A 
ATOM     21  C   UNL     1      -4.673  11.585  18.034  0.00  0.00    +0.000 C 
ATOM     22  C   UNL     1      -2.842  10.011  17.060  0.00  0.00    +0.000 A 
ATOM     23  N   UNL     1      -1.533   9.771  17.193  0.00  0.00    +0.000 NA
ENDBRANCH  17  18
ENDBRANCH  16  17
ENDBRANCH  13  16
ENDBRANCH   3  12
BRANCH   2  24
ATOM     24  S   UNL     1       1.879   5.118  20.545  0.00  0.00    +0.000 S 
ATOM     25  H   UNL     1       0.820   5.815  20.112  0.00  0.00    +0.000 HD
ENDBRANCH   2  24
TORSDOF 6
ENDMDL
MODEL 3
REMARK VINA RESULT:      -7.4      1.891      8.562
REMARK  Name = 
REMARK  8 active torsions:
REMARK  status: ('A' for Active; 'I' for Inactive)
REMARK    1  A    between atoms: C_1  and  C_2
REMARK    2  A    between atoms: C_6  and  N_7
REMARK    3  A    between atoms: C_8  and  S_9
REMARK    4  A    between atoms: N_10  and  N_11
REMARK    5  A    between atoms: C_12  and  C_14
REMARK    6  A    between atoms: C_14  and  C_15
REMARK    7  A    between atoms: C_15  and  N_16
REMARK    8  A    between atoms: C_18  and  C_19
REMARK                            x       y       z     vdW  Elec       q    Type
REMARK                         _______ _______ _______ _____ _____    ______ ____
ROOT
ATOM      1  N   UNL     1       4.791   3.525  17.261  0.00  0.00    +0.000 N 
ATOM      2  C   UNL     1       5.560   4.659  17.119  0.00  0.00    +0.000 C 
ATOM      3  N   UNL     1       5.495   5.744  17.832  0.00  0.00    +0.000 NA
ATOM      4  H   UNL     1       4.936   2.809  16.563  0.00  0.00    +0.000 HD
ENDROOT
BRANCH   1  10
ATOM      5  C   UNL     1       2.562   2.649  21.607  0.00  0.00    +0.000 C 
ATOM      6  C   UNL     1       2.438   2.892  20.131  0.00  0.00    +0.000 A 
ATOM      7  C   UNL     1       1.206   3.042  19.497  0.00  0.00    +0.000 A 
ATOM      8  C   UNL     1       1.170   3.318  18.131  0.00  0.00    +0.000 A 
ATOM      9  C   UNL     1       2.358   3.479  17.407  0.00  0.00    +0.000 A 
ATOM     10  C   UNL     1       3.614   3.350  18.023  0.00  0.00    +0.000 A 
ATOM     11  C   UNL     1       3.619   3.010  19.380  0.00  0.00    +0.000 A 
ENDBRANCH   1  10
BRANCH   3  12
ATOM     12  N   UNL     1       6.299   6.799  17.511  0.00  0.00    +0.000 N 
ATOM     13  C   UNL     1       7.510   6.970  18.167  0.00  0.00    +0.000 C 
ATOM     14  O   UNL     1       7.893   6.324  19.132  0.00  0.00    +0.000 OA
ATOM     15  H   UNL     1       6.083   7.311  16.662  0.00  0.00    +0.000 HD
BRANCH  13  16
ATOM     16  C   UNL     1       8.337   8.084  17.556  0.00  0.00    +0.000 C 
BRANCH  16  17
ATOM     17  C   UNL     1       7.679   9.428  17.832  0.00  0.00    +0.000 C 
BRANCH  17  18
ATOM     18  N   UNL     1       8.613  10.443  18.286  0.00  0.00    +0.000 N 
ATOM     19  C   UNL     1       9.535  10.302  19.281  0.00  0.00    +0.000 A 
ATOM     20  C   UNL     1      10.258  11.474  19.321  0.00  0.00    +0.000 A 
ATOM     21  C   UNL     1      11.381  11.824  20.222  0.00  0.00    +0.000 C 
ATOM     22  C   UNL     1       9.688  12.259  18.293  0.00  0.00    +0.000 A 
ATOM     23  N   UNL     1       8.683  11.639  17.664  0.00  0.00    +0.000 NA
ENDBRANCH  17  18
ENDBRANCH  16  17
ENDBRANCH  13  16
ENDBRANCH   3  12
BRANCH   2  24
ATOM     24  S   UNL     1       6.762   4.515  15.814  0.00  0.00    +0.000 S 
ATOM     25  H   UNL     1       7.826   4.955  16.499  0.00  0.00    +0.000 HD
ENDBRANCH   2  24
TORSDOF 6
ENDMDL
MODEL 4
REMARK VINA RESULT:      -7.3      5.583      8.224
REMARK  Name = 
REMARK  8 active torsions:
REMARK  status: ('A' for Active; 'I' for Inactive)
REMARK    1  A    between atoms: C_1  and  C_2
REMARK    2  A    between atoms: C_6  and  N_7
REMARK    3  A    between atoms: C_8  and  S_9
REMARK    4  A    between atoms: N_10  and  N_11
REMARK    5  A    between atoms: C_12  and  C_14
REMARK    6  A    between atoms: C_14  and  C_15
REMARK    7  A    between atoms: C_15  and  N_16
REMARK    8  A    between atoms: C_18  and  C_19
REMARK                            x       y       z     vdW  Elec       q    Type
REMARK                         _______ _______ _______ _____ _____    ______ ____
ROOT
ATOM      1  N   UNL     1       3.400   3.753  18.742  0.00  0.00    +0.000 N 
ATOM      2  C   UNL     1       2.700   4.580  19.591  0.00  0.00    +0.000 C 
ATOM      3  N   UNL     1       2.830   5.868  19.715  0.00  0.00    +0.000 NA
ATOM      4  H   UNL     1       3.212   2.765  18.842  0.00  0.00    +0.000 HD
ENDROOT
BRANCH   1  10
ATOM      5  C   UNL     1       5.714   4.267  14.384  0.00  0.00    +0.000 C 
ATOM      6  C   UNL     1       5.790   4.285  15.882  0.00  0.00    +0.000 A 
ATOM      7  C   UNL     1       6.942   4.661  16.570  0.00  0.00    +0.000 A 
ATOM      8  C   UNL     1       6.923   4.703  17.963  0.00  0.00    +0.000 A 
ATOM      9  C   UNL     1       5.748   4.406  18.667  0.00  0.00    +0.000 A 
ATOM     10  C   UNL     1       4.567   4.040  17.999  0.00  0.00    +0.000 A 
ATOM     11  C   UNL     1       4.635   3.944  16.605  0.00  0.00    +0.000 A 
ENDBRANCH   1  10
BRANCH   3  12
ATOM     12  N   UNL     1       2.088   6.523  20.655  0.00  0.00    +0.000 N 
ATOM     13  C   UNL     1       1.575   7.783  20.376  0.00  0.00    +0.000 C 
ATOM     14  O   UNL     1       1.834   8.452  19.386  0.00  0.00    +0.000 OA
ATOM     15  H   UNL     1       1.763   5.986  21.452  0.00  0.00    +0.000 HD
BRANCH  13  16
ATOM     16  C   UNL     1       0.639   8.270  21.464  0.00  0.00    +0.000 C 
BRANCH  16  17
ATOM     17  C   UNL     1       1.087   9.637  21.959  0.00  0.00    +0.000 C 
BRANCH  17  18
ATOM     18  N   UNL     1       0.020  10.621  21.975  0.00  0.00    +0.000 N 
ATOM     19  C   UNL     1      -0.590  11.166  20.884  0.00  0.00    +0.000 A 
ATOM     20  C   UNL     1      -1.594  11.983  21.357  0.00  0.00    +0.000 A 
ATOM     21  C   UNL     1      -2.552  12.799  20.576  0.00  0.00    +0.000 C 
ATOM     22  C   UNL     1      -1.504  11.851  22.762  0.00  0.00    +0.000 A 
ATOM     23  N   UNL     1      -0.521  11.028  23.144  0.00  0.00    +0.000 NA
ENDBRANCH  17  18
ENDBRANCH  16  17
ENDBRANCH  13  16
ENDBRANCH   3  12
BRANCH   2  24
ATOM     24  S   UNL     1       1.488   3.706  20.558  0.00  0.00    +0.000 S 
ATOM     25  H   UNL     1       1.942   4.049  21.771  0.00  0.00    +0.000 HD
ENDBRANCH   2  24
TORSDOF 6
ENDMDL
MODEL 5
REMARK VINA RESULT:      -7.3      4.961      7.555
REMARK  Name = 
REMARK  8 active torsions:
REMARK  status: ('A' for Active; 'I' for Inactive)
REMARK    1  A    between atoms: C_1  and  C_2
REMARK    2  A    between atoms: C_6  and  N_7
REMARK    3  A    between atoms: C_8  and  S_9
REMARK    4  A    between atoms: N_10  and  N_11
REMARK    5  A    between atoms: C_12  and  C_14
REMARK    6  A    between atoms: C_14  and  C_15
REMARK    7  A    between atoms: C_15  and  N_16
REMARK    8  A    between atoms: C_18  and  C_19
REMARK                            x       y       z     vdW  Elec       q    Type
REMARK                         _______ _______ _______ _____ _____    ______ ____
ROOT
ATOM      1  N   UNL     1       3.949   4.251  18.927  0.00  0.00    +0.000 N 
ATOM      2  C   UNL     1       3.132   5.222  19.463  0.00  0.00    +0.000 C 
ATOM      3  N   UNL     1       3.001   6.449  19.056  0.00  0.00    +0.000 NA
ATOM      4  H   UNL     1       3.971   3.374  19.427  0.00  0.00    +0.000 HD
ENDROOT
BRANCH   1  10
ATOM      5  C   UNL     1       5.571   4.305  14.238  0.00  0.00    +0.000 C 
ATOM      6  C   UNL     1       5.884   4.418  15.702  0.00  0.00    +0.000 A 
ATOM      7  C   UNL     1       7.151   4.755  16.174  0.00  0.00    +0.000 A 
ATOM      8  C   UNL     1       7.355   4.892  17.546  0.00  0.00    +0.000 A 
ATOM      9  C   UNL     1       6.291   4.727  18.442  0.00  0.00    +0.000 A 
ATOM     10  C   UNL     1       4.999   4.404  17.993  0.00  0.00    +0.000 A 
ATOM     11  C   UNL     1       4.840   4.210  16.618  0.00  0.00    +0.000 A 
ENDBRANCH   1  10
BRANCH   3  12
ATOM     12  N   UNL     1       2.182   7.294  19.747  0.00  0.00    +0.000 N 
ATOM     13  C   UNL     1       1.851   8.530  19.209  0.00  0.00    +0.000 C 
ATOM     14  O   UNL     1       2.335   9.017  18.197  0.00  0.00    +0.000 OA
ATOM     15  H   UNL     1       1.679   6.913  20.541  0.00  0.00    +0.000 HD
BRANCH  13  16
ATOM     16  C   UNL     1       0.800   9.247  20.034  0.00  0.00    +0.000 C 
BRANCH  16  17
ATOM     17  C   UNL     1       0.579  10.649  19.484  0.00  0.00    +0.000 C 
BRANCH  17  18
ATOM     18  N   UNL     1      -0.647  10.779  18.718  0.00  0.00    +0.000 N 
ATOM     19  C   UNL     1      -1.009  10.024  17.641  0.00  0.00    +0.000 A 
ATOM     20  C   UNL     1      -2.275  10.429  17.280  0.00  0.00    +0.000 A 
ATOM     21  C   UNL     1      -3.117   9.916  16.174  0.00  0.00    +0.000 C 
ATOM     22  C   UNL     1      -2.589  11.438  18.218  0.00  0.00    +0.000 A 
ATOM     23  N   UNL     1      -1.601  11.660  19.092  0.00  0.00    +0.000 NA
ENDBRANCH  17  18
ENDBRANCH  16  17
ENDBRANCH  13  16
ENDBRANCH   3  12
BRANCH   2  24
ATOM     24  S   UNL     1       2.167   4.626  20.836  0.00  0.00    +0.000 S 
ATOM     25  H   UNL     1       1.630   3.558  20.230  0.00  0.00    +0.000 HD
ENDBRANCH   2  24
TORSDOF 6
ENDMDL
MODEL 6
REMARK VINA RESULT:      -7.2      1.886      8.652
REMARK  Name = 
REMARK  8 active torsions:
REMARK  status: ('A' for Active; 'I' for Inactive)
REMARK    1  A    between atoms: C_1  and  C_2
REMARK    2  A    between atoms: C_6  and  N_7
REMARK    3  A    between atoms: C_8  and  S_9
REMARK    4  A    between atoms: N_10  and  N_11
REMARK    5  A    between atoms: C_12  and  C_14
REMARK    6  A    between atoms: C_14  and  C_15
REMARK    7  A    between atoms: C_15  and  N_16
REMARK    8  A    between atoms: C_18  and  C_19
REMARK                            x       y       z     vdW  Elec       q    Type
REMARK                         _______ _______ _______ _____ _____    ______ ____
ROOT
ATOM      1  N   UNL     1       4.773   3.503  17.223  0.00  0.00    +0.000 N 
ATOM      2  C   UNL     1       5.851   4.353  17.335  0.00  0.00    +0.000 C 
ATOM      3  N   UNL     1       6.120   5.151  18.326  0.00  0.00    +0.000 NA
ATOM      4  H   UNL     1       4.692   3.014  16.343  0.00  0.00    +0.000 HD
ENDROOT
BRANCH   1  10
ATOM      5  C   UNL     1       2.518   2.663  21.562  0.00  0.00    +0.000 C 
ATOM      6  C   UNL     1       2.406   3.039  20.114  0.00  0.00    +0.000 A 
ATOM      7  C   UNL     1       1.203   3.439  19.534  0.00  0.00    +0.000 A 
ATOM      8  C   UNL     1       1.185   3.824  18.194  0.00  0.00    +0.000 A 
ATOM      9  C   UNL     1       2.369   3.844  17.445  0.00  0.00    +0.000 A 
ATOM     10  C   UNL     1       3.599   3.463  18.009  0.00  0.00    +0.000 A 
ATOM     11  C   UNL     1       3.575   3.021  19.335  0.00  0.00    +0.000 A 
ENDBRANCH   1  10
BRANCH   3  12
ATOM     12  N   UNL     1       7.208   5.970  18.241  0.00  0.00    +0.000 N 
ATOM     13  C   UNL     1       7.061   7.268  17.771  0.00  0.00    +0.000 C 
ATOM     14  O   UNL     1       6.042   7.736  17.285  0.00  0.00    +0.000 OA
ATOM     15  H   UNL     1       8.055   5.673  18.713  0.00  0.00    +0.000 HD
BRANCH  13  16
ATOM     16  C   UNL     1       8.337   8.075  17.916  0.00  0.00    +0.000 C 
BRANCH  16  17
ATOM     17  C   UNL     1       8.006   9.558  17.991  0.00  0.00    +0.000 C 
BRANCH  17  18
ATOM     18  N   UNL     1       9.067  10.355  18.577  0.00  0.00    +0.000 N 
ATOM     19  C   UNL     1       9.983  11.103  17.897  0.00  0.00    +0.000 A 
ATOM     20  C   UNL     1      10.743  11.756  18.842  0.00  0.00    +0.000 A 
ATOM     21  C   UNL     1      11.868  12.695  18.620  0.00  0.00    +0.000 C 
ATOM     22  C   UNL     1      10.192  11.332  20.073  0.00  0.00    +0.000 A 
ATOM     23  N   UNL     1       9.176  10.476  19.918  0.00  0.00    +0.000 NA
ENDBRANCH  17  18
ENDBRANCH  16  17
ENDBRANCH  13  16
ENDBRANCH   3  12
BRANCH   2  24
ATOM     24  S   UNL     1       6.951   4.254  15.939  0.00  0.00    +0.000 S 
ATOM     25  H   UNL     1       6.064   4.571  14.986  0.00  0.00    +0.000 HD
ENDBRANCH   2  24
TORSDOF 6
ENDMDL
MODEL 7
REMARK VINA RESULT:      -7.2      5.496      7.810
REMARK  Name = 
REMARK  8 active torsions:
REMARK  status: ('A' for Active; 'I' for Inactive)
REMARK    1  A    between atoms: C_1  and  C_2
REMARK    2  A    between atoms: C_6  and  N_7
REMARK    3  A    between atoms: C_8  and  S_9
REMARK    4  A    between atoms: N_10  and  N_11
REMARK    5  A    between atoms: C_12  and  C_14
REMARK    6  A    between atoms: C_14  and  C_15
REMARK    7  A    between atoms: C_15  and  N_16
REMARK    8  A    between atoms: C_18  and  C_19
REMARK                            x       y       z     vdW  Elec       q    Type
REMARK                         _______ _______ _______ _____ _____    ______ ____
ROOT
ATOM      1  N   UNL     1       3.800   5.041  18.697  0.00  0.00    +0.000 N 
ATOM      2  C   UNL     1       2.920   6.025  19.089  0.00  0.00    +0.000 C 
ATOM      3  N   UNL     1       2.752   7.191  18.538  0.00  0.00    +0.000 NA
ATOM      4  H   UNL     1       3.840   4.228  19.296  0.00  0.00    +0.000 HD
ENDROOT
BRANCH   1  10
ATOM      5  C   UNL     1       5.764   4.163  14.226  0.00  0.00    +0.000 C 
ATOM      6  C   UNL     1       5.932   4.713  15.612  0.00  0.00    +0.000 A 
ATOM      7  C   UNL     1       7.080   5.396  16.013  0.00  0.00    +0.000 A 
ATOM      8  C   UNL     1       7.145   5.925  17.301  0.00  0.00    +0.000 A 
ATOM      9  C   UNL     1       6.056   5.805  18.174  0.00  0.00    +0.000 A 
ATOM     10  C   UNL     1       4.880   5.137  17.791  0.00  0.00    +0.000 A 
ATOM     11  C   UNL     1       4.869   4.561  16.517  0.00  0.00    +0.000 A 
ENDBRANCH   1  10
BRANCH   3  12
ATOM     12  N   UNL     1       1.870   8.069  19.098  0.00  0.00    +0.000 N 
ATOM     13  C   UNL     1       1.551   9.246  18.435  0.00  0.00    +0.000 C 
ATOM     14  O   UNL     1       2.094   9.660  17.421  0.00  0.00    +0.000 OA
ATOM     15  H   UNL     1       1.319   7.741  19.884  0.00  0.00    +0.000 HD
BRANCH  13  16
ATOM     16  C   UNL     1       0.429  10.001  19.122  0.00  0.00    +0.000 C 
BRANCH  16  17
ATOM     17  C   UNL     1       0.995  10.859  20.244  0.00  0.00    +0.000 C 
BRANCH  17  18
ATOM     18  N   UNL     1       0.118  10.949  21.397  0.00  0.00    +0.000 N 
ATOM     19  C   UNL     1      -0.949  11.787  21.535  0.00  0.00    +0.000 A 
ATOM     20  C   UNL     1      -1.542  11.479  22.740  0.00  0.00    +0.000 A 
ATOM     21  C   UNL     1      -2.740  12.099  23.353  0.00  0.00    +0.000 C 
ATOM     22  C   UNL     1      -0.748  10.426  23.250  0.00  0.00    +0.000 A 
ATOM     23  N   UNL     1       0.267  10.103  22.440  0.00  0.00    +0.000 NA
ENDBRANCH  17  18
ENDBRANCH  16  17
ENDBRANCH  13  16
ENDBRANCH   3  12
BRANCH   2  24
ATOM     24  S   UNL     1       1.927   5.542  20.485  0.00  0.00    +0.000 S 
ATOM     25  H   UNL     1       1.273   4.529  19.901  0.00  0.00    +0.000 HD
ENDBRANCH   2  24
TORSDOF 6
ENDMDL
MODEL 8
REMARK VINA RESULT:      -7.1      5.046      7.143
REMARK  Name = 
REMARK  8 active torsions:
REMARK  status: ('A' for Active; 'I' for Inactive)
REMARK    1  A    between atoms: C_1  and  C_2
REMARK    2  A    between atoms: C_6  and  N_7
REMARK    3  A    between atoms: C_8  and  S_9
REMARK    4  A    between atoms: N_10  and  N_11
REMARK    5  A    between atoms: C_12  and  C_14
REMARK    6  A    between atoms: C_14  and  C_15
REMARK    7  A    between atoms: C_15  and  N_16
REMARK    8  A    between atoms: C_18  and  C_19
REMARK                            x       y       z     vdW  Elec       q    Type
REMARK                         _______ _______ _______ _____ _____    ______ ____
ROOT
ATOM      1  N   UNL     1       1.305   9.063  19.449  0.00  0.00    +0.000 N 
ATOM      2  C   UNL     1       2.040   7.901  19.359  0.00  0.00    +0.000 C 
ATOM      3  N   UNL     1       2.096   6.939  20.231  0.00  0.00    +0.000 NA
ATOM      4  H   UNL     1       1.448   9.729  18.704  0.00  0.00    +0.000 HD
ENDROOT
BRANCH   1  10
ATOM      5  C   UNL     1      -0.390  12.970  21.994  0.00  0.00    +0.000 C 
ATOM      6  C   UNL     1      -0.195  11.484  21.910  0.00  0.00    +0.000 A 
ATOM      7  C   UNL     1      -0.717  10.606  22.858  0.00  0.00    +0.000 A 
ATOM      8  C   UNL     1      -0.539   9.234  22.688  0.00  0.00    +0.000 A 
ATOM      9  C   UNL     1       0.125   8.738  21.558  0.00  0.00    +0.000 A 
ATOM     10  C   UNL     1       0.646   9.600  20.578  0.00  0.00    +0.000 A 
ATOM     11  C   UNL     1       0.509  10.972  20.808  0.00  0.00    +0.000 A 
ENDBRANCH   1  10
BRANCH   3  12
ATOM     12  N   UNL     1       2.929   5.882  20.001  0.00  0.00    +0.000 N 
ATOM     13  C   UNL     1       2.398   4.616  19.795  0.00  0.00    +0.000 C 
ATOM     14  O   UNL     1       1.223   4.308  19.930  0.00  0.00    +0.000 OA
ATOM     15  H   UNL     1       3.898   6.089  19.786  0.00  0.00    +0.000 HD
BRANCH  13  16
ATOM     16  C   UNL     1       3.459   3.614  19.383  0.00  0.00    +0.000 C 
BRANCH  16  17
ATOM     17  C   UNL     1       4.836   4.257  19.460  0.00  0.00    +0.000 C 
BRANCH  17  18
ATOM     18  N   UNL     1       5.535   4.274  18.188  0.00  0.00    +0.000 N 
ATOM     19  C   UNL     1       4.976   4.083  16.959  0.00  0.00    +0.000 A 
ATOM     20  C   UNL     1       5.980   4.265  16.034  0.00  0.00    +0.000 A 
ATOM     21  C   UNL     1       5.889   4.174  14.558  0.00  0.00    +0.000 C 
ATOM     22  C   UNL     1       7.114   4.572  16.820  0.00  0.00    +0.000 A 
ATOM     23  N   UNL     1       6.851   4.573  18.132  0.00  0.00    +0.000 NA
ENDBRANCH  17  18
ENDBRANCH  16  17
ENDBRANCH  13  16
ENDBRANCH   3  12
BRANCH   2  24
ATOM     24  S   UNL     1       2.954   7.784  17.835  0.00  0.00    +0.000 S 
ATOM     25  H   UNL     1       2.924   9.082  17.506  0.00  0.00    +0.000 HD
ENDBRANCH   2  24
TORSDOF 6
ENDMDL
MODEL 9
REMARK VINA RESULT:      -7.1      5.025      6.954
REMARK  Name = 
REMARK  8 active torsions:
REMARK  status: ('A' for Active; 'I' for Inactive)
REMARK    1  A    between atoms: C_1  and  C_2
REMARK    2  A    between atoms: C_6  and  N_7
REMARK    3  A    between atoms: C_8  and  S_9
REMARK    4  A    between atoms: N_10  and  N_11
REMARK    5  A    between atoms: C_12  and  C_14
REMARK    6  A    between atoms: C_14  and  C_15
REMARK    7  A    between atoms: C_15  and  N_16
REMARK    8  A    between atoms: C_18  and  C_19
REMARK                            x       y       z     vdW  Elec       q    Type
REMARK                         _______ _______ _______ _____ _____    ______ ____
ROOT
ATOM      1  N   UNL     1       1.691   8.926  18.837  0.00  0.00    +0.000 N 
ATOM      2  C   UNL     1       2.290   7.710  19.082  0.00  0.00    +0.000 C 
ATOM      3  N   UNL     1       2.073   6.918  20.089  0.00  0.00    +0.000 NA
ATOM      4  H   UNL     1       2.044   9.434  18.039  0.00  0.00    +0.000 HD
ENDROOT
BRANCH   1  10
ATOM      5  C   UNL     1      -0.357   9.668  23.295  0.00  0.00    +0.000 C 
ATOM      6  C   UNL     1      -0.168  10.132  21.881  0.00  0.00    +0.000 A 
ATOM      7  C   UNL     1      -0.664  11.350  21.419  0.00  0.00    +0.000 A 
ATOM      8  C   UNL     1      -0.405  11.739  20.106  0.00  0.00    +0.000 A 
ATOM      9  C   UNL     1       0.375  10.934  19.267  0.00  0.00    +0.000 A 
ATOM     10  C   UNL     1       0.903   9.709  19.711  0.00  0.00    +0.000 A 
ATOM     11  C   UNL     1       0.573   9.315  21.011  0.00  0.00    +0.000 A 
ENDBRANCH   1  10
BRANCH   3  12
ATOM     12  N   UNL     1       2.806   5.772  20.202  0.00  0.00    +0.000 N 
ATOM     13  C   UNL     1       2.161   4.550  20.339  0.00  0.00    +0.000 C 
ATOM     14  O   UNL     1       0.960   4.395  20.504  0.00  0.00    +0.000 OA
ATOM     15  H   UNL     1       3.794   5.824  19.979  0.00  0.00    +0.000 HD
BRANCH  13  16
ATOM     16  C   UNL     1       3.129   3.384  20.271  0.00  0.00    +0.000 C 
BRANCH  16  17
ATOM     17  C   UNL     1       3.322   2.956  18.824  0.00  0.00    +0.000 C 
BRANCH  17  18
ATOM     18  N   UNL     1       4.487   3.555  18.198  0.00  0.00    +0.000 N 
ATOM     19  C   UNL     1       4.689   3.716  16.859  0.00  0.00    +0.000 A 
ATOM     20  C   UNL     1       5.876   4.400  16.716  0.00  0.00    +0.000 A 
ATOM     21  C   UNL     1       6.539   4.827  15.462  0.00  0.00    +0.000 C 
ATOM     22  C   UNL     1       6.308   4.611  18.045  0.00  0.00    +0.000 A 
ATOM     23  N   UNL     1       5.470   4.095  18.951  0.00  0.00    +0.000 NA
ENDBRANCH  17  18
ENDBRANCH  16  17
ENDBRANCH  13  16
ENDBRANCH   3  12
BRANCH   2  24
ATOM     24  S   UNL     1       3.447   7.247  17.810  0.00  0.00    +0.000 S 
ATOM     25  H   UNL     1       3.993   8.455  17.614  0.00  0.00    +0.000 HD
ENDBRANCH   2  24
TORSDOF 6
ENDMDL
