MODEL 1
REMARK VINA RESULT:      -7.8      0.000      0.000
REMARK  Name = 
REMARK  6 active torsions:
REMARK  status: ('A' for Active; 'I' for Inactive)
REMARK    1  A    between atoms: C_1  and  N_2
REMARK    2  A    between atoms: C_5  and  C_6
REMARK    3  A    between atoms: C_9  and  C_10
REMARK    4  A    between atoms: N_15  and  C_16
REMARK    5  A    between atoms: C_19  and  S_20
REMARK    6  A    between atoms: S_20  and  N_21
REMARK                            x       y       z     vdW  Elec       q    Type
REMARK                         _______ _______ _______ _____ _____    ______ ____
ROOT
ATOM      1  C   UNL     1      -0.289  11.321  18.765  0.00  0.00    +0.000 A 
ATOM      2  C   UNL     1       0.729  12.253  18.781  0.00  0.00    +0.000 A 
ATOM      3  C   UNL     1       1.973  11.778  18.466  0.00  0.00    +0.000 A 
ATOM      4  N   UNL     1       2.212  10.493  18.179  0.00  0.00    +0.000 NA
ATOM      5  C   UNL     1       1.170   9.646  18.179  0.00  0.00    +0.000 A 
ATOM      6  N   UNL     1       1.375   8.309  17.845  0.00  0.00    +0.000 N 
ATOM      7  N   UNL     1      -0.087  10.022  18.453  0.00  0.00    +0.000 NA
ATOM      8  H   UNL     1       0.499   7.813  17.781  0.00  0.00    +0.000 HD
ENDROOT
BRANCH   1  14
ATOM      9  C   UNL     1      -5.940  12.954  20.833  0.00  0.00    +0.000 C 
ATOM     10  N   UNL     1      -4.560  13.379  20.791  0.00  0.00    +0.000 N 
ATOM     11  C   UNL     1      -3.690  12.677  20.030  0.00  0.00    +0.000 A 
ATOM     12  N   UNL     1      -4.010  11.917  19.012  0.00  0.00    +0.000 NA
ATOM     13  C   UNL     1      -2.873  11.364  18.445  0.00  0.00    +0.000 A 
ATOM     14  C   UNL     1      -1.675  11.680  19.066  0.00  0.00    +0.000 A 
ATOM     15  S   UNL     1      -2.013  12.742  20.383  0.00  0.00    +0.000 S 
ATOM     16  H   UNL     1      -4.197  13.755  21.659  0.00  0.00    +0.000 HD
BRANCH  13  17
ATOM     17  C   UNL     1      -2.989  10.466  17.211  0.00  0.00    +0.000 C 
ATOM     18  C   UNL     1      -4.087  10.740  16.201  0.00  0.00    +0.000 C 
ATOM     19  C   UNL     1      -2.680  11.099  15.868  0.00  0.00    +0.000 C 
ENDBRANCH  13  17
ENDBRANCH   1  14
BRANCH   6  20
ATOM     20  C   UNL     1       2.518   7.524  18.051  0.00  0.00    +0.000 A 
ATOM     21  C   UNL     1       3.607   7.541  17.167  0.00  0.00    +0.000 A 
ATOM     22  C   UNL     1       4.724   6.731  17.374  0.00  0.00    +0.000 A 
ATOM     23  C   UNL     1       4.752   5.878  18.476  0.00  0.00    +0.000 A 
ATOM     24  C   UNL     1       3.668   5.813  19.353  0.00  0.00    +0.000 A 
ATOM     25  C   UNL     1       2.562   6.645  19.144  0.00  0.00    +0.000 A 
BRANCH  23  26
ATOM     26  S   UNL     1       6.167   4.859  18.741  0.00  0.00    +0.000 S 
ATOM     27  O   UNL     1       6.788   4.553  17.473  0.00  0.00    +0.000 OA
ATOM     28  O   UNL     1       6.917   5.356  19.872  0.00  0.00    +0.000 OA
BRANCH  26  29
ATOM     29  N   UNL     1       5.451   3.432  19.259  0.00  0.00    +0.000 NA
ATOM     30  H   UNL     1       5.284   2.814  18.463  0.00  0.00    +0.000 HD
ATOM     31  H   UNL     1       6.003   3.012  20.007  0.00  0.00    +0.000 HD
ENDBRANCH  26  29
ENDBRANCH  23  26
ENDBRANCH   6  20
TORSDOF 5
ENDMDL
MODEL 2
REMARK VINA RESULT:      -7.7      1.345      2.366
REMARK  Name = 
REMARK  6 active torsions:
REMARK  status: ('A' for Active; 'I' for Inactive)
REMARK    1  A    between atoms: C_1  and  N_2
REMARK    2  A    between atoms: C_5  and  C_6
REMARK    3  A    between atoms: C_9  and  C_10
REMARK    4  A    between atoms: N_15  and  C_16
REMARK    5  A    between atoms: C_19  and  S_20
REMARK    6  A    between atoms: S_20  and  N_21
REMARK                            x       y       z     vdW  Elec       q    Type
REMARK                         _______ _______ _______ _____ _____    ______ ____
ROOT
ATOM      1  C   UNL     1      -0.119  11.405  18.836  0.00  0.00    +0.000 A 
ATOM      2  C   UNL     1       0.920  12.309  18.749  0.00  0.00    +0.000 A 
ATOM      3  C   UNL     1       2.130  11.788  18.379  0.00  0.00    +0.000 A 
ATOM      4  N   UNL     1       2.320  10.486  18.134  0.00  0.00    +0.000 NA
ATOM      5  C   UNL     1       1.259   9.668  18.235  0.00  0.00    +0.000 A 
ATOM      6  N   UNL     1       1.411   8.314  17.947  0.00  0.00    +0.000 N 
ATOM      7  N   UNL     1       0.032  10.089  18.569  0.00  0.00    +0.000 NA
ATOM      8  H   UNL     1       0.521   7.839  17.958  0.00  0.00    +0.000 HD
ENDROOT
BRANCH   1  14
ATOM      9  C   UNL     1      -6.001  13.326  19.605  0.00  0.00    +0.000 C 
ATOM     10  N   UNL     1      -5.175  12.417  18.845  0.00  0.00    +0.000 N 
ATOM     11  C   UNL     1      -3.877  12.275  19.197  0.00  0.00    +0.000 A 
ATOM     12  N   UNL     1      -3.375  12.537  20.379  0.00  0.00    +0.000 NA
ATOM     13  C   UNL     1      -2.018  12.259  20.400  0.00  0.00    +0.000 A 
ATOM     14  C   UNL     1      -1.475  11.814  19.206  0.00  0.00    +0.000 A 
ATOM     15  S   UNL     1      -2.743  11.714  18.040  0.00  0.00    +0.000 S 
ATOM     16  H   UNL     1      -5.380  12.374  17.854  0.00  0.00    +0.000 HD
BRANCH  13  17
ATOM     17  C   UNL     1      -1.215  12.449  21.690  0.00  0.00    +0.000 C 
ATOM     18  C   UNL     1      -1.907  12.250  23.024  0.00  0.00    +0.000 C 
ATOM     19  C   UNL     1      -0.959  11.213  22.530  0.00  0.00    +0.000 C 
ENDBRANCH  13  17
ENDBRANCH   1  14
BRANCH   6  20
ATOM     20  C   UNL     1       2.546   7.508  18.116  0.00  0.00    +0.000 A 
ATOM     21  C   UNL     1       3.609   7.512  17.201  0.00  0.00    +0.000 A 
ATOM     22  C   UNL     1       4.717   6.681  17.372  0.00  0.00    +0.000 A 
ATOM     23  C   UNL     1       4.761   5.821  18.468  0.00  0.00    +0.000 A 
ATOM     24  C   UNL     1       3.701   5.769  19.375  0.00  0.00    +0.000 A 
ATOM     25  C   UNL     1       2.604   6.621  19.201  0.00  0.00    +0.000 A 
BRANCH  23  26
ATOM     26  S   UNL     1       6.164   4.775  18.687  0.00  0.00    +0.000 S 
ATOM     27  O   UNL     1       6.761   4.489  17.403  0.00  0.00    +0.000 OA
ATOM     28  O   UNL     1       6.939   5.235  19.817  0.00  0.00    +0.000 OA
BRANCH  26  29
ATOM     29  N   UNL     1       5.435   3.347  19.184  0.00  0.00    +0.000 NA
ATOM     30  H   UNL     1       5.935   2.958  19.985  0.00  0.00    +0.000 HD
ATOM     31  H   UNL     1       4.439   3.498  19.345  0.00  0.00    +0.000 HD
ENDBRANCH  26  29
ENDBRANCH  23  26
ENDBRANCH   6  20
TORSDOF 5
ENDMDL
MODEL 3
REMARK VINA RESULT:      -7.6      4.481      9.413
REMARK  Name = 
REMARK  6 active torsions:
REMARK  status: ('A' for Active; 'I' for Inactive)
REMARK    1  A    between atoms: C_1  and  N_2
REMARK    2  A    between atoms: C_5  and  C_6
REMARK    3  A    between atoms: C_9  and  C_10
REMARK    4  A    between atoms: N_15  and  C_16
REMARK    5  A    between atoms: C_19  and  S_20
REMARK    6  A    between atoms: S_20  and  N_21
REMARK                            x       y       z     vdW  Elec       q    Type
REMARK                         _______ _______ _______ _____ _____    ______ ____
ROOT
ATOM      1  C   UNL     1       2.483   7.262  18.777  0.00  0.00    +0.000 A 
ATOM      2  C   UNL     1       2.190   7.079  20.113  0.00  0.00    +0.000 A 
ATOM      3  C   UNL     1       1.453   8.071  20.700  0.00  0.00    +0.000 A 
ATOM      4  N   UNL     1       1.052   9.167  20.044  0.00  0.00    +0.000 NA
ATOM      5  C   UNL     1       1.371   9.272  18.744  0.00  0.00    +0.000 A 
ATOM      6  N   UNL     1       0.935  10.378  18.020  0.00  0.00    +0.000 N 
ATOM      7  N   UNL     1       2.070   8.341  18.078  0.00  0.00    +0.000 NA
ATOM      8  H   UNL     1       1.152  10.278  17.039  0.00  0.00    +0.000 HD
ENDROOT
BRANCH   1  14
ATOM      9  C   UNL     1       6.097   3.731  15.124  0.00  0.00    +0.000 C 
ATOM     10  N   UNL     1       6.130   4.825  16.066  0.00  0.00    +0.000 N 
ATOM     11  C   UNL     1       4.997   5.134  16.737  0.00  0.00    +0.000 A 
ATOM     12  N   UNL     1       3.991   4.321  16.949  0.00  0.00    +0.000 NA
ATOM     13  C   UNL     1       3.005   4.954  17.688  0.00  0.00    +0.000 A 
ATOM     14  C   UNL     1       3.251   6.280  18.010  0.00  0.00    +0.000 A 
ATOM     15  S   UNL     1       4.799   6.710  17.382  0.00  0.00    +0.000 S 
ATOM     16  H   UNL     1       6.725   5.602  15.805  0.00  0.00    +0.000 HD
BRANCH  13  17
ATOM     17  C   UNL     1       1.743   4.191  18.097  0.00  0.00    +0.000 C 
ATOM     18  C   UNL     1       1.783   2.677  18.155  0.00  0.00    +0.000 C 
ATOM     19  C   UNL     1       1.781   3.458  19.424  0.00  0.00    +0.000 C 
ENDBRANCH  13  17
ENDBRANCH   1  14
BRANCH   6  20
ATOM     20  C   UNL     1       0.709  11.685  18.474  0.00  0.00    +0.000 A 
ATOM     21  C   UNL     1      -0.568  12.144  18.829  0.00  0.00    +0.000 A 
ATOM     22  C   UNL     1      -0.777  13.457  19.253  0.00  0.00    +0.000 A 
ATOM     23  C   UNL     1       0.305  14.333  19.312  0.00  0.00    +0.000 A 
ATOM     24  C   UNL     1       1.582  13.915  18.931  0.00  0.00    +0.000 A 
ATOM     25  C   UNL     1       1.780  12.590  18.526  0.00  0.00    +0.000 A 
BRANCH  23  26
ATOM     26  S   UNL     1       0.042  15.992  19.853  0.00  0.00    +0.000 S 
ATOM     27  O   UNL     1      -0.800  15.991  21.027  0.00  0.00    +0.000 OA
ATOM     28  O   UNL     1       1.287  16.723  19.792  0.00  0.00    +0.000 OA
BRANCH  26  29
ATOM     29  N   UNL     1      -0.905  16.596  18.607  0.00  0.00    +0.000 NA
ATOM     30  H   UNL     1      -1.663  15.946  18.394  0.00  0.00    +0.000 HD
ATOM     31  H   UNL     1      -1.216  17.543  18.828  0.00  0.00    +0.000 HD
ENDBRANCH  26  29
ENDBRANCH  23  26
ENDBRANCH   6  20
TORSDOF 5
ENDMDL
MODEL 4
REMARK VINA RESULT:      -7.5      4.420      9.376
REMARK  Name = 
REMARK  6 active torsions:
REMARK  status: ('A' for Active; 'I' for Inactive)
REMARK    1  A    between atoms: C_1  and  N_2
REMARK    2  A    between atoms: C_5  and  C_6
REMARK    3  A    between atoms: C_9  and  C_10
REMARK    4  A    between atoms: N_15  and  C_16
REMARK    5  A    between atoms: C_19  and  S_20
REMARK    6  A    between atoms: S_20  and  N_21
REMARK                            x       y       z     vdW  Elec       q    Type
REMARK                         _______ _______ _______ _____ _____    ______ ____
ROOT
ATOM      1  C   UNL     1       2.465   7.287  18.784  0.00  0.00    +0.000 A 
ATOM      2  C   UNL     1       2.164   7.123  20.121  0.00  0.00    +0.000 A 
ATOM      3  C   UNL     1       1.432   8.127  20.692  0.00  0.00    +0.000 A 
ATOM      4  N   UNL     1       1.042   9.218  20.022  0.00  0.00    +0.000 NA
ATOM      5  C   UNL     1       1.368   9.305  18.722  0.00  0.00    +0.000 A 
ATOM      6  N   UNL     1       0.944  10.406  17.983  0.00  0.00    +0.000 N 
ATOM      7  N   UNL     1       2.063   8.362  18.071  0.00  0.00    +0.000 NA
ATOM      8  H   UNL     1       1.165  10.293  17.004  0.00  0.00    +0.000 HD
ENDROOT
BRANCH   1  14
ATOM      9  C   UNL     1       6.085   3.686  15.206  0.00  0.00    +0.000 C 
ATOM     10  N   UNL     1       6.120   4.776  16.153  0.00  0.00    +0.000 N 
ATOM     11  C   UNL     1       4.978   5.109  16.797  0.00  0.00    +0.000 A 
ATOM     12  N   UNL     1       3.950   4.319  16.982  0.00  0.00    +0.000 NA
ATOM     13  C   UNL     1       2.960   4.972  17.700  0.00  0.00    +0.000 A 
ATOM     14  C   UNL     1       3.228   6.290  18.032  0.00  0.00    +0.000 A 
ATOM     15  S   UNL     1       4.800   6.687  17.444  0.00  0.00    +0.000 S 
ATOM     16  H   UNL     1       6.739   5.540  15.910  0.00  0.00    +0.000 HD
BRANCH  13  17
ATOM     17  C   UNL     1       1.671   4.237  18.074  0.00  0.00    +0.000 C 
ATOM     18  C   UNL     1       1.696   2.727  18.205  0.00  0.00    +0.000 C 
ATOM     19  C   UNL     1       1.632   3.566  19.434  0.00  0.00    +0.000 C 
ENDBRANCH  13  17
ENDBRANCH   1  14
BRANCH   6  20
ATOM     20  C   UNL     1       0.726  11.720  18.421  0.00  0.00    +0.000 A 
ATOM     21  C   UNL     1       1.782  12.593  18.722  0.00  0.00    +0.000 A 
ATOM     22  C   UNL     1       1.545  13.888  19.184  0.00  0.00    +0.000 A 
ATOM     23  C   UNL     1       0.231  14.319  19.360  0.00  0.00    +0.000 A 
ATOM     24  C   UNL     1      -0.839  13.460  19.103  0.00  0.00    +0.000 A 
ATOM     25  C   UNL     1      -0.587  12.169  18.623  0.00  0.00    +0.000 A 
BRANCH  23  26
ATOM     26  S   UNL     1      -0.068  15.958  19.938  0.00  0.00    +0.000 S 
ATOM     27  O   UNL     1       0.212  16.032  21.353  0.00  0.00    +0.000 OA
ATOM     28  O   UNL     1       0.467  16.910  18.990  0.00  0.00    +0.000 OA
BRANCH  26  29
ATOM     29  N   UNL     1      -1.737  16.057  19.793  0.00  0.00    +0.000 NA
ATOM     30  H   UNL     1      -2.186  15.471  20.497  0.00  0.00    +0.000 HD
ATOM     31  H   UNL     1      -2.035  17.033  19.808  0.00  0.00    +0.000 HD
ENDBRANCH  26  29
ENDBRANCH  23  26
ENDBRANCH   6  20
TORSDOF 5
ENDMDL
MODEL 5
REMARK VINA RESULT:      -7.5      4.777      9.480
REMARK  Name = 
REMARK  6 active torsions:
REMARK  status: ('A' for Active; 'I' for Inactive)
REMARK    1  A    between atoms: C_1  and  N_2
REMARK    2  A    between atoms: C_5  and  C_6
REMARK    3  A    between atoms: C_9  and  C_10
REMARK    4  A    between atoms: N_15  and  C_16
REMARK    5  A    between atoms: C_19  and  S_20
REMARK    6  A    between atoms: S_20  and  N_21
REMARK                            x       y       z     vdW  Elec       q    Type
REMARK                         _______ _______ _______ _____ _____    ______ ____
ROOT
ATOM      1  C   UNL     1       2.419   7.108  18.558  0.00  0.00    +0.000 A 
ATOM      2  C   UNL     1       2.430   8.012  17.515  0.00  0.00    +0.000 A 
ATOM      3  C   UNL     1       1.967   9.265  17.810  0.00  0.00    +0.000 A 
ATOM      4  N   UNL     1       1.507   9.606  19.020  0.00  0.00    +0.000 NA
ATOM      5  C   UNL     1       1.532   8.674  19.986  0.00  0.00    +0.000 A 
ATOM      6  N   UNL     1       1.100   9.006  21.268  0.00  0.00    +0.000 N 
ATOM      7  N   UNL     1       1.988   7.428  19.798  0.00  0.00    +0.000 NA
ATOM      8  H   UNL     1       1.271   8.251  21.915  0.00  0.00    +0.000 HD
ENDROOT
BRANCH   1  14
ATOM      9  C   UNL     1       3.867   1.045  18.432  0.00  0.00    +0.000 C 
ATOM     10  N   UNL     1       2.772   1.973  18.268  0.00  0.00    +0.000 N 
ATOM     11  C   UNL     1       3.043   3.297  18.253  0.00  0.00    +0.000 A 
ATOM     12  N   UNL     1       4.202   3.833  17.957  0.00  0.00    +0.000 NA
ATOM     13  C   UNL     1       4.124   5.216  18.016  0.00  0.00    +0.000 A 
ATOM     14  C   UNL     1       2.897   5.734  18.400  0.00  0.00    +0.000 A 
ATOM     15  S   UNL     1       1.810   4.419  18.652  0.00  0.00    +0.000 S 
ATOM     16  H   UNL     1       1.902   1.696  18.709  0.00  0.00    +0.000 HD
BRANCH  13  17
ATOM     17  C   UNL     1       5.347   6.069  17.671  0.00  0.00    +0.000 C 
ATOM     18  C   UNL     1       6.478   5.448  16.876  0.00  0.00    +0.000 C 
ATOM     19  C   UNL     1       5.558   6.409  16.208  0.00  0.00    +0.000 C 
ENDBRANCH  13  17
ENDBRANCH   1  14
BRANCH   6  20
ATOM     20  C   UNL     1       0.120   9.936  21.645  0.00  0.00    +0.000 A 
ATOM     21  C   UNL     1      -0.291  10.974  20.797  0.00  0.00    +0.000 A 
ATOM     22  C   UNL     1      -1.248  11.906  21.202  0.00  0.00    +0.000 A 
ATOM     23  C   UNL     1      -1.796  11.809  22.480  0.00  0.00    +0.000 A 
ATOM     24  C   UNL     1      -1.379  10.807  23.358  0.00  0.00    +0.000 A 
ATOM     25  C   UNL     1      -0.432   9.868  22.933  0.00  0.00    +0.000 A 
BRANCH  23  26
ATOM     26  S   UNL     1      -3.009  12.984  22.989  0.00  0.00    +0.000 S 
ATOM     27  O   UNL     1      -2.383  14.013  23.786  0.00  0.00    +0.000 OA
ATOM     28  O   UNL     1      -3.884  13.287  21.879  0.00  0.00    +0.000 OA
BRANCH  26  29
ATOM     29  N   UNL     1      -3.925  12.068  24.056  0.00  0.00    +0.000 NA
ATOM     30  H   UNL     1      -3.749  11.074  23.906  0.00  0.00    +0.000 HD
ATOM     31  H   UNL     1      -3.769  12.382  25.014  0.00  0.00    +0.000 HD
ENDBRANCH  26  29
ENDBRANCH  23  26
ENDBRANCH   6  20
TORSDOF 5
ENDMDL
MODEL 6
REMARK VINA RESULT:      -7.4      4.718      9.574
REMARK  Name = 
REMARK  6 active torsions:
REMARK  status: ('A' for Active; 'I' for Inactive)
REMARK    1  A    between atoms: C_1  and  N_2
REMARK    2  A    between atoms: C_5  and  C_6
REMARK    3  A    between atoms: C_9  and  C_10
REMARK    4  A    between atoms: N_15  and  C_16
REMARK    5  A    between atoms: C_19  and  S_20
REMARK    6  A    between atoms: S_20  and  N_21
REMARK                            x       y       z     vdW  Elec       q    Type
REMARK                         _______ _______ _______ _____ _____    ______ ____
ROOT
ATOM      1  C   UNL     1       2.244   7.504  19.042  0.00  0.00    +0.000 A 
ATOM      2  C   UNL     1       2.080   8.142  17.830  0.00  0.00    +0.000 A 
ATOM      3  C   UNL     1       1.451   9.356  17.879  0.00  0.00    +0.000 A 
ATOM      4  N   UNL     1       0.996   9.896  19.016  0.00  0.00    +0.000 NA
ATOM      5  C   UNL     1       1.196   9.217  20.157  0.00  0.00    +0.000 A 
ATOM      6  N   UNL     1       0.773   9.769  21.363  0.00  0.00    +0.000 N 
ATOM      7  N   UNL     1       1.822   8.033  20.211  0.00  0.00    +0.000 NA
ATOM      8  H   UNL     1       1.079   9.209  22.146  0.00  0.00    +0.000 HD
ENDROOT
BRANCH   1  14
ATOM      9  C   UNL     1       4.695   1.896  20.237  0.00  0.00    +0.000 C 
ATOM     10  N   UNL     1       3.443   2.609  20.131  0.00  0.00    +0.000 N 
ATOM     11  C   UNL     1       3.458   3.878  19.666  0.00  0.00    +0.000 A 
ATOM     12  N   UNL     1       4.397   4.403  18.917  0.00  0.00    +0.000 NA
ATOM     13  C   UNL     1       4.086   5.716  18.602  0.00  0.00    +0.000 A 
ATOM     14  C   UNL     1       2.913   6.206  19.152  0.00  0.00    +0.000 A 
ATOM     15  S   UNL     1       2.172   4.941  20.061  0.00  0.00    +0.000 S 
ATOM     16  H   UNL     1       2.767   2.404  20.858  0.00  0.00    +0.000 HD
BRANCH  13  17
ATOM     17  C   UNL     1       5.018   6.530  17.700  0.00  0.00    +0.000 C 
ATOM     18  C   UNL     1       6.169   5.830  17.006  0.00  0.00    +0.000 C 
ATOM     19  C   UNL     1       4.972   6.230  16.215  0.00  0.00    +0.000 C 
ENDBRANCH  13  17
ENDBRANCH   1  14
BRANCH   6  20
ATOM     20  C   UNL     1      -0.316  10.619  21.600  0.00  0.00    +0.000 A 
ATOM     21  C   UNL     1      -0.844  11.454  20.604  0.00  0.00    +0.000 A 
ATOM     22  C   UNL     1      -1.911  12.314  20.867  0.00  0.00    +0.000 A 
ATOM     23  C   UNL     1      -2.455  12.352  22.150  0.00  0.00    +0.000 A 
ATOM     24  C   UNL     1      -1.927  11.559  23.170  0.00  0.00    +0.000 A 
ATOM     25  C   UNL     1      -0.868  10.688  22.888  0.00  0.00    +0.000 A 
BRANCH  23  26
ATOM     26  S   UNL     1      -3.807  13.436  22.480  0.00  0.00    +0.000 S 
ATOM     27  O   UNL     1      -3.893  13.685  23.901  0.00  0.00    +0.000 OA
ATOM     28  O   UNL     1      -3.823  14.501  21.504  0.00  0.00    +0.000 OA
BRANCH  26  29
ATOM     29  N   UNL     1      -5.114  12.452  22.105  0.00  0.00    +0.000 NA
ATOM     30  H   UNL     1      -5.740  12.933  21.457  0.00  0.00    +0.000 HD
ATOM     31  H   UNL     1      -4.788  11.543  21.777  0.00  0.00    +0.000 HD
ENDBRANCH  26  29
ENDBRANCH  23  26
ENDBRANCH   6  20
TORSDOF 5
ENDMDL
MODEL 7
REMARK VINA RESULT:      -7.3      4.662      9.597
REMARK  Name = 
REMARK  6 active torsions:
REMARK  status: ('A' for Active; 'I' for Inactive)
REMARK    1  A    between atoms: C_1  and  N_2
REMARK    2  A    between atoms: C_5  and  C_6
REMARK    3  A    between atoms: C_9  and  C_10
REMARK    4  A    between atoms: N_15  and  C_16
REMARK    5  A    between atoms: C_19  and  S_20
REMARK    6  A    between atoms: S_20  and  N_21
REMARK                            x       y       z     vdW  Elec       q    Type
REMARK                         _______ _______ _______ _____ _____    ______ ____
ROOT
ATOM      1  C   UNL     1       2.300   7.517  19.043  0.00  0.00    +0.000 A 
ATOM      2  C   UNL     1       2.180   8.163  17.829  0.00  0.00    +0.000 A 
ATOM      3  C   UNL     1       1.565   9.385  17.865  0.00  0.00    +0.000 A 
ATOM      4  N   UNL     1       1.085   9.927  18.991  0.00  0.00    +0.000 NA
ATOM      5  C   UNL     1       1.244   9.241  20.135  0.00  0.00    +0.000 A 
ATOM      6  N   UNL     1       0.794   9.793  21.331  0.00  0.00    +0.000 N 
ATOM      7  N   UNL     1       1.852   8.048  20.202  0.00  0.00    +0.000 NA
ATOM      8  H   UNL     1       1.070   9.226  22.119  0.00  0.00    +0.000 HD
ENDROOT
BRANCH   1  14
ATOM      9  C   UNL     1       4.652   1.879  20.291  0.00  0.00    +0.000 C 
ATOM     10  N   UNL     1       3.412   2.610  20.167  0.00  0.00    +0.000 N 
ATOM     11  C   UNL     1       3.452   3.877  19.697  0.00  0.00    +0.000 A 
ATOM     12  N   UNL     1       4.407   4.384  18.957  0.00  0.00    +0.000 NA
ATOM     13  C   UNL     1       4.120   5.700  18.632  0.00  0.00    +0.000 A 
ATOM     14  C   UNL     1       2.948   6.210  19.166  0.00  0.00    +0.000 A 
ATOM     15  S   UNL     1       2.178   4.960  20.072  0.00  0.00    +0.000 S 
ATOM     16  H   UNL     1       2.725   2.418  20.887  0.00  0.00    +0.000 HD
BRANCH  13  17
ATOM     17  C   UNL     1       5.074   6.496  17.737  0.00  0.00    +0.000 C 
ATOM     18  C   UNL     1       6.186   5.765  17.011  0.00  0.00    +0.000 C 
ATOM     19  C   UNL     1       4.997   6.234  16.246  0.00  0.00    +0.000 C 
ENDBRANCH  13  17
ENDBRANCH   1  14
BRANCH   6  20
ATOM     20  C   UNL     1      -0.290  10.657  21.540  0.00  0.00    +0.000 A 
ATOM     21  C   UNL     1      -0.865  10.844  22.806  0.00  0.00    +0.000 A 
ATOM     22  C   UNL     1      -1.961  11.688  22.989  0.00  0.00    +0.000 A 
ATOM     23  C   UNL     1      -2.504  12.348  21.888  0.00  0.00    +0.000 A 
ATOM     24  C   UNL     1      -1.976  12.153  20.610  0.00  0.00    +0.000 A 
ATOM     25  C   UNL     1      -0.864  11.319  20.444  0.00  0.00    +0.000 A 
BRANCH  23  26
ATOM     26  S   UNL     1      -3.886  13.418  22.121  0.00  0.00    +0.000 S 
ATOM     27  O   UNL     1      -5.060  12.635  22.428  0.00  0.00    +0.000 OA
ATOM     28  O   UNL     1      -3.486  14.559  22.912  0.00  0.00    +0.000 OA
BRANCH  26  29
ATOM     29  N   UNL     1      -4.116  14.000  20.563  0.00  0.00    +0.000 NA
ATOM     30  H   UNL     1      -4.351  14.994  20.591  0.00  0.00    +0.000 HD
ATOM     31  H   UNL     1      -3.309  13.776  19.981  0.00  0.00    +0.000 HD
ENDBRANCH  26  29
ENDBRANCH  23  26
ENDBRANCH   6  20
TORSDOF 5
ENDMDL
MODEL 8
REMARK VINA RESULT:      -7.3      1.360      1.496
REMARK  Name = 
REMARK  6 active torsions:
REMARK  status: ('A' for Active; 'I' for Inactive)
REMARK    1  A    between atoms: C_1  and  N_2
REMARK    2  A    between atoms: C_5  and  C_6
REMARK    3  A    between atoms: C_9  and  C_10
REMARK    4  A    between atoms: N_15  and  C_16
REMARK    5  A    between atoms: C_19  and  S_20
REMARK    6  A    between atoms: S_20  and  N_21
REMARK                            x       y       z     vdW  Elec       q    Type
REMARK                         _______ _______ _______ _____ _____    ______ ____
ROOT
ATOM      1  C   UNL     1      -1.050  10.888  19.270  0.00  0.00    +0.000 A 
ATOM      2  C   UNL     1      -0.477  11.337  20.442  0.00  0.00    +0.000 A 
ATOM      3  C   UNL     1       0.792  10.890  20.691  0.00  0.00    +0.000 A 
ATOM      4  N   UNL     1       1.444  10.053  19.875  0.00  0.00    +0.000 NA
ATOM      5  C   UNL     1       0.822   9.663  18.750  0.00  0.00    +0.000 A 
ATOM      6  N   UNL     1       1.487   8.826  17.857  0.00  0.00    +0.000 N 
ATOM      7  N   UNL     1      -0.410  10.065  18.410  0.00  0.00    +0.000 NA
ATOM      8  H   UNL     1       0.951   8.699  17.011  0.00  0.00    +0.000 HD
ENDROOT
BRANCH   1  14
ATOM      9  C   UNL     1      -6.934  12.728  18.332  0.00  0.00    +0.000 C 
ATOM     10  N   UNL     1      -5.688  13.118  18.951  0.00  0.00    +0.000 N 
ATOM     11  C   UNL     1      -4.587  12.369  18.716  0.00  0.00    +0.000 A 
ATOM     12  N   UNL     1      -4.408  11.581  17.685  0.00  0.00    +0.000 NA
ATOM     13  C   UNL     1      -3.160  10.982  17.745  0.00  0.00    +0.000 A 
ATOM     14  C   UNL     1      -2.397  11.291  18.860  0.00  0.00    +0.000 A 
ATOM     15  S   UNL     1      -3.285  12.406  19.831  0.00  0.00    +0.000 S 
ATOM     16  H   UNL     1      -5.773  13.515  19.879  0.00  0.00    +0.000 HD
BRANCH  13  17
ATOM     17  C   UNL     1      -2.704  10.043  16.625  0.00  0.00    +0.000 C 
ATOM     18  C   UNL     1      -3.703   9.620  15.566  0.00  0.00    +0.000 C 
ATOM     19  C   UNL     1      -2.653  10.620  15.223  0.00  0.00    +0.000 C 
ENDBRANCH  13  17
ENDBRANCH   1  14
BRANCH   6  20
ATOM     20  C   UNL     1       2.451   7.846  18.132  0.00  0.00    +0.000 A 
ATOM     21  C   UNL     1       3.557   7.630  17.297  0.00  0.00    +0.000 A 
ATOM     22  C   UNL     1       4.491   6.630  17.573  0.00  0.00    +0.000 A 
ATOM     23  C   UNL     1       4.313   5.822  18.695  0.00  0.00    +0.000 A 
ATOM     24  C   UNL     1       3.202   5.991  19.524  0.00  0.00    +0.000 A 
ATOM     25  C   UNL     1       2.283   7.010  19.246  0.00  0.00    +0.000 A 
BRANCH  23  26
ATOM     26  S   UNL     1       5.496   4.563  19.046  0.00  0.00    +0.000 S 
ATOM     27  O   UNL     1       6.627   5.138  19.737  0.00  0.00    +0.000 OA
ATOM     28  O   UNL     1       4.816   3.380  19.522  0.00  0.00    +0.000 OA
BRANCH  26  29
ATOM     29  N   UNL     1       6.043   4.187  17.504  0.00  0.00    +0.000 NA
ATOM     30  H   UNL     1       5.275   3.820  16.940  0.00  0.00    +0.000 HD
ATOM     31  H   UNL     1       6.518   4.990  17.093  0.00  0.00    +0.000 HD
ENDBRANCH  26  29
ENDBRANCH  23  26
ENDBRANCH   6  20
TORSDOF 5
ENDMDL
MODEL 9
REMARK VINA RESULT:      -7.2      4.456      9.495
REMARK  Name = 
REMARK  6 active torsions:
REMARK  status: ('A' for Active; 'I' for Inactive)
REMARK    1  A    between atoms: C_1  and  N_2
REMARK    2  A    between atoms: C_5  and  C_6
REMARK    3  A    between atoms: C_9  and  C_10
REMARK    4  A    between atoms: N_15  and  C_16
REMARK    5  A    between atoms: C_19  and  S_20
REMARK    6  A    between atoms: S_20  and  N_21
REMARK                            x       y       z     vdW  Elec       q    Type
REMARK                         _______ _______ _______ _____ _____    ______ ____
ROOT
ATOM      1  C   UNL     1       2.875   7.046  18.415  0.00  0.00    +0.000 A 
ATOM      2  C   UNL     1       2.566   6.698  19.714  0.00  0.00    +0.000 A 
ATOM      3  C   UNL     1       1.770   7.581  20.393  0.00  0.00    +0.000 A 
ATOM      4  N   UNL     1       1.328   8.725  19.857  0.00  0.00    +0.000 NA
ATOM      5  C   UNL     1       1.667   8.993  18.585  0.00  0.00    +0.000 A 
ATOM      6  N   UNL     1       1.191  10.155  17.982  0.00  0.00    +0.000 N 
ATOM      7  N   UNL     1       2.423   8.179  17.835  0.00  0.00    +0.000 NA
ATOM      8  H   UNL     1       1.431  10.179  17.002  0.00  0.00    +0.000 HD
ENDROOT
BRANCH   1  14
ATOM      9  C   UNL     1       6.599   4.120  14.360  0.00  0.00    +0.000 C 
ATOM     10  N   UNL     1       6.557   5.209  15.309  0.00  0.00    +0.000 N 
ATOM     11  C   UNL     1       5.466   5.337  16.098  0.00  0.00    +0.000 A 
ATOM     12  N   UNL     1       4.629   4.376  16.402  0.00  0.00    +0.000 NA
ATOM     13  C   UNL     1       3.638   4.847  17.248  0.00  0.00    +0.000 A 
ATOM     14  C   UNL     1       3.703   6.196  17.560  0.00  0.00    +0.000 A 
ATOM     15  S   UNL     1       5.089   6.864  16.781  0.00  0.00    +0.000 S 
ATOM     16  H   UNL     1       6.991   6.070  14.998  0.00  0.00    +0.000 HD
BRANCH  13  17
ATOM     17  C   UNL     1       2.562   3.895  17.775  0.00  0.00    +0.000 C 
ATOM     18  C   UNL     1       2.774   2.399  17.647  0.00  0.00    +0.000 C 
ATOM     19  C   UNL     1       2.923   3.048  18.980  0.00  0.00    +0.000 C 
ENDBRANCH  13  17
ENDBRANCH   1  14
BRANCH   6  20
ATOM     20  C   UNL     1       0.894  11.389  18.577  0.00  0.00    +0.000 A 
ATOM     21  C   UNL     1      -0.414  11.753  18.929  0.00  0.00    +0.000 A 
ATOM     22  C   UNL     1      -0.694  12.998  19.495  0.00  0.00    +0.000 A 
ATOM     23  C   UNL     1       0.348  13.901  19.703  0.00  0.00    +0.000 A 
ATOM     24  C   UNL     1       1.654  13.579  19.329  0.00  0.00    +0.000 A 
ATOM     25  C   UNL     1       1.923  12.320  18.780  0.00  0.00    +0.000 A 
BRANCH  23  26
ATOM     26  S   UNL     1      -0.005  15.472  20.424  0.00  0.00    +0.000 S 
ATOM     27  O   UNL     1       1.029  16.414  20.064  0.00  0.00    +0.000 OA
ATOM     28  O   UNL     1      -1.411  15.769  20.271  0.00  0.00    +0.000 OA
BRANCH  26  29
ATOM     29  N   UNL     1       0.218  15.143  22.054  0.00  0.00    +0.000 NA
ATOM     30  H   UNL     1       0.575  14.194  22.175  0.00  0.00    +0.000 HD
ATOM     31  H   UNL     1       0.797  15.865  22.484  0.00  0.00    +0.000 HD
ENDBRANCH  26  29
ENDBRANCH  23  26
ENDBRANCH   6  20
TORSDOF 5
ENDMDL
