MODEL 1
REMARK VINA RESULT:      -9.9      0.000      0.000
REMARK  Name = 
REMARK  8 active torsions:
REMARK  status: ('A' for Active; 'I' for Inactive)
REMARK    1  A    between atoms: C_1  and  N_2
REMARK    2  A    between atoms: C_9  and  C_10
REMARK    3  A    between atoms: C_10  and  C_11
REMARK    4  A    between atoms: C_11  and  C_12
REMARK    5  A    between atoms: C_14  and  N_15
REMARK    6  A    between atoms: C_17  and  C_18
REMARK    7  A    between atoms: C_26  and  O_27
REMARK    8  A    between atoms: C_28  and  O_29
REMARK                            x       y       z     vdW  Elec       q    Type
REMARK                         _______ _______ _______ _____ _____    ______ ____
ROOT
ATOM      1  C   UNL     1       2.191   2.984  19.652  0.00  0.00    +0.000 C 
ATOM      2  C   UNL     1       2.569   3.145  18.170  0.00  0.00    +0.000 C 
ATOM      3  C   UNL     1       4.094   2.982  18.064  0.00  0.00    +0.000 C 
ATOM      4  C   UNL     1       4.567   2.534  19.453  0.00  0.00    +0.000 C 
ATOM      5  C   UNL     1       3.510   3.066  20.429  0.00  0.00    +0.000 C 
ENDROOT
BRANCH   3   6
ATOM      6  N   UNL     1       4.769   4.160  17.532  0.00  0.00    +0.000 N 
ATOM      7  C   UNL     1       4.390   4.802  16.376  0.00  0.00    +0.000 A 
ATOM      8  C   UNL     1       5.206   5.905  16.191  0.00  0.00    +0.000 A 
ATOM      9  C   UNL     1       5.115   6.883  15.079  0.00  0.00    +0.000 C 
ATOM     10  C   UNL     1       6.130   5.925  17.286  0.00  0.00    +0.000 A 
ATOM     11  C   UNL     1       7.205   6.729  17.703  0.00  0.00    +0.000 A 
ATOM     12  N   UNL     1       7.689   7.820  16.997  0.00  0.00    +0.000 N 
ATOM     13  N   UNL     1       7.819   6.450  18.870  0.00  0.00    +0.000 NA
ATOM     14  C   UNL     1       7.388   5.394  19.579  0.00  0.00    +0.000 A 
ATOM     15  N   UNL     1       6.401   4.539  19.269  0.00  0.00    +0.000 NA
ATOM     16  C   UNL     1       5.809   4.849  18.107  0.00  0.00    +0.000 A 
ATOM     17  H   UNL     1       7.015   8.294  16.417  0.00  0.00    +0.000 HD
ATOM     18  H   UNL     1       8.263   8.403  17.595  0.00  0.00    +0.000 HD
ENDBRANCH   3   6
BRANCH   4  19
ATOM     19  O   UNL     1       4.599   1.094  19.537  0.00  0.00    +0.000 OA
ATOM     20  H   UNL     1       4.194   0.824  20.380  0.00  0.00    +0.000 HD
ENDBRANCH   4  19
BRANCH   5  21
ATOM     21  O   UNL     1       3.428   2.264  21.606  0.00  0.00    +0.000 OA
ATOM     22  H   UNL     1       4.312   1.867  21.738  0.00  0.00    +0.000 HD
ENDBRANCH   5  21
BRANCH   1  23
ATOM     23  C   UNL     1       1.173   4.026  20.141  0.00  0.00    +0.000 C 
BRANCH  23  24
ATOM     24  C   UNL     1       1.820   5.152  20.952  0.00  0.00    +0.000 C 
BRANCH  24  33
ATOM     25  C   UNL     1      -0.285  12.153  21.846  0.00  0.00    +0.000 C 
ATOM     26  N   UNL     1       0.243  12.286  20.501  0.00  0.00    +0.000 N 
ATOM     27  C   UNL     1       0.735  11.098  19.930  0.00  0.00    +0.000 A 
ATOM     28  C   UNL     1       1.279  11.191  18.651  0.00  0.00    +0.000 A 
ATOM     29  C   UNL     1       1.840  10.065  18.063  0.00  0.00    +0.000 A 
ATOM     30  C   UNL     1       1.850   8.859  18.763  0.00  0.00    +0.000 A 
ATOM     31  C   UNL     1       2.427   7.704  18.211  0.00  0.00    +0.000 A 
ATOM     32  C   UNL     1       2.425   6.507  18.921  0.00  0.00    +0.000 A 
ATOM     33  C   UNL     1       1.841   6.452  20.185  0.00  0.00    +0.000 A 
ATOM     34  C   UNL     1       1.261   7.618  20.722  0.00  0.00    +0.000 A 
ATOM     35  C   UNL     1       1.263   8.832  20.044  0.00  0.00    +0.000 A 
ATOM     36  N   UNL     1       0.728   9.933  20.613  0.00  0.00    +0.000 NA
ATOM     37  H   UNL     1      -0.424  12.710  19.865  0.00  0.00    +0.000 HD
ENDBRANCH  24  33
ENDBRANCH  23  24
ENDBRANCH   1  23
TORSDOF 6
ENDMDL
MODEL 2
REMARK VINA RESULT:      -9.7      4.913      7.603
REMARK  Name = 
REMARK  8 active torsions:
REMARK  status: ('A' for Active; 'I' for Inactive)
REMARK    1  A    between atoms: C_1  and  N_2
REMARK    2  A    between atoms: C_9  and  C_10
REMARK    3  A    between atoms: C_10  and  C_11
REMARK    4  A    between atoms: C_11  and  C_12
REMARK    5  A    between atoms: C_14  and  N_15
REMARK    6  A    between atoms: C_17  and  C_18
REMARK    7  A    between atoms: C_26  and  O_27
REMARK    8  A    between atoms: C_28  and  O_29
REMARK                            x       y       z     vdW  Elec       q    Type
REMARK                         _______ _______ _______ _____ _____    ______ ____
ROOT
ATOM      1  C   UNL     1       7.645   6.773  17.956  0.00  0.00    +0.000 C 
ATOM      2  C   UNL     1       7.149   5.970  19.171  0.00  0.00    +0.000 C 
ATOM      3  C   UNL     1       6.375   4.755  18.635  0.00  0.00    +0.000 C 
ATOM      4  C   UNL     1       6.593   4.754  17.116  0.00  0.00    +0.000 C 
ATOM      5  C   UNL     1       6.881   6.216  16.749  0.00  0.00    +0.000 C 
ENDROOT
BRANCH   3   6
ATOM      6  N   UNL     1       4.980   4.722  19.058  0.00  0.00    +0.000 N 
ATOM      7  C   UNL     1       4.291   5.825  19.509  0.00  0.00    +0.000 A 
ATOM      8  C   UNL     1       2.984   5.455  19.776  0.00  0.00    +0.000 A 
ATOM      9  C   UNL     1       1.902   6.351  20.256  0.00  0.00    +0.000 C 
ATOM     10  C   UNL     1       2.881   4.057  19.480  0.00  0.00    +0.000 A 
ATOM     11  C   UNL     1       1.881   3.070  19.538  0.00  0.00    +0.000 A 
ATOM     12  N   UNL     1       0.594   3.283  20.009  0.00  0.00    +0.000 N 
ATOM     13  N   UNL     1       2.162   1.826  19.102  0.00  0.00    +0.000 NA
ATOM     14  C   UNL     1       3.400   1.575  18.648  0.00  0.00    +0.000 A 
ATOM     15  N   UNL     1       4.440   2.420  18.577  0.00  0.00    +0.000 NA
ATOM     16  C   UNL     1       4.125   3.649  19.013  0.00  0.00    +0.000 A 
ATOM     17  H   UNL     1       0.246   4.223  19.907  0.00  0.00    +0.000 HD
ATOM     18  H   UNL     1      -0.021   2.536  19.710  0.00  0.00    +0.000 HD
ENDBRANCH   3   6
BRANCH   4  19
ATOM     19  O   UNL     1       7.739   3.950  16.770  0.00  0.00    +0.000 OA
ATOM     20  H   UNL     1       7.996   3.426  17.549  0.00  0.00    +0.000 HD
ENDBRANCH   4  19
BRANCH   5  21
ATOM     21  O   UNL     1       7.688   6.316  15.577  0.00  0.00    +0.000 OA
ATOM     22  H   UNL     1       8.581   5.999  15.823  0.00  0.00    +0.000 HD
ENDBRANCH   5  21
BRANCH   1  23
ATOM     23  C   UNL     1       7.454   8.290  18.105  0.00  0.00    +0.000 C 
BRANCH  23  24
ATOM     24  C   UNL     1       8.590   9.095  17.467  0.00  0.00    +0.000 C 
BRANCH  24  33
ATOM     25  C   UNL     1      10.873  16.075  16.903  0.00  0.00    +0.000 C 
ATOM     26  N   UNL     1      11.005  15.950  18.343  0.00  0.00    +0.000 N 
ATOM     27  C   UNL     1      10.681  14.685  18.867  0.00  0.00    +0.000 A 
ATOM     28  C   UNL     1      10.765  14.535  20.249  0.00  0.00    +0.000 A 
ATOM     29  C   UNL     1      10.394  13.329  20.829  0.00  0.00    +0.000 A 
ATOM     30  C   UNL     1       9.942  12.288  20.019  0.00  0.00    +0.000 A 
ATOM     31  C   UNL     1       9.537  11.062  20.570  0.00  0.00    +0.000 A 
ATOM     32  C   UNL     1       9.092  10.031  19.747  0.00  0.00    +0.000 A 
ATOM     33  C   UNL     1       9.054  10.215  18.365  0.00  0.00    +0.000 A 
ATOM     34  C   UNL     1       9.470  11.449  17.828  0.00  0.00    +0.000 A 
ATOM     35  C   UNL     1       9.902  12.503  18.627  0.00  0.00    +0.000 A 
ATOM     36  N   UNL     1      10.257  13.681  18.070  0.00  0.00    +0.000 NA
ATOM     37  H   UNL     1      11.927  16.220  18.671  0.00  0.00    +0.000 HD
ENDBRANCH  24  33
ENDBRANCH  23  24
ENDBRANCH   1  23
TORSDOF 6
ENDMDL
MODEL 3
REMARK VINA RESULT:      -9.5      3.765      9.297
REMARK  Name = 
REMARK  8 active torsions:
REMARK  status: ('A' for Active; 'I' for Inactive)
REMARK    1  A    between atoms: C_1  and  N_2
REMARK    2  A    between atoms: C_9  and  C_10
REMARK    3  A    between atoms: C_10  and  C_11
REMARK    4  A    between atoms: C_11  and  C_12
REMARK    5  A    between atoms: C_14  and  N_15
REMARK    6  A    between atoms: C_17  and  C_18
REMARK    7  A    between atoms: C_26  and  O_27
REMARK    8  A    between atoms: C_28  and  O_29
REMARK                            x       y       z     vdW  Elec       q    Type
REMARK                         _______ _______ _______ _____ _____    ______ ____
ROOT
ATOM      1  C   UNL     1       0.840   9.844  21.717  0.00  0.00    +0.000 C 
ATOM      2  C   UNL     1       0.747  10.752  20.478  0.00  0.00    +0.000 C 
ATOM      3  C   UNL     1      -0.531  11.594  20.621  0.00  0.00    +0.000 C 
ATOM      4  C   UNL     1      -1.067  11.311  22.030  0.00  0.00    +0.000 C 
ATOM      5  C   UNL     1      -0.535   9.918  22.391  0.00  0.00    +0.000 C 
ENDROOT
BRANCH   3   6
ATOM      6  N   UNL     1      -1.489  11.383  19.542  0.00  0.00    +0.000 N 
ATOM      7  C   UNL     1      -1.245  10.587  18.446  0.00  0.00    +0.000 A 
ATOM      8  C   UNL     1      -2.376  10.567  17.650  0.00  0.00    +0.000 A 
ATOM      9  C   UNL     1      -2.542   9.807  16.385  0.00  0.00    +0.000 C 
ATOM     10  C   UNL     1      -3.350  11.399  18.292  0.00  0.00    +0.000 A 
ATOM     11  C   UNL     1      -4.666  11.821  18.032  0.00  0.00    +0.000 A 
ATOM     12  N   UNL     1      -5.385  11.492  16.893  0.00  0.00    +0.000 N 
ATOM     13  N   UNL     1      -5.299  12.589  18.940  0.00  0.00    +0.000 NA
ATOM     14  C   UNL     1      -4.633  12.940  20.052  0.00  0.00    +0.000 A 
ATOM     15  N   UNL     1      -3.373  12.629  20.392  0.00  0.00    +0.000 NA
ATOM     16  C   UNL     1      -2.775  11.860  19.470  0.00  0.00    +0.000 A 
ATOM     17  H   UNL     1      -5.136  10.616  16.461  0.00  0.00    +0.000 HD
ATOM     18  H   UNL     1      -6.374  11.662  17.036  0.00  0.00    +0.000 HD
ENDBRANCH   3   6
BRANCH   4  19
ATOM     19  O   UNL     1      -0.546  12.270  22.973  0.00  0.00    +0.000 OA
ATOM     20  H   UNL     1      -1.005  13.118  22.837  0.00  0.00    +0.000 HD
ENDBRANCH   4  19
BRANCH   5  21
ATOM     21  O   UNL     1      -0.390   9.758  23.801  0.00  0.00    +0.000 OA
ATOM     22  H   UNL     1       0.564   9.627  23.973  0.00  0.00    +0.000 HD
ENDBRANCH   5  21
BRANCH   1  23
ATOM     23  C   UNL     1       1.239   8.397  21.386  0.00  0.00    +0.000 C 
BRANCH  23  24
ATOM     24  C   UNL     1       1.839   8.254  19.984  0.00  0.00    +0.000 C 
BRANCH  24  33
ATOM     25  C   UNL     1       6.139   4.534  15.303  0.00  0.00    +0.000 C 
ATOM     26  N   UNL     1       5.601   3.389  16.014  0.00  0.00    +0.000 N 
ATOM     27  C   UNL     1       4.664   3.694  17.019  0.00  0.00    +0.000 A 
ATOM     28  C   UNL     1       4.149   2.623  17.745  0.00  0.00    +0.000 A 
ATOM     29  C   UNL     1       3.270   2.868  18.793  0.00  0.00    +0.000 A 
ATOM     30  C   UNL     1       2.919   4.182  19.100  0.00  0.00    +0.000 A 
ATOM     31  C   UNL     1       2.051   4.470  20.166  0.00  0.00    +0.000 A 
ATOM     32  C   UNL     1       1.708   5.788  20.458  0.00  0.00    +0.000 A 
ATOM     33  C   UNL     1       2.222   6.826  19.684  0.00  0.00    +0.000 A 
ATOM     34  C   UNL     1       3.087   6.519  18.615  0.00  0.00    +0.000 A 
ATOM     35  C   UNL     1       3.462   5.214  18.311  0.00  0.00    +0.000 A 
ATOM     36  N   UNL     1       4.323   4.969  17.299  0.00  0.00    +0.000 NA
ATOM     37  H   UNL     1       5.204   2.697  15.387  0.00  0.00    +0.000 HD
ENDBRANCH  24  33
ENDBRANCH  23  24
ENDBRANCH   1  23
TORSDOF 6
ENDMDL
MODEL 4
REMARK VINA RESULT:      -9.3      3.862      9.339
REMARK  Name = 
REMARK  8 active torsions:
REMARK  status: ('A' for Active; 'I' for Inactive)
REMARK    1  A    between atoms: C_1  and  N_2
REMARK    2  A    between atoms: C_9  and  C_10
REMARK    3  A    between atoms: C_10  and  C_11
REMARK    4  A    between atoms: C_11  and  C_12
REMARK    5  A    between atoms: C_14  and  N_15
REMARK    6  A    between atoms: C_17  and  C_18
REMARK    7  A    between atoms: C_26  and  O_27
REMARK    8  A    between atoms: C_28  and  O_29
REMARK                            x       y       z     vdW  Elec       q    Type
REMARK                         _______ _______ _______ _____ _____    ______ ____
ROOT
ATOM      1  C   UNL     1       0.854  10.196  21.647  0.00  0.00    +0.000 C 
ATOM      2  C   UNL     1       0.583  11.199  20.513  0.00  0.00    +0.000 C 
ATOM      3  C   UNL     1      -0.787  11.842  20.785  0.00  0.00    +0.000 C 
ATOM      4  C   UNL     1      -1.213  11.351  22.175  0.00  0.00    +0.000 C 
ATOM      5  C   UNL     1      -0.485  10.015  22.372  0.00  0.00    +0.000 C 
ENDROOT
BRANCH   3   6
ATOM      6  N   UNL     1      -1.759  11.609  19.724  0.00  0.00    +0.000 N 
ATOM      7  C   UNL     1      -1.538  10.770  18.655  0.00  0.00    +0.000 A 
ATOM      8  C   UNL     1      -2.678  10.741  17.870  0.00  0.00    +0.000 A 
ATOM      9  C   UNL     1      -2.868   9.939  16.635  0.00  0.00    +0.000 C 
ATOM     10  C   UNL     1      -3.631  11.612  18.491  0.00  0.00    +0.000 A 
ATOM     11  C   UNL     1      -4.943  12.046  18.228  0.00  0.00    +0.000 A 
ATOM     12  N   UNL     1      -5.678  11.689  17.108  0.00  0.00    +0.000 N 
ATOM     13  N   UNL     1      -5.554  12.857  19.114  0.00  0.00    +0.000 NA
ATOM     14  C   UNL     1      -4.872  13.236  20.206  0.00  0.00    +0.000 A 
ATOM     15  N   UNL     1      -3.613  12.916  20.546  0.00  0.00    +0.000 NA
ATOM     16  C   UNL     1      -3.037  12.104  19.647  0.00  0.00    +0.000 A 
ATOM     17  H   UNL     1      -5.448  10.794  16.706  0.00  0.00    +0.000 HD
ATOM     18  H   UNL     1      -6.662  11.881  17.254  0.00  0.00    +0.000 HD
ENDBRANCH   3   6
BRANCH   4  19
ATOM     19  O   UNL     1      -0.779  12.276  23.194  0.00  0.00    +0.000 OA
ATOM     20  H   UNL     1      -1.105  13.164  22.964  0.00  0.00    +0.000 HD
ENDBRANCH   4  19
BRANCH   5  21
ATOM     21  O   UNL     1      -0.254   9.739  23.752  0.00  0.00    +0.000 OA
ATOM     22  H   UNL     1      -1.114   9.474  24.134  0.00  0.00    +0.000 HD
ENDBRANCH   5  21
BRANCH   1  23
ATOM     23  C   UNL     1       1.424   8.856  21.156  0.00  0.00    +0.000 C 
BRANCH  23  24
ATOM     24  C   UNL     1       1.119   8.589  19.678  0.00  0.00    +0.000 C 
BRANCH  24  33
ATOM     25  C   UNL     1       4.361   2.049  20.657  0.00  0.00    +0.000 C 
ATOM     26  N   UNL     1       5.123   2.464  19.493  0.00  0.00    +0.000 N 
ATOM     27  C   UNL     1       4.810   3.743  18.996  0.00  0.00    +0.000 A 
ATOM     28  C   UNL     1       5.497   4.164  17.861  0.00  0.00    +0.000 A 
ATOM     29  C   UNL     1       5.183   5.389  17.286  0.00  0.00    +0.000 A 
ATOM     30  C   UNL     1       4.185   6.177  17.857  0.00  0.00    +0.000 A 
ATOM     31  C   UNL     1       3.824   7.412  17.293  0.00  0.00    +0.000 A 
ATOM     32  C   UNL     1       2.827   8.189  17.876  0.00  0.00    +0.000 A 
ATOM     33  C   UNL     1       2.187   7.743  19.032  0.00  0.00    +0.000 A 
ATOM     34  C   UNL     1       2.565   6.504  19.588  0.00  0.00    +0.000 A 
ATOM     35  C   UNL     1       3.545   5.699  19.017  0.00  0.00    +0.000 A 
ATOM     36  N   UNL     1       3.849   4.502  19.565  0.00  0.00    +0.000 NA
ATOM     37  H   UNL     1       6.125   2.401  19.644  0.00  0.00    +0.000 HD
ENDBRANCH  24  33
ENDBRANCH  23  24
ENDBRANCH   1  23
TORSDOF 6
ENDMDL
MODEL 5
REMARK VINA RESULT:      -9.1      1.358      2.232
REMARK  Name = 
REMARK  8 active torsions:
REMARK  status: ('A' for Active; 'I' for Inactive)
REMARK    1  A    between atoms: C_1  and  N_2
REMARK    2  A    between atoms: C_9  and  C_10
REMARK    3  A    between atoms: C_10  and  C_11
REMARK    4  A    between atoms: C_11  and  C_12
REMARK    5  A    between atoms: C_14  and  N_15
REMARK    6  A    between atoms: C_17  and  C_18
REMARK    7  A    between atoms: C_26  and  O_27
REMARK    8  A    between atoms: C_28  and  O_29
REMARK                            x       y       z     vdW  Elec       q    Type
REMARK                         _______ _______ _______ _____ _____    ______ ____
ROOT
ATOM      1  C   UNL     1       1.356   3.786  19.727  0.00  0.00    +0.000 C 
ATOM      2  C   UNL     1       1.957   4.178  18.366  0.00  0.00    +0.000 C 
ATOM      3  C   UNL     1       3.217   3.323  18.156  0.00  0.00    +0.000 C 
ATOM      4  C   UNL     1       3.230   2.304  19.303  0.00  0.00    +0.000 C 
ATOM      5  C   UNL     1       2.438   2.966  20.438  0.00  0.00    +0.000 C 
ENDROOT
BRANCH   3   6
ATOM      6  N   UNL     1       4.436   4.109  18.015  0.00  0.00    +0.000 N 
ATOM      7  C   UNL     1       5.218   4.506  19.076  0.00  0.00    +0.000 A 
ATOM      8  C   UNL     1       6.318   5.188  18.587  0.00  0.00    +0.000 A 
ATOM      9  C   UNL     1       7.423   5.760  19.397  0.00  0.00    +0.000 C 
ATOM     10  C   UNL     1       6.191   5.211  17.160  0.00  0.00    +0.000 A 
ATOM     11  C   UNL     1       6.921   5.731  16.076  0.00  0.00    +0.000 A 
ATOM     12  N   UNL     1       8.078   6.485  16.199  0.00  0.00    +0.000 N 
ATOM     13  N   UNL     1       6.494   5.487  14.822  0.00  0.00    +0.000 NA
ATOM     14  C   UNL     1       5.370   4.771  14.659  0.00  0.00    +0.000 A 
ATOM     15  N   UNL     1       4.577   4.254  15.610  0.00  0.00    +0.000 NA
ATOM     16  C   UNL     1       5.033   4.510  16.845  0.00  0.00    +0.000 A 
ATOM     17  H   UNL     1       8.630   6.301  17.021  0.00  0.00    +0.000 HD
ATOM     18  H   UNL     1       8.576   6.518  15.317  0.00  0.00    +0.000 HD
ENDBRANCH   3   6
BRANCH   4  19
ATOM     19  O   UNL     1       2.558   1.089  18.910  0.00  0.00    +0.000 OA
ATOM     20  H   UNL     1       2.627   0.998  17.943  0.00  0.00    +0.000 HD
ENDBRANCH   4  19
BRANCH   5  21
ATOM     21  O   UNL     1       1.828   1.997  21.290  0.00  0.00    +0.000 OA
ATOM     22  H   UNL     1       2.554   1.485  21.699  0.00  0.00    +0.000 HD
ENDBRANCH   5  21
BRANCH   1  23
ATOM     23  C   UNL     1       0.905   4.991  20.567  0.00  0.00    +0.000 C 
BRANCH  23  24
ATOM     24  C   UNL     1       2.028   6.008  20.794  0.00  0.00    +0.000 C 
BRANCH  24  33
ATOM     25  C   UNL     1      -1.772  11.932  22.965  0.00  0.00    +0.000 C 
ATOM     26  N   UNL     1      -1.386  12.425  21.656  0.00  0.00    +0.000 N 
ATOM     27  C   UNL     1      -0.640  11.526  20.872  0.00  0.00    +0.000 A 
ATOM     28  C   UNL     1      -0.224  11.975  19.621  0.00  0.00    +0.000 A 
ATOM     29  C   UNL     1       0.572  11.157  18.831  0.00  0.00    +0.000 A 
ATOM     30  C   UNL     1       0.943   9.898  19.303  0.00  0.00    +0.000 A 
ATOM     31  C   UNL     1       1.765   9.051  18.543  0.00  0.00    +0.000 A 
ATOM     32  C   UNL     1       2.123   7.796  19.027  0.00  0.00    +0.000 A 
ATOM     33  C   UNL     1       1.658   7.374  20.272  0.00  0.00    +0.000 A 
ATOM     34  C   UNL     1       0.829   8.234  21.020  0.00  0.00    +0.000 A 
ATOM     35  C   UNL     1       0.469   9.500  20.569  0.00  0.00    +0.000 A 
ATOM     36  N   UNL     1      -0.297  10.305  21.336  0.00  0.00    +0.000 NA
ATOM     37  H   UNL     1      -2.182  12.754  21.118  0.00  0.00    +0.000 HD
ENDBRANCH  24  33
ENDBRANCH  23  24
ENDBRANCH   1  23
TORSDOF 6
ENDMDL
MODEL 6
REMARK VINA RESULT:      -9.1      1.744      2.581
REMARK  Name = 
REMARK  8 active torsions:
REMARK  status: ('A' for Active; 'I' for Inactive)
REMARK    1  A    between atoms: C_1  and  N_2
REMARK    2  A    between atoms: C_9  and  C_10
REMARK    3  A    between atoms: C_10  and  C_11
REMARK    4  A    between atoms: C_11  and  C_12
REMARK    5  A    between atoms: C_14  and  N_15
REMARK    6  A    between atoms: C_17  and  C_18
REMARK    7  A    between atoms: C_26  and  O_27
REMARK    8  A    between atoms: C_28  and  O_29
REMARK                            x       y       z     vdW  Elec       q    Type
REMARK                         _______ _______ _______ _____ _____    ______ ____
ROOT
ATOM      1  C   UNL     1       1.929   4.172  19.391  0.00  0.00    +0.000 C 
ATOM      2  C   UNL     1       2.256   4.517  17.928  0.00  0.00    +0.000 C 
ATOM      3  C   UNL     1       3.366   3.558  17.467  0.00  0.00    +0.000 C 
ATOM      4  C   UNL     1       3.538   2.538  18.599  0.00  0.00    +0.000 C 
ATOM      5  C   UNL     1       3.066   3.260  19.868  0.00  0.00    +0.000 C 
ENDROOT
BRANCH   3   6
ATOM      6  N   UNL     1       4.588   4.239  17.058  0.00  0.00    +0.000 N 
ATOM      7  C   UNL     1       5.377   4.975  17.912  0.00  0.00    +0.000 A 
ATOM      8  C   UNL     1       6.479   5.437  17.214  0.00  0.00    +0.000 A 
ATOM      9  C   UNL     1       7.590   6.248  17.771  0.00  0.00    +0.000 C 
ATOM     10  C   UNL     1       6.345   4.964  15.868  0.00  0.00    +0.000 A 
ATOM     11  C   UNL     1       7.072   5.071  14.669  0.00  0.00    +0.000 A 
ATOM     12  N   UNL     1       8.233   5.813  14.519  0.00  0.00    +0.000 N 
ATOM     13  N   UNL     1       6.637   4.409  13.579  0.00  0.00    +0.000 NA
ATOM     14  C   UNL     1       5.509   3.687  13.679  0.00  0.00    +0.000 A 
ATOM     15  N   UNL     1       4.718   3.538  14.752  0.00  0.00    +0.000 NA
ATOM     16  C   UNL     1       5.182   4.204  15.820  0.00  0.00    +0.000 A 
ATOM     17  H   UNL     1       8.788   5.922  15.353  0.00  0.00    +0.000 HD
ATOM     18  H   UNL     1       8.727   5.534  13.679  0.00  0.00    +0.000 HD
ENDBRANCH   3   6
BRANCH   4  19
ATOM     19  O   UNL     1       2.699   1.386  18.375  0.00  0.00    +0.000 OA
ATOM     20  H   UNL     1       2.136   1.256  19.159  0.00  0.00    +0.000 HD
ENDBRANCH   4  19
BRANCH   5  21
ATOM     21  O   UNL     1       2.573   2.343  20.843  0.00  0.00    +0.000 OA
ATOM     22  H   UNL     1       1.881   1.809  20.404  0.00  0.00    +0.000 HD
ENDBRANCH   5  21
BRANCH   1  23
ATOM     23  C   UNL     1       1.771   5.407  20.291  0.00  0.00    +0.000 C 
BRANCH  23  24
ATOM     24  C   UNL     1       2.724   6.544  19.909  0.00  0.00    +0.000 C 
BRANCH  24  33
ATOM     25  C   UNL     1      -1.677  11.468  23.169  0.00  0.00    +0.000 C 
ATOM     26  N   UNL     1      -1.689  12.055  21.842  0.00  0.00    +0.000 N 
ATOM     27  C   UNL     1      -0.955  11.352  20.869  0.00  0.00    +0.000 A 
ATOM     28  C   UNL     1      -0.916  11.902  19.590  0.00  0.00    +0.000 A 
ATOM     29  C   UNL     1      -0.152  11.288  18.605  0.00  0.00    +0.000 A 
ATOM     30  C   UNL     1       0.563  10.132  18.914  0.00  0.00    +0.000 A 
ATOM     31  C   UNL     1       1.363   9.495  17.951  0.00  0.00    +0.000 A 
ATOM     32  C   UNL     1       2.069   8.339  18.274  0.00  0.00    +0.000 A 
ATOM     33  C   UNL     1       1.976   7.806  19.559  0.00  0.00    +0.000 A 
ATOM     34  C   UNL     1       1.164   8.454  20.511  0.00  0.00    +0.000 A 
ATOM     35  C   UNL     1       0.462   9.620  20.222  0.00  0.00    +0.000 A 
ATOM     36  N   UNL     1      -0.276  10.227  21.177  0.00  0.00    +0.000 NA
ATOM     37  H   UNL     1      -2.631  12.214  21.498  0.00  0.00    +0.000 HD
ENDBRANCH  24  33
ENDBRANCH  23  24
ENDBRANCH   1  23
TORSDOF 6
ENDMDL
MODEL 7
REMARK VINA RESULT:      -8.8      3.952      9.345
REMARK  Name = 
REMARK  8 active torsions:
REMARK  status: ('A' for Active; 'I' for Inactive)
REMARK    1  A    between atoms: C_1  and  N_2
REMARK    2  A    between atoms: C_9  and  C_10
REMARK    3  A    between atoms: C_10  and  C_11
REMARK    4  A    between atoms: C_11  and  C_12
REMARK    5  A    between atoms: C_14  and  N_15
REMARK    6  A    between atoms: C_17  and  C_18
REMARK    7  A    between atoms: C_26  and  O_27
REMARK    8  A    between atoms: C_28  and  O_29
REMARK                            x       y       z     vdW  Elec       q    Type
REMARK                         _______ _______ _______ _____ _____    ______ ____
ROOT
ATOM      1  C   UNL     1       1.445  11.038  19.360  0.00  0.00    +0.000 C 
ATOM      2  C   UNL     1       0.522  12.178  18.897  0.00  0.00    +0.000 C 
ATOM      3  C   UNL     1      -0.782  12.070  19.705  0.00  0.00    +0.000 C 
ATOM      4  C   UNL     1      -0.531  10.991  20.766  0.00  0.00    +0.000 C 
ATOM      5  C   UNL     1       0.559  10.088  20.173  0.00  0.00    +0.000 C 
ENDROOT
BRANCH   3   6
ATOM      6  N   UNL     1      -1.963  11.859  18.877  0.00  0.00    +0.000 N 
ATOM      7  C   UNL     1      -1.928  11.287  17.626  0.00  0.00    +0.000 A 
ATOM      8  C   UNL     1      -3.222  11.190  17.144  0.00  0.00    +0.000 A 
ATOM      9  C   UNL     1      -3.628  10.607  15.841  0.00  0.00    +0.000 C 
ATOM     10  C   UNL     1      -4.081  11.739  18.151  0.00  0.00    +0.000 A 
ATOM     11  C   UNL     1      -5.460  11.962  18.308  0.00  0.00    +0.000 A 
ATOM     12  N   UNL     1      -6.415  11.685  17.341  0.00  0.00    +0.000 N 
ATOM     13  N   UNL     1      -5.913  12.468  19.472  0.00  0.00    +0.000 NA
ATOM     14  C   UNL     1      -5.020  12.760  20.430  0.00  0.00    +0.000 A 
ATOM     15  N   UNL     1      -3.686  12.624  20.384  0.00  0.00    +0.000 NA
ATOM     16  C   UNL     1      -3.269  12.113  19.216  0.00  0.00    +0.000 A 
ATOM     17  H   UNL     1      -6.184  10.938  16.706  0.00  0.00    +0.000 HD
ATOM     18  H   UNL     1      -7.340  11.661  17.754  0.00  0.00    +0.000 HD
ENDBRANCH   3   6
BRANCH   4  19
ATOM     19  O   UNL     1      -0.037  11.584  21.985  0.00  0.00    +0.000 OA
ATOM     20  H   UNL     1      -0.765  12.070  22.410  0.00  0.00    +0.000 HD
ENDBRANCH   4  19
BRANCH   5  21
ATOM     21  O   UNL     1       1.334   9.458  21.192  0.00  0.00    +0.000 OA
ATOM     22  H   UNL     1       1.366  10.080  21.946  0.00  0.00    +0.000 HD
ENDBRANCH   5  21
BRANCH   1  23
ATOM     23  C   UNL     1       2.150  10.313  18.202  0.00  0.00    +0.000 C 
BRANCH  23  24
ATOM     24  C   UNL     1       1.464   8.998  17.822  0.00  0.00    +0.000 C 
BRANCH  24  33
ATOM     25  C   UNL     1       1.717   2.671  21.584  0.00  0.00    +0.000 C 
ATOM     26  N   UNL     1       3.003   2.548  20.922  0.00  0.00    +0.000 N 
ATOM     27  C   UNL     1       3.359   3.631  20.097  0.00  0.00    +0.000 A 
ATOM     28  C   UNL     1       4.572   3.535  19.420  0.00  0.00    +0.000 A 
ATOM     29  C   UNL     1       4.945   4.543  18.540  0.00  0.00    +0.000 A 
ATOM     30  C   UNL     1       4.098   5.634  18.348  0.00  0.00    +0.000 A 
ATOM     31  C   UNL     1       4.430   6.662  17.451  0.00  0.00    +0.000 A 
ATOM     32  C   UNL     1       3.575   7.746  17.274  0.00  0.00    +0.000 A 
ATOM     33  C   UNL     1       2.385   7.816  17.996  0.00  0.00    +0.000 A 
ATOM     34  C   UNL     1       2.070   6.780  18.897  0.00  0.00    +0.000 A 
ATOM     35  C   UNL     1       2.895   5.676  19.082  0.00  0.00    +0.000 A 
ATOM     36  N   UNL     1       2.536   4.688  19.929  0.00  0.00    +0.000 NA
ATOM     37  H   UNL     1       3.758   2.366  21.576  0.00  0.00    +0.000 HD
ENDBRANCH  24  33
ENDBRANCH  23  24
ENDBRANCH   1  23
TORSDOF 6
ENDMDL
MODEL 8
REMARK VINA RESULT:      -8.8      4.672      7.069
REMARK  Name = 
REMARK  8 active torsions:
REMARK  status: ('A' for Active; 'I' for Inactive)
REMARK    1  A    between atoms: C_1  and  N_2
REMARK    2  A    between atoms: C_9  and  C_10
REMARK    3  A    between atoms: C_10  and  C_11
REMARK    4  A    between atoms: C_11  and  C_12
REMARK    5  A    between atoms: C_14  and  N_15
REMARK    6  A    between atoms: C_17  and  C_18
REMARK    7  A    between atoms: C_26  and  O_27
REMARK    8  A    between atoms: C_28  and  O_29
REMARK                            x       y       z     vdW  Elec       q    Type
REMARK                         _______ _______ _______ _____ _____    ______ ____
ROOT
ATOM      1  C   UNL     1       7.766   6.732  18.012  0.00  0.00    +0.000 C 
ATOM      2  C   UNL     1       7.230   5.931  19.211  0.00  0.00    +0.000 C 
ATOM      3  C   UNL     1       6.400   4.764  18.652  0.00  0.00    +0.000 C 
ATOM      4  C   UNL     1       6.622   4.781  17.134  0.00  0.00    +0.000 C 
ATOM      5  C   UNL     1       6.978   6.234  16.795  0.00  0.00    +0.000 C 
ENDROOT
BRANCH   3   6
ATOM      6  N   UNL     1       5.005   4.789  19.073  0.00  0.00    +0.000 N 
ATOM      7  C   UNL     1       4.344   5.930  19.467  0.00  0.00    +0.000 A 
ATOM      8  C   UNL     1       3.028   5.608  19.749  0.00  0.00    +0.000 A 
ATOM      9  C   UNL     1       1.970   6.555  20.181  0.00  0.00    +0.000 C 
ATOM     10  C   UNL     1       2.888   4.200  19.521  0.00  0.00    +0.000 A 
ATOM     11  C   UNL     1       1.862   3.245  19.625  0.00  0.00    +0.000 A 
ATOM     12  N   UNL     1       0.581   3.515  20.082  0.00  0.00    +0.000 N 
ATOM     13  N   UNL     1       2.111   1.974  19.251  0.00  0.00    +0.000 NA
ATOM     14  C   UNL     1       3.343   1.668  18.814  0.00  0.00    +0.000 A 
ATOM     15  N   UNL     1       4.404   2.481  18.703  0.00  0.00    +0.000 NA
ATOM     16  C   UNL     1       4.122   3.737  19.078  0.00  0.00    +0.000 A 
ATOM     17  H   UNL     1       0.258   4.457  19.933  0.00  0.00    +0.000 HD
ATOM     18  H   UNL     1      -0.054   2.770  19.818  0.00  0.00    +0.000 HD
ENDBRANCH   3   6
BRANCH   4  19
ATOM     19  O   UNL     1       7.729   3.929  16.774  0.00  0.00    +0.000 OA
ATOM     20  H   UNL     1       7.378   3.061  16.509  0.00  0.00    +0.000 HD
ENDBRANCH   4  19
BRANCH   5  21
ATOM     21  O   UNL     1       7.793   6.317  15.626  0.00  0.00    +0.000 OA
ATOM     22  H   UNL     1       8.601   5.798  15.808  0.00  0.00    +0.000 HD
ENDBRANCH   5  21
BRANCH   1  23
ATOM     23  C   UNL     1       7.646   8.253  18.188  0.00  0.00    +0.000 C 
BRANCH  23  24
ATOM     24  C   UNL     1       8.826   9.015  17.577  0.00  0.00    +0.000 C 
BRANCH  24  33
ATOM     25  C   UNL     1       7.909  11.605  24.411  0.00  0.00    +0.000 C 
ATOM     26  N   UNL     1       8.624  12.747  23.871  0.00  0.00    +0.000 N 
ATOM     27  C   UNL     1       8.965  12.652  22.510  0.00  0.00    +0.000 A 
ATOM     28  C   UNL     1       9.680  13.715  21.963  0.00  0.00    +0.000 A 
ATOM     29  C   UNL     1      10.102  13.647  20.642  0.00  0.00    +0.000 A 
ATOM     30  C   UNL     1       9.804  12.516  19.884  0.00  0.00    +0.000 A 
ATOM     31  C   UNL     1      10.233  12.401  18.551  0.00  0.00    +0.000 A 
ATOM     32  C   UNL     1       9.924  11.266  17.807  0.00  0.00    +0.000 A 
ATOM     33  C   UNL     1       9.179  10.239  18.385  0.00  0.00    +0.000 A 
ATOM     34  C   UNL     1       8.752  10.373  19.721  0.00  0.00    +0.000 A 
ATOM     35  C   UNL     1       9.060  11.487  20.495  0.00  0.00    +0.000 A 
ATOM     36  N   UNL     1       8.660  11.556  21.783  0.00  0.00    +0.000 NA
ATOM     37  H   UNL     1       8.132  13.621  24.031  0.00  0.00    +0.000 HD
ENDBRANCH  24  33
ENDBRANCH  23  24
ENDBRANCH   1  23
TORSDOF 6
ENDMDL
MODEL 9
REMARK VINA RESULT:      -8.7      1.325      1.616
REMARK  Name = 
REMARK  8 active torsions:
REMARK  status: ('A' for Active; 'I' for Inactive)
REMARK    1  A    between atoms: C_1  and  N_2
REMARK    2  A    between atoms: C_9  and  C_10
REMARK    3  A    between atoms: C_10  and  C_11
REMARK    4  A    between atoms: C_11  and  C_12
REMARK    5  A    between atoms: C_14  and  N_15
REMARK    6  A    between atoms: C_17  and  C_18
REMARK    7  A    between atoms: C_26  and  O_27
REMARK    8  A    between atoms: C_28  and  O_29
REMARK                            x       y       z     vdW  Elec       q    Type
REMARK                         _______ _______ _______ _____ _____    ______ ____
ROOT
ATOM      1  C   UNL     1       1.578   4.066  19.926  0.00  0.00    +0.000 C 
ATOM      2  C   UNL     1       1.676   4.178  18.395  0.00  0.00    +0.000 C 
ATOM      3  C   UNL     1       2.721   3.153  17.925  0.00  0.00    +0.000 C 
ATOM      4  C   UNL     1       3.079   2.320  19.163  0.00  0.00    +0.000 C 
ATOM      5  C   UNL     1       2.789   3.233  20.361  0.00  0.00    +0.000 C 
ENDROOT
BRANCH   3   6
ATOM      6  N   UNL     1       3.856   3.755  17.237  0.00  0.00    +0.000 N 
ATOM      7  C   UNL     1       4.023   3.730  15.871  0.00  0.00    +0.000 A 
ATOM      8  C   UNL     1       5.171   4.433  15.550  0.00  0.00    +0.000 A 
ATOM      9  C   UNL     1       5.698   4.670  14.182  0.00  0.00    +0.000 C 
ATOM     10  C   UNL     1       5.730   4.900  16.784  0.00  0.00    +0.000 A 
ATOM     11  C   UNL     1       6.859   5.638  17.182  0.00  0.00    +0.000 A 
ATOM     12  N   UNL     1       7.838   6.102  16.316  0.00  0.00    +0.000 N 
ATOM     13  N   UNL     1       7.020   5.937  18.485  0.00  0.00    +0.000 NA
ATOM     14  C   UNL     1       6.100   5.496  19.359  0.00  0.00    +0.000 A 
ATOM     15  N   UNL     1       5.007   4.761  19.104  0.00  0.00    +0.000 NA
ATOM     16  C   UNL     1       4.874   4.486  17.798  0.00  0.00    +0.000 A 
ATOM     17  H   UNL     1       7.531   6.286  15.374  0.00  0.00    +0.000 HD
ATOM     18  H   UNL     1       8.392   6.824  16.762  0.00  0.00    +0.000 HD
ENDBRANCH   3   6
BRANCH   4  19
ATOM     19  O   UNL     1       2.237   1.152  19.249  0.00  0.00    +0.000 OA
ATOM     20  H   UNL     1       1.482   1.357  19.829  0.00  0.00    +0.000 HD
ENDBRANCH   4  19
BRANCH   5  21
ATOM     21  O   UNL     1       2.464   2.482  21.530  0.00  0.00    +0.000 OA
ATOM     22  H   UNL     1       1.643   2.869  21.894  0.00  0.00    +0.000 HD
ENDBRANCH   5  21
BRANCH   1  23
ATOM     23  C   UNL     1       1.533   5.428  20.637  0.00  0.00    +0.000 C 
BRANCH  23  24
ATOM     24  C   UNL     1       2.550   6.425  20.072  0.00  0.00    +0.000 C 
BRANCH  24  33
ATOM     25  C   UNL     1      -1.745  11.580  23.109  0.00  0.00    +0.000 C 
ATOM     26  N   UNL     1      -1.644  12.173  21.788  0.00  0.00    +0.000 N 
ATOM     27  C   UNL     1      -0.895  11.434  20.854  0.00  0.00    +0.000 A 
ATOM     28  C   UNL     1      -0.749  11.987  19.584  0.00  0.00    +0.000 A 
ATOM     29  C   UNL     1       0.035  11.335  18.641  0.00  0.00    +0.000 A 
ATOM     30  C   UNL     1       0.663  10.137  18.981  0.00  0.00    +0.000 A 
ATOM     31  C   UNL     1       1.480   9.460  18.062  0.00  0.00    +0.000 A 
ATOM     32  C   UNL     1       2.098   8.263  18.416  0.00  0.00    +0.000 A 
ATOM     33  C   UNL     1       1.898   7.730  19.689  0.00  0.00    +0.000 A 
ATOM     34  C   UNL     1       1.070   8.419  20.597  0.00  0.00    +0.000 A 
ATOM     35  C   UNL     1       0.455   9.625  20.277  0.00  0.00    +0.000 A 
ATOM     36  N   UNL     1      -0.302  10.270  21.192  0.00  0.00    +0.000 NA
ATOM     37  H   UNL     1      -2.553  12.388  21.391  0.00  0.00    +0.000 HD
ENDBRANCH  24  33
ENDBRANCH  23  24
ENDBRANCH   1  23
TORSDOF 6
ENDMDL
