MODEL 1
REMARK VINA RESULT:      -7.6      0.000      0.000
REMARK  Name = 
REMARK  6 active torsions:
REMARK  status: ('A' for Active; 'I' for Inactive)
REMARK    1  A    between atoms: C_2  and  C_3
REMARK    2  A    between atoms: C_3  and  S_4
REMARK    3  A    between atoms: S_4  and  C_5
REMARK    4  A    between atoms: N_15  and  C_16
REMARK    5  A    between atoms: C_16  and  C_17
REMARK    6  A    between atoms: C_17  and  C_18
REMARK                            x       y       z     vdW  Elec       q    Type
REMARK                         _______ _______ _______ _____ _____    ______ ____
ROOT
ATOM      1  O   UNL     1       7.448   7.838  16.955  0.00  0.00    +0.000 OA
ATOM      2  C   UNL     1       7.947   7.579  18.050  0.00  0.00    +0.000 C 
ATOM      3  N   UNL     1       8.581   8.554  18.805  0.00  0.00    +0.000 N 
ATOM      4  H   UNL     1       8.879   8.333  19.745  0.00  0.00    +0.000 HD
ENDROOT
BRANCH   2   5
ATOM      5  C   UNL     1       7.891   6.194  18.718  0.00  0.00    +0.000 C 
BRANCH   5   6
ATOM      6  S   UNL     1       7.302   4.938  17.525  0.00  0.00    +0.000 S 
BRANCH   6   7
ATOM      7  C   UNL     1       5.580   4.754  17.967  0.00  0.00    +0.000 A 
ATOM      8  C   UNL     1       4.647   5.660  17.443  0.00  0.00    +0.000 A 
ATOM      9  C   UNL     1       3.315   5.643  17.876  0.00  0.00    +0.000 A 
ATOM     10  C   UNL     1       2.913   4.733  18.849  0.00  0.00    +0.000 A 
ATOM     11  C   UNL     1       3.834   3.808  19.358  0.00  0.00    +0.000 A 
ATOM     12  C   UNL     1       5.161   3.827  18.927  0.00  0.00    +0.000 A 
ATOM     13  O   UNL     1       3.505   2.879  20.312  0.00  0.00    +0.000 OA
ATOM     14  C   UNL     1       2.087   2.743  20.455  0.00  0.00    +0.000 C 
ATOM     15  C   UNL     1       1.410   4.103  20.498  0.00  0.00    +0.000 C 
ATOM     16  O   UNL     1       1.608   4.808  19.266  0.00  0.00    +0.000 OA
ENDBRANCH   6   7
ENDBRANCH   5   6
ENDBRANCH   2   5
BRANCH   3  17
ATOM     17  C   UNL     1       8.710   9.929  18.335  0.00  0.00    +0.000 C 
BRANCH  17  18
ATOM     18  C   UNL     1      10.065  10.538  18.714  0.00  0.00    +0.000 C 
BRANCH  18  19
ATOM     19  C   UNL     1       9.928  11.695  19.679  0.00  0.00    +0.000 A 
ATOM     20  C   UNL     1       9.414  11.443  20.963  0.00  0.00    +0.000 A 
ATOM     21  C   UNL     1       9.319  12.468  21.908  0.00  0.00    +0.000 A 
ATOM     22  C   UNL     1       9.731  13.755  21.577  0.00  0.00    +0.000 A 
ATOM     23 CL   UNL     1       9.629  15.012  22.747  0.00  0.00    +0.000 Cl
ATOM     24  C   UNL     1      10.234  14.031  20.308  0.00  0.00    +0.000 A 
ATOM     25  C   UNL     1      10.334  13.005  19.365  0.00  0.00    +0.000 A 
ATOM     26 CL   UNL     1      10.985  13.408  17.815  0.00  0.00    +0.000 Cl
ENDBRANCH  18  19
ENDBRANCH  17  18
ENDBRANCH   3  17
TORSDOF 6
ENDMDL
MODEL 2
REMARK VINA RESULT:      -7.6      1.512      2.197
REMARK  Name = 
REMARK  6 active torsions:
REMARK  status: ('A' for Active; 'I' for Inactive)
REMARK    1  A    between atoms: C_2  and  C_3
REMARK    2  A    between atoms: C_3  and  S_4
REMARK    3  A    between atoms: S_4  and  C_5
REMARK    4  A    between atoms: N_15  and  C_16
REMARK    5  A    between atoms: C_16  and  C_17
REMARK    6  A    between atoms: C_17  and  C_18
REMARK                            x       y       z     vdW  Elec       q    Type
REMARK                         _______ _______ _______ _____ _____    ______ ____
ROOT
ATOM      1  O   UNL     1       5.660   7.691  17.579  0.00  0.00    +0.000 OA
ATOM      2  C   UNL     1       6.743   7.264  17.176  0.00  0.00    +0.000 C 
ATOM      3  N   UNL     1       7.904   8.014  17.290  0.00  0.00    +0.000 N 
ATOM      4  H   UNL     1       8.790   7.590  17.053  0.00  0.00    +0.000 HD
ENDROOT
BRANCH   2   5
ATOM      5  C   UNL     1       6.945   5.872  16.555  0.00  0.00    +0.000 C 
BRANCH   5   6
ATOM      6  S   UNL     1       7.071   4.604  17.868  0.00  0.00    +0.000 S 
BRANCH   6   7
ATOM      7  C   UNL     1       5.372   4.091  18.083  0.00  0.00    +0.000 A 
ATOM      8  C   UNL     1       4.489   4.207  17.000  0.00  0.00    +0.000 A 
ATOM      9  C   UNL     1       3.121   3.956  17.166  0.00  0.00    +0.000 A 
ATOM     10  C   UNL     1       2.625   3.606  18.417  0.00  0.00    +0.000 A 
ATOM     11  C   UNL     1       3.506   3.463  19.498  0.00  0.00    +0.000 A 
ATOM     12  C   UNL     1       4.869   3.716  19.332  0.00  0.00    +0.000 A 
ATOM     13  O   UNL     1       3.088   3.115  20.757  0.00  0.00    +0.000 OA
ATOM     14  C   UNL     1       1.756   2.591  20.749  0.00  0.00    +0.000 C 
ATOM     15  C   UNL     1       0.839   3.443  19.887  0.00  0.00    +0.000 C 
ATOM     16  O   UNL     1       1.269   3.428  18.520  0.00  0.00    +0.000 OA
ENDBRANCH   6   7
ENDBRANCH   5   6
ENDBRANCH   2   5
BRANCH   3  17
ATOM     17  C   UNL     1       7.902   9.352  17.873  0.00  0.00    +0.000 C 
BRANCH  17  18
ATOM     18  C   UNL     1       8.955   9.496  18.977  0.00  0.00    +0.000 C 
BRANCH  18  19
ATOM     19  C   UNL     1       9.644  10.843  18.945  0.00  0.00    +0.000 A 
ATOM     20  C   UNL     1      10.265  11.253  17.752  0.00  0.00    +0.000 A 
ATOM     21  C   UNL     1      10.867  12.510  17.657  0.00  0.00    +0.000 A 
ATOM     22  C   UNL     1      10.859  13.367  18.753  0.00  0.00    +0.000 A 
ATOM     23 CL   UNL     1      11.586  14.921  18.627  0.00  0.00    +0.000 Cl
ATOM     24  C   UNL     1      10.259  12.978  19.948  0.00  0.00    +0.000 A 
ATOM     25  C   UNL     1       9.652  11.723  20.042  0.00  0.00    +0.000 A 
ATOM     26 CL   UNL     1       8.908  11.310  21.546  0.00  0.00    +0.000 Cl
ENDBRANCH  18  19
ENDBRANCH  17  18
ENDBRANCH   3  17
TORSDOF 6
ENDMDL
MODEL 3
REMARK VINA RESULT:      -7.6      1.567      1.780
REMARK  Name = 
REMARK  6 active torsions:
REMARK  status: ('A' for Active; 'I' for Inactive)
REMARK    1  A    between atoms: C_2  and  C_3
REMARK    2  A    between atoms: C_3  and  S_4
REMARK    3  A    between atoms: S_4  and  C_5
REMARK    4  A    between atoms: N_15  and  C_16
REMARK    5  A    between atoms: C_16  and  C_17
REMARK    6  A    between atoms: C_17  and  C_18
REMARK                            x       y       z     vdW  Elec       q    Type
REMARK                         _______ _______ _______ _____ _____    ______ ____
ROOT
ATOM      1  O   UNL     1       7.654   6.270  18.911  0.00  0.00    +0.000 OA
ATOM      2  C   UNL     1       7.421   6.680  17.773  0.00  0.00    +0.000 C 
ATOM      3  N   UNL     1       7.685   7.991  17.407  0.00  0.00    +0.000 N 
ATOM      4  H   UNL     1       7.587   8.262  16.439  0.00  0.00    +0.000 HD
ENDROOT
BRANCH   2   5
ATOM      5  C   UNL     1       6.867   5.803  16.637  0.00  0.00    +0.000 C 
BRANCH   5   6
ATOM      6  S   UNL     1       5.268   6.469  16.045  0.00  0.00    +0.000 S 
BRANCH   6   7
ATOM      7  C   UNL     1       4.138   5.989  17.344  0.00  0.00    +0.000 A 
ATOM      8  C   UNL     1       3.398   6.984  17.997  0.00  0.00    +0.000 A 
ATOM      9  C   UNL     1       2.613   6.671  19.115  0.00  0.00    +0.000 A 
ATOM     10  C   UNL     1       2.578   5.366  19.595  0.00  0.00    +0.000 A 
ATOM     11  C   UNL     1       3.294   4.362  18.930  0.00  0.00    +0.000 A 
ATOM     12  C   UNL     1       4.078   4.675  17.819  0.00  0.00    +0.000 A 
ATOM     13  O   UNL     1       3.299   3.054  19.344  0.00  0.00    +0.000 OA
ATOM     14  C   UNL     1       2.249   2.788  20.279  0.00  0.00    +0.000 C 
ATOM     15  C   UNL     1       2.161   3.884  21.329  0.00  0.00    +0.000 C 
ATOM     16  O   UNL     1       1.832   5.141  20.725  0.00  0.00    +0.000 OA
ENDBRANCH   6   7
ENDBRANCH   5   6
ENDBRANCH   2   5
BRANCH   3  17
ATOM     17  C   UNL     1       8.231   8.959  18.354  0.00  0.00    +0.000 C 
BRANCH  17  18
ATOM     18  C   UNL     1       8.963  10.102  17.643  0.00  0.00    +0.000 C 
BRANCH  18  19
ATOM     19  C   UNL     1       9.290  11.248  18.577  0.00  0.00    +0.000 A 
ATOM     20  C   UNL     1      10.176  11.015  19.643  0.00  0.00    +0.000 A 
ATOM     21  C   UNL     1      10.550  12.053  20.499  0.00  0.00    +0.000 A 
ATOM     22  C   UNL     1      10.039  13.332  20.302  0.00  0.00    +0.000 A 
ATOM     23 CL   UNL     1      10.516  14.612  21.347  0.00  0.00    +0.000 Cl
ATOM     24  C   UNL     1       9.152  13.584  19.259  0.00  0.00    +0.000 A 
ATOM     25  C   UNL     1       8.782  12.547  18.399  0.00  0.00    +0.000 A 
ATOM     26 CL   UNL     1       7.693  12.931  17.111  0.00  0.00    +0.000 Cl
ENDBRANCH  18  19
ENDBRANCH  17  18
ENDBRANCH   3  17
TORSDOF 6
ENDMDL
MODEL 4
REMARK VINA RESULT:      -7.6      1.606      2.006
REMARK  Name = 
REMARK  6 active torsions:
REMARK  status: ('A' for Active; 'I' for Inactive)
REMARK    1  A    between atoms: C_2  and  C_3
REMARK    2  A    between atoms: C_3  and  S_4
REMARK    3  A    between atoms: S_4  and  C_5
REMARK    4  A    between atoms: N_15  and  C_16
REMARK    5  A    between atoms: C_16  and  C_17
REMARK    6  A    between atoms: C_17  and  C_18
REMARK                            x       y       z     vdW  Elec       q    Type
REMARK                         _______ _______ _______ _____ _____    ______ ____
ROOT
ATOM      1  O   UNL     1       7.885   6.410  18.847  0.00  0.00    +0.000 OA
ATOM      2  C   UNL     1       7.547   6.803  17.730  0.00  0.00    +0.000 C 
ATOM      3  N   UNL     1       7.640   8.140  17.374  0.00  0.00    +0.000 N 
ATOM      4  H   UNL     1       7.459   8.409  16.417  0.00  0.00    +0.000 HD
ENDROOT
BRANCH   2   5
ATOM      5  C   UNL     1       7.035   5.882  16.610  0.00  0.00    +0.000 C 
BRANCH   5   6
ATOM      6  S   UNL     1       5.298   6.285  16.200  0.00  0.00    +0.000 S 
BRANCH   6   7
ATOM      7  C   UNL     1       4.378   5.153  17.234  0.00  0.00    +0.000 A 
ATOM      8  C   UNL     1       4.381   3.789  16.911  0.00  0.00    +0.000 A 
ATOM      9  C   UNL     1       3.558   2.891  17.603  0.00  0.00    +0.000 A 
ATOM     10  C   UNL     1       2.717   3.354  18.609  0.00  0.00    +0.000 A 
ATOM     11  C   UNL     1       2.728   4.712  18.955  0.00  0.00    +0.000 A 
ATOM     12  C   UNL     1       3.546   5.606  18.262  0.00  0.00    +0.000 A 
ATOM     13  O   UNL     1       1.931   5.236  19.940  0.00  0.00    +0.000 OA
ATOM     14  C   UNL     1       1.374   4.213  20.773  0.00  0.00    +0.000 C 
ATOM     15  C   UNL     1       0.841   3.060  19.940  0.00  0.00    +0.000 C 
ATOM     16  O   UNL     1       1.899   2.429  19.208  0.00  0.00    +0.000 OA
ENDBRANCH   6   7
ENDBRANCH   5   6
ENDBRANCH   2   5
BRANCH   3  17
ATOM     17  C   UNL     1       8.122   9.153  18.307  0.00  0.00    +0.000 C 
BRANCH  17  18
ATOM     18  C   UNL     1       8.961  10.225  17.602  0.00  0.00    +0.000 C 
BRANCH  18  19
ATOM     19  C   UNL     1       9.334  11.365  18.525  0.00  0.00    +0.000 A 
ATOM     20  C   UNL     1      10.279  11.128  19.539  0.00  0.00    +0.000 A 
ATOM     21  C   UNL     1      10.696  12.161  20.381  0.00  0.00    +0.000 A 
ATOM     22  C   UNL     1      10.170  13.439  20.222  0.00  0.00    +0.000 A 
ATOM     23 CL   UNL     1      10.699  14.714  21.249  0.00  0.00    +0.000 Cl
ATOM     24  C   UNL     1       9.226  13.696  19.232  0.00  0.00    +0.000 A 
ATOM     25  C   UNL     1       8.812  12.663  18.386  0.00  0.00    +0.000 A 
ATOM     26 CL   UNL     1       7.653  13.052  17.164  0.00  0.00    +0.000 Cl
ENDBRANCH  18  19
ENDBRANCH  17  18
ENDBRANCH   3  17
TORSDOF 6
ENDMDL
MODEL 5
REMARK VINA RESULT:      -7.6      4.281      9.690
REMARK  Name = 
REMARK  6 active torsions:
REMARK  status: ('A' for Active; 'I' for Inactive)
REMARK    1  A    between atoms: C_2  and  C_3
REMARK    2  A    between atoms: C_3  and  S_4
REMARK    3  A    between atoms: S_4  and  C_5
REMARK    4  A    between atoms: N_15  and  C_16
REMARK    5  A    between atoms: C_16  and  C_17
REMARK    6  A    between atoms: C_17  and  C_18
REMARK                            x       y       z     vdW  Elec       q    Type
REMARK                         _______ _______ _______ _____ _____    ______ ____
ROOT
ATOM      1  O   UNL     1       6.880   5.228  19.382  0.00  0.00    +0.000 OA
ATOM      2  C   UNL     1       7.405   5.952  18.535  0.00  0.00    +0.000 C 
ATOM      3  N   UNL     1       7.235   5.720  17.179  0.00  0.00    +0.000 N 
ATOM      4  H   UNL     1       7.587   6.396  16.515  0.00  0.00    +0.000 HD
ENDROOT
BRANCH   2   5
ATOM      5  C   UNL     1       8.253   7.192  18.866  0.00  0.00    +0.000 C 
BRANCH   5   6
ATOM      6  S   UNL     1       7.951   8.513  17.637  0.00  0.00    +0.000 S 
BRANCH   6   7
ATOM      7  C   UNL     1       8.768   9.925  18.369  0.00  0.00    +0.000 A 
ATOM      8  C   UNL     1       9.220   9.832  19.692  0.00  0.00    +0.000 A 
ATOM      9  C   UNL     1       9.732  10.958  20.351  0.00  0.00    +0.000 A 
ATOM     10  C   UNL     1       9.778  12.184  19.697  0.00  0.00    +0.000 A 
ATOM     11  C   UNL     1       9.352  12.278  18.366  0.00  0.00    +0.000 A 
ATOM     12  C   UNL     1       8.840  11.156  17.711  0.00  0.00    +0.000 A 
ATOM     13  O   UNL     1       9.375  13.452  17.658  0.00  0.00    +0.000 OA
ATOM     14  C   UNL     1      10.183  14.444  18.300  0.00  0.00    +0.000 C 
ATOM     15  C   UNL     1       9.899  14.498  19.792  0.00  0.00    +0.000 C 
ATOM     16  O   UNL     1      10.240  13.255  20.419  0.00  0.00    +0.000 OA
ENDBRANCH   6   7
ENDBRANCH   5   6
ENDBRANCH   2   5
BRANCH   3  17
ATOM     17  C   UNL     1       6.445   4.598  16.683  0.00  0.00    +0.000 C 
BRANCH  17  18
ATOM     18  C   UNL     1       5.045   5.037  16.238  0.00  0.00    +0.000 C 
BRANCH  18  19
ATOM     19  C   UNL     1       3.970   4.618  17.219  0.00  0.00    +0.000 A 
ATOM     20  C   UNL     1       3.760   3.246  17.441  0.00  0.00    +0.000 A 
ATOM     21  C   UNL     1       2.818   2.811  18.376  0.00  0.00    +0.000 A 
ATOM     22  C   UNL     1       2.073   3.743  19.092  0.00  0.00    +0.000 A 
ATOM     23 CL   UNL     1       0.924   3.205  20.256  0.00  0.00    +0.000 Cl
ATOM     24  C   UNL     1       2.256   5.106  18.881  0.00  0.00    +0.000 A 
ATOM     25  C   UNL     1       3.203   5.542  17.951  0.00  0.00    +0.000 A 
ATOM     26 CL   UNL     1       3.396   7.248  17.750  0.00  0.00    +0.000 Cl
ENDBRANCH  18  19
ENDBRANCH  17  18
ENDBRANCH   3  17
TORSDOF 6
ENDMDL
MODEL 6
REMARK VINA RESULT:      -7.5      6.031      7.734
REMARK  Name = 
REMARK  6 active torsions:
REMARK  status: ('A' for Active; 'I' for Inactive)
REMARK    1  A    between atoms: C_2  and  C_3
REMARK    2  A    between atoms: C_3  and  S_4
REMARK    3  A    between atoms: S_4  and  C_5
REMARK    4  A    between atoms: N_15  and  C_16
REMARK    5  A    between atoms: C_16  and  C_17
REMARK    6  A    between atoms: C_17  and  C_18
REMARK                            x       y       z     vdW  Elec       q    Type
REMARK                         _______ _______ _______ _____ _____    ______ ____
ROOT
ATOM      1  O   UNL     1       0.460   4.766  20.284  0.00  0.00    +0.000 OA
ATOM      2  C   UNL     1       1.552   4.788  20.851  0.00  0.00    +0.000 C 
ATOM      3  N   UNL     1       2.315   5.945  20.910  0.00  0.00    +0.000 N 
ATOM      4  H   UNL     1       3.151   5.956  21.476  0.00  0.00    +0.000 HD
ENDROOT
BRANCH   2   5
ATOM      5  C   UNL     1       2.171   3.583  21.580  0.00  0.00    +0.000 C 
BRANCH   5   6
ATOM      6  S   UNL     1       2.566   2.253  20.386  0.00  0.00    +0.000 S 
BRANCH   6   7
ATOM      7  C   UNL     1       3.480   3.122  19.119  0.00  0.00    +0.000 A 
ATOM      8  C   UNL     1       2.907   3.259  17.847  0.00  0.00    +0.000 A 
ATOM      9  C   UNL     1       3.646   3.801  16.787  0.00  0.00    +0.000 A 
ATOM     10  C   UNL     1       4.965   4.193  16.989  0.00  0.00    +0.000 A 
ATOM     11  C   UNL     1       5.534   4.084  18.264  0.00  0.00    +0.000 A 
ATOM     12  C   UNL     1       4.798   3.540  19.319  0.00  0.00    +0.000 A 
ATOM     13  O   UNL     1       6.826   4.456  18.537  0.00  0.00    +0.000 OA
ATOM     14  C   UNL     1       7.378   5.265  17.492  0.00  0.00    +0.000 C 
ATOM     15  C   UNL     1       7.061   4.681  16.125  0.00  0.00    +0.000 C 
ATOM     16  O   UNL     1       5.646   4.664  15.895  0.00  0.00    +0.000 OA
ENDBRANCH   6   7
ENDBRANCH   5   6
ENDBRANCH   2   5
BRANCH   3  17
ATOM     17  C   UNL     1       1.873   7.189  20.288  0.00  0.00    +0.000 C 
BRANCH  17  18
ATOM     18  C   UNL     1       1.111   8.082  21.274  0.00  0.00    +0.000 C 
BRANCH  18  19
ATOM     19  C   UNL     1       0.663   9.384  20.646  0.00  0.00    +0.000 A 
ATOM     20  C   UNL     1       0.984   9.627  19.299  0.00  0.00    +0.000 A 
ATOM     21  C   UNL     1       0.546  10.789  18.660  0.00  0.00    +0.000 A 
ATOM     22  C   UNL     1      -0.211  11.722  19.361  0.00  0.00    +0.000 A 
ATOM     23 CL   UNL     1      -0.764  13.145  18.567  0.00  0.00    +0.000 Cl
ATOM     24  C   UNL     1      -0.533  11.508  20.699  0.00  0.00    +0.000 A 
ATOM     25  C   UNL     1      -0.100  10.342  21.337  0.00  0.00    +0.000 A 
ATOM     26 CL   UNL     1      -0.549  10.127  22.992  0.00  0.00    +0.000 Cl
ENDBRANCH  18  19
ENDBRANCH  17  18
ENDBRANCH   3  17
TORSDOF 6
ENDMDL
MODEL 7
REMARK VINA RESULT:      -7.3      5.750      6.264
REMARK  Name = 
REMARK  6 active torsions:
REMARK  status: ('A' for Active; 'I' for Inactive)
REMARK    1  A    between atoms: C_2  and  C_3
REMARK    2  A    between atoms: C_3  and  S_4
REMARK    3  A    between atoms: S_4  and  C_5
REMARK    4  A    between atoms: N_15  and  C_16
REMARK    5  A    between atoms: C_16  and  C_17
REMARK    6  A    between atoms: C_17  and  C_18
REMARK                            x       y       z     vdW  Elec       q    Type
REMARK                         _______ _______ _______ _____ _____    ______ ____
ROOT
ATOM      1  O   UNL     1       5.581   7.000  15.630  0.00  0.00    +0.000 OA
ATOM      2  C   UNL     1       5.451   6.388  16.690  0.00  0.00    +0.000 C 
ATOM      3  N   UNL     1       4.517   6.773  17.640  0.00  0.00    +0.000 N 
ATOM      4  H   UNL     1       4.361   6.184  18.446  0.00  0.00    +0.000 HD
ENDROOT
BRANCH   2   5
ATOM      5  C   UNL     1       6.254   5.130  17.064  0.00  0.00    +0.000 C 
BRANCH   5   6
ATOM      6  S   UNL     1       5.468   3.640  16.348  0.00  0.00    +0.000 S 
BRANCH   6   7
ATOM      7  C   UNL     1       4.102   3.343  17.463  0.00  0.00    +0.000 A 
ATOM      8  C   UNL     1       2.802   3.645  17.034  0.00  0.00    +0.000 A 
ATOM      9  C   UNL     1       1.722   3.567  17.923  0.00  0.00    +0.000 A 
ATOM     10  C   UNL     1       1.938   3.203  19.248  0.00  0.00    +0.000 A 
ATOM     11  C   UNL     1       3.231   2.873  19.676  0.00  0.00    +0.000 A 
ATOM     12  C   UNL     1       4.307   2.955  18.790  0.00  0.00    +0.000 A 
ATOM     13  O   UNL     1       3.516   2.500  20.964  0.00  0.00    +0.000 OA
ATOM     14  C   UNL     1       2.332   2.158  21.693  0.00  0.00    +0.000 C 
ATOM     15  C   UNL     1       1.231   3.179  21.456  0.00  0.00    +0.000 C 
ATOM     16  O   UNL     1       0.844   3.199  20.076  0.00  0.00    +0.000 OA
ENDBRANCH   6   7
ENDBRANCH   5   6
ENDBRANCH   2   5
BRANCH   3  17
ATOM     17  C   UNL     1       3.655   7.935  17.444  0.00  0.00    +0.000 C 
BRANCH  17  18
ATOM     18  C   UNL     1       2.196   7.630  17.801  0.00  0.00    +0.000 C 
BRANCH  18  19
ATOM     19  C   UNL     1       1.655   8.565  18.862  0.00  0.00    +0.000 A 
ATOM     20  C   UNL     1       1.307   9.875  18.489  0.00  0.00    +0.000 A 
ATOM     21  C   UNL     1       0.753  10.758  19.418  0.00  0.00    +0.000 A 
ATOM     22  C   UNL     1       0.545  10.342  20.730  0.00  0.00    +0.000 A 
ATOM     23 CL   UNL     1      -0.154  11.426  21.869  0.00  0.00    +0.000 Cl
ATOM     24  C   UNL     1       0.892   9.053  21.125  0.00  0.00    +0.000 A 
ATOM     25  C   UNL     1       1.441   8.168  20.194  0.00  0.00    +0.000 A 
ATOM     26 CL   UNL     1       1.830   6.575  20.742  0.00  0.00    +0.000 Cl
ENDBRANCH  18  19
ENDBRANCH  17  18
ENDBRANCH   3  17
TORSDOF 6
ENDMDL
MODEL 8
REMARK VINA RESULT:      -7.3      2.145      2.596
REMARK  Name = 
REMARK  6 active torsions:
REMARK  status: ('A' for Active; 'I' for Inactive)
REMARK    1  A    between atoms: C_2  and  C_3
REMARK    2  A    between atoms: C_3  and  S_4
REMARK    3  A    between atoms: S_4  and  C_5
REMARK    4  A    between atoms: N_15  and  C_16
REMARK    5  A    between atoms: C_16  and  C_17
REMARK    6  A    between atoms: C_17  and  C_18
REMARK                            x       y       z     vdW  Elec       q    Type
REMARK                         _______ _______ _______ _____ _____    ______ ____
ROOT
ATOM      1  O   UNL     1       7.903   6.696  17.104  0.00  0.00    +0.000 OA
ATOM      2  C   UNL     1       7.062   7.568  17.322  0.00  0.00    +0.000 C 
ATOM      3  N   UNL     1       7.429   8.845  17.720  0.00  0.00    +0.000 N 
ATOM      4  H   UNL     1       6.723   9.565  17.781  0.00  0.00    +0.000 HD
ENDROOT
BRANCH   2   5
ATOM      5  C   UNL     1       5.547   7.371  17.140  0.00  0.00    +0.000 C 
BRANCH   5   6
ATOM      6  S   UNL     1       5.216   5.860  16.163  0.00  0.00    +0.000 S 
BRANCH   6   7
ATOM      7  C   UNL     1       4.455   4.775  17.364  0.00  0.00    +0.000 A 
ATOM      8  C   UNL     1       4.383   3.403  17.084  0.00  0.00    +0.000 A 
ATOM      9  C   UNL     1       3.668   2.541  17.925  0.00  0.00    +0.000 A 
ATOM     10  C   UNL     1       3.007   3.048  19.039  0.00  0.00    +0.000 A 
ATOM     11  C   UNL     1       3.097   4.413  19.339  0.00  0.00    +0.000 A 
ATOM     12  C   UNL     1       3.808   5.272  18.499  0.00  0.00    +0.000 A 
ATOM     13  O   UNL     1       2.478   4.979  20.424  0.00  0.00    +0.000 OA
ATOM     14  C   UNL     1       2.046   3.991  21.365  0.00  0.00    +0.000 C 
ATOM     15  C   UNL     1       1.365   2.828  20.662  0.00  0.00    +0.000 C 
ATOM     16  O   UNL     1       2.281   2.156  19.789  0.00  0.00    +0.000 OA
ENDBRANCH   6   7
ENDBRANCH   5   6
ENDBRANCH   2   5
BRANCH   3  17
ATOM     17  C   UNL     1       8.826   9.215  17.924  0.00  0.00    +0.000 C 
BRANCH  17  18
ATOM     18  C   UNL     1       8.989  10.221  19.068  0.00  0.00    +0.000 C 
BRANCH  18  19
ATOM     19  C   UNL     1       9.778  11.445  18.653  0.00  0.00    +0.000 A 
ATOM     20  C   UNL     1      11.105  11.573  19.098  0.00  0.00    +0.000 A 
ATOM     21  C   UNL     1      11.891  12.655  18.698  0.00  0.00    +0.000 A 
ATOM     22  C   UNL     1      11.358  13.623  17.853  0.00  0.00    +0.000 A 
ATOM     23 CL   UNL     1      12.333  14.947  17.348  0.00  0.00    +0.000 Cl
ATOM     24  C   UNL     1      10.043  13.523  17.407  0.00  0.00    +0.000 A 
ATOM     25  C   UNL     1       9.258  12.437  17.803  0.00  0.00    +0.000 A 
ATOM     26 CL   UNL     1       7.640  12.361  17.198  0.00  0.00    +0.000 Cl
ENDBRANCH  18  19
ENDBRANCH  17  18
ENDBRANCH   3  17
TORSDOF 6
ENDMDL
MODEL 9
REMARK VINA RESULT:      -7.2      1.657      1.937
REMARK  Name = 
REMARK  6 active torsions:
REMARK  status: ('A' for Active; 'I' for Inactive)
REMARK    1  A    between atoms: C_2  and  C_3
REMARK    2  A    between atoms: C_3  and  S_4
REMARK    3  A    between atoms: S_4  and  C_5
REMARK    4  A    between atoms: N_15  and  C_16
REMARK    5  A    between atoms: C_16  and  C_17
REMARK    6  A    between atoms: C_17  and  C_18
REMARK                            x       y       z     vdW  Elec       q    Type
REMARK                         _______ _______ _______ _____ _____    ______ ____
ROOT
ATOM      1  O   UNL     1       8.478   7.176  18.831  0.00  0.00    +0.000 OA
ATOM      2  C   UNL     1       7.836   7.837  18.014  0.00  0.00    +0.000 C 
ATOM      3  N   UNL     1       8.014   9.207  17.890  0.00  0.00    +0.000 N 
ATOM      4  H   UNL     1       7.554   9.698  17.137  0.00  0.00    +0.000 HD
ENDROOT
BRANCH   2   5
ATOM      5  C   UNL     1       6.819   7.238  17.028  0.00  0.00    +0.000 C 
BRANCH   5   6
ATOM      6  S   UNL     1       7.100   5.439  16.842  0.00  0.00    +0.000 S 
BRANCH   6   7
ATOM      7  C   UNL     1       5.598   4.736  17.509  0.00  0.00    +0.000 A 
ATOM      8  C   UNL     1       4.874   3.824  16.729  0.00  0.00    +0.000 A 
ATOM      9  C   UNL     1       3.620   3.363  17.150  0.00  0.00    +0.000 A 
ATOM     10  C   UNL     1       3.076   3.824  18.345  0.00  0.00    +0.000 A 
ATOM     11  C   UNL     1       3.807   4.714  19.142  0.00  0.00    +0.000 A 
ATOM     12  C   UNL     1       5.054   5.176  18.720  0.00  0.00    +0.000 A 
ATOM     13  O   UNL     1       3.335   5.204  20.334  0.00  0.00    +0.000 OA
ATOM     14  C   UNL     1       2.216   4.451  20.812  0.00  0.00    +0.000 C 
ATOM     15  C   UNL     1       1.224   4.177  19.694  0.00  0.00    +0.000 C 
ATOM     16  O   UNL     1       1.822   3.372  18.670  0.00  0.00    +0.000 OA
ENDBRANCH   6   7
ENDBRANCH   5   6
ENDBRANCH   2   5
BRANCH   3  17
ATOM     17  C   UNL     1       8.954   9.940  18.733  0.00  0.00    +0.000 C 
BRANCH  17  18
ATOM     18  C   UNL     1       9.804  10.922  17.920  0.00  0.00    +0.000 C 
BRANCH  18  19
ATOM     19  C   UNL     1       9.718  12.337  18.452  0.00  0.00    +0.000 A 
ATOM     20  C   UNL     1       8.684  13.168  17.987  0.00  0.00    +0.000 A 
ATOM     21  C   UNL     1       8.530  14.463  18.487  0.00  0.00    +0.000 A 
ATOM     22  C   UNL     1       9.410  14.941  19.452  0.00  0.00    +0.000 A 
ATOM     23 CL   UNL     1       9.208  16.531  20.080  0.00  0.00    +0.000 Cl
ATOM     24  C   UNL     1      10.448  14.140  19.920  0.00  0.00    +0.000 A 
ATOM     25  C   UNL     1      10.599  12.843  19.424  0.00  0.00    +0.000 A 
ATOM     26 CL   UNL     1      11.894  11.892  20.061  0.00  0.00    +0.000 Cl
ENDBRANCH  18  19
ENDBRANCH  17  18
ENDBRANCH   3  17
TORSDOF 6
ENDMDL
