MODEL 1
REMARK VINA RESULT:      -7.0      0.000      0.000
REMARK  Name = 
REMARK  9 active torsions:
REMARK  status: ('A' for Active; 'I' for Inactive)
REMARK    1  A    between atoms: C_1  and  C_2
REMARK    2  A    between atoms: C_2  and  O_3
REMARK    3  A    between atoms: O_3  and  C_4
REMARK    4  A    between atoms: C_4  and  C_6
REMARK    5  A    between atoms: C_15  and  C_16
REMARK    6  A    between atoms: N_17  and  N_18
REMARK    7  A    between atoms: C_19  and  C_21
REMARK    8  A    between atoms: C_21  and  S_22
REMARK    9  A    between atoms: S_22  and  C_23
REMARK                            x       y       z     vdW  Elec       q    Type
REMARK                         _______ _______ _______ _____ _____    ______ ____
ROOT
ATOM      1  C   UNL     1       3.405   5.297  19.515  0.00  0.00    +0.000 A 
ATOM      2  N   UNL     1       2.757   6.017  20.494  0.00  0.00    +0.000 N 
ATOM      3  C   UNL     1       2.241   7.184  19.989  0.00  0.00    +0.000 A 
ATOM      4  C   UNL     1       1.495   8.190  20.618  0.00  0.00    +0.000 A 
ATOM      5  C   UNL     1       1.086   9.273  19.835  0.00  0.00    +0.000 A 
ATOM      6 CL   UNL     1       0.165  10.535  20.562  0.00  0.00    +0.000 Cl
ATOM      7  C   UNL     1       1.404   9.351  18.484  0.00  0.00    +0.000 A 
ATOM      8  C   UNL     1       2.160   8.340  17.877  0.00  0.00    +0.000 A 
ATOM      9  C   UNL     1       2.592   7.234  18.641  0.00  0.00    +0.000 A 
ATOM     10  C   UNL     1       3.344   6.048  18.346  0.00  0.00    +0.000 A 
ATOM     11  H   UNL     1       2.655   5.705  21.450  0.00  0.00    +0.000 HD
ENDROOT
BRANCH   1  12
ATOM     12  C   UNL     1       3.997   3.999  19.723  0.00  0.00    +0.000 C 
ATOM     13  O   UNL     1       5.163   3.708  19.499  0.00  0.00    +0.000 OA
BRANCH  12  14
ATOM     14  O   UNL     1       3.025   3.117  20.092  0.00  0.00    +0.000 OA
BRANCH  14  16
ATOM     15  C   UNL     1       0.835   2.755  19.229  0.00  0.00    +0.000 C 
ATOM     16  C   UNL     1       2.317   2.525  18.995  0.00  0.00    +0.000 C 
ENDBRANCH  14  16
ENDBRANCH  12  14
ENDBRANCH   1  12
BRANCH  10  17
ATOM     17  C   UNL     1       3.938   5.658  17.077  0.00  0.00    +0.000 C 
ATOM     18  N   UNL     1       4.976   6.313  16.673  0.00  0.00    +0.000 NA
BRANCH  18  19
ATOM     19  N   UNL     1       5.536   5.925  15.493  0.00  0.00    +0.000 N 
ATOM     20  C   UNL     1       6.726   5.212  15.530  0.00  0.00    +0.000 C 
ATOM     21  O   UNL     1       7.300   4.853  16.560  0.00  0.00    +0.000 OA
ATOM     22  H   UNL     1       5.143   6.234  14.608  0.00  0.00    +0.000 HD
BRANCH  20  23
ATOM     23  C   UNL     1       7.289   4.869  14.167  0.00  0.00    +0.000 C 
BRANCH  23  24
ATOM     24  S   UNL     1       6.183   3.757  13.239  0.00  0.00    +0.000 S 
ATOM     25  C   UNL     1       7.053   3.749  11.645  0.00  0.00    +0.000 C 
ENDBRANCH  23  24
ENDBRANCH  20  23
ENDBRANCH  18  19
ENDBRANCH  10  17
TORSDOF 7
ENDMDL
MODEL 2
REMARK VINA RESULT:      -7.0      4.115      6.021
REMARK  Name = 
REMARK  9 active torsions:
REMARK  status: ('A' for Active; 'I' for Inactive)
REMARK    1  A    between atoms: C_1  and  C_2
REMARK    2  A    between atoms: C_2  and  O_3
REMARK    3  A    between atoms: O_3  and  C_4
REMARK    4  A    between atoms: C_4  and  C_6
REMARK    5  A    between atoms: C_15  and  C_16
REMARK    6  A    between atoms: N_17  and  N_18
REMARK    7  A    between atoms: C_19  and  C_21
REMARK    8  A    between atoms: C_21  and  S_22
REMARK    9  A    between atoms: S_22  and  C_23
REMARK                            x       y       z     vdW  Elec       q    Type
REMARK                         _______ _______ _______ _____ _____    ______ ____
ROOT
ATOM      1  C   UNL     1       5.670   4.566  16.379  0.00  0.00    +0.000 A 
ATOM      2  N   UNL     1       5.061   3.444  16.894  0.00  0.00    +0.000 N 
ATOM      3  C   UNL     1       4.315   3.752  18.004  0.00  0.00    +0.000 A 
ATOM      4  C   UNL     1       3.521   2.931  18.816  0.00  0.00    +0.000 A 
ATOM      5  C   UNL     1       2.854   3.536  19.885  0.00  0.00    +0.000 A 
ATOM      6 CL   UNL     1       1.863   2.569  20.912  0.00  0.00    +0.000 Cl
ATOM      7  C   UNL     1       2.971   4.898  20.135  0.00  0.00    +0.000 A 
ATOM      8  C   UNL     1       3.778   5.698  19.318  0.00  0.00    +0.000 A 
ATOM      9  C   UNL     1       4.469   5.118  18.231  0.00  0.00    +0.000 A 
ATOM     10  C   UNL     1       5.341   5.629  17.213  0.00  0.00    +0.000 A 
ATOM     11  H   UNL     1       5.137   2.522  16.485  0.00  0.00    +0.000 HD
ENDROOT
BRANCH   1  12
ATOM     12  C   UNL     1       6.470   4.574  15.180  0.00  0.00    +0.000 C 
ATOM     13  O   UNL     1       7.676   4.768  15.135  0.00  0.00    +0.000 OA
BRANCH  12  14
ATOM     14  O   UNL     1       5.654   4.454  14.096  0.00  0.00    +0.000 OA
BRANCH  14  16
ATOM     15  C   UNL     1       5.065   3.319  12.086  0.00  0.00    +0.000 C 
ATOM     16  C   UNL     1       6.204   3.675  13.024  0.00  0.00    +0.000 C 
ENDBRANCH  14  16
ENDBRANCH  12  14
ENDBRANCH   1  12
BRANCH  10  17
ATOM     17  C   UNL     1       5.809   6.995  17.040  0.00  0.00    +0.000 C 
ATOM     18  N   UNL     1       7.024   7.263  17.389  0.00  0.00    +0.000 NA
BRANCH  18  19
ATOM     19  N   UNL     1       7.458   8.541  17.202  0.00  0.00    +0.000 N 
ATOM     20  C   UNL     1       8.331   9.085  18.133  0.00  0.00    +0.000 C 
ATOM     21  O   UNL     1       8.792   8.480  19.103  0.00  0.00    +0.000 OA
ATOM     22  H   UNL     1       7.076   9.112  16.453  0.00  0.00    +0.000 HD
BRANCH  20  23
ATOM     23  C   UNL     1       8.717  10.524  17.859  0.00  0.00    +0.000 C 
BRANCH  23  24
ATOM     24  S   UNL     1       9.942  11.135  19.063  0.00  0.00    +0.000 S 
ATOM     25  C   UNL     1       9.361  12.847  19.221  0.00  0.00    +0.000 C 
ENDBRANCH  23  24
ENDBRANCH  20  23
ENDBRANCH  18  19
ENDBRANCH  10  17
TORSDOF 7
ENDMDL
MODEL 3
REMARK VINA RESULT:      -6.8      4.008      6.513
REMARK  Name = 
REMARK  9 active torsions:
REMARK  status: ('A' for Active; 'I' for Inactive)
REMARK    1  A    between atoms: C_1  and  C_2
REMARK    2  A    between atoms: C_2  and  O_3
REMARK    3  A    between atoms: O_3  and  C_4
REMARK    4  A    between atoms: C_4  and  C_6
REMARK    5  A    between atoms: C_15  and  C_16
REMARK    6  A    between atoms: N_17  and  N_18
REMARK    7  A    between atoms: C_19  and  C_21
REMARK    8  A    between atoms: C_21  and  S_22
REMARK    9  A    between atoms: S_22  and  C_23
REMARK                            x       y       z     vdW  Elec       q    Type
REMARK                         _______ _______ _______ _____ _____    ______ ____
ROOT
ATOM      1  C   UNL     1       4.344   3.349  18.920  0.00  0.00    +0.000 A 
ATOM      2  N   UNL     1       4.873   2.835  17.757  0.00  0.00    +0.000 N 
ATOM      3  C   UNL     1       5.138   3.833  16.852  0.00  0.00    +0.000 A 
ATOM      4  C   UNL     1       5.696   3.765  15.568  0.00  0.00    +0.000 A 
ATOM      5  C   UNL     1       5.865   4.967  14.876  0.00  0.00    +0.000 A 
ATOM      6 CL   UNL     1       6.549   4.936  13.294  0.00  0.00    +0.000 Cl
ATOM      7  C   UNL     1       5.495   6.184  15.437  0.00  0.00    +0.000 A 
ATOM      8  C   UNL     1       4.929   6.229  16.716  0.00  0.00    +0.000 A 
ATOM      9  C   UNL     1       4.742   5.032  17.442  0.00  0.00    +0.000 A 
ATOM     10  C   UNL     1       4.223   4.723  18.743  0.00  0.00    +0.000 A 
ATOM     11  H   UNL     1       5.063   1.853  17.608  0.00  0.00    +0.000 HD
ENDROOT
BRANCH   1  12
ATOM     12  C   UNL     1       4.020   2.556  20.080  0.00  0.00    +0.000 C 
ATOM     13  O   UNL     1       4.812   1.877  20.716  0.00  0.00    +0.000 OA
BRANCH  12  14
ATOM     14  O   UNL     1       2.673   2.585  20.280  0.00  0.00    +0.000 OA
BRANCH  14  16
ATOM     15  C   UNL     1       0.695   2.779  18.967  0.00  0.00    +0.000 C 
ATOM     16  C   UNL     1       1.909   1.918  19.265  0.00  0.00    +0.000 C 
ENDBRANCH  14  16
ENDBRANCH  12  14
ENDBRANCH   1  12
BRANCH  10  17
ATOM     17  C   UNL     1       3.675   5.641  19.729  0.00  0.00    +0.000 C 
ATOM     18  N   UNL     1       2.428   5.961  19.624  0.00  0.00    +0.000 NA
BRANCH  18  19
ATOM     19  N   UNL     1       1.921   6.805  20.566  0.00  0.00    +0.000 N 
ATOM     20  C   UNL     1       1.633   8.111  20.196  0.00  0.00    +0.000 C 
ATOM     21  O   UNL     1       1.755   8.562  19.056  0.00  0.00    +0.000 OA
ATOM     22  H   UNL     1       1.846   6.512  21.537  0.00  0.00    +0.000 HD
BRANCH  20  23
ATOM     23  C   UNL     1       1.118   8.980  21.325  0.00  0.00    +0.000 C 
BRANCH  23  24
ATOM     24  S   UNL     1      -0.119  10.184  20.740  0.00  0.00    +0.000 S 
ATOM     25  C   UNL     1       0.931  11.663  20.668  0.00  0.00    +0.000 C 
ENDBRANCH  23  24
ENDBRANCH  20  23
ENDBRANCH  18  19
ENDBRANCH  10  17
TORSDOF 7
ENDMDL
MODEL 4
REMARK VINA RESULT:      -6.8      1.151      1.258
REMARK  Name = 
REMARK  9 active torsions:
REMARK  status: ('A' for Active; 'I' for Inactive)
REMARK    1  A    between atoms: C_1  and  C_2
REMARK    2  A    between atoms: C_2  and  O_3
REMARK    3  A    between atoms: O_3  and  C_4
REMARK    4  A    between atoms: C_4  and  C_6
REMARK    5  A    between atoms: C_15  and  C_16
REMARK    6  A    between atoms: N_17  and  N_18
REMARK    7  A    between atoms: C_19  and  C_21
REMARK    8  A    between atoms: C_21  and  S_22
REMARK    9  A    between atoms: S_22  and  C_23
REMARK                            x       y       z     vdW  Elec       q    Type
REMARK                         _______ _______ _______ _____ _____    ______ ____
ROOT
ATOM      1  C   UNL     1       2.345   5.927  20.023  0.00  0.00    +0.000 A 
ATOM      2  N   UNL     1       1.758   6.933  20.758  0.00  0.00    +0.000 N 
ATOM      3  C   UNL     1       1.634   8.080  20.014  0.00  0.00    +0.000 A 
ATOM      4  C   UNL     1       1.078   9.322  20.353  0.00  0.00    +0.000 A 
ATOM      5  C   UNL     1       1.077  10.315  19.369  0.00  0.00    +0.000 A 
ATOM      6 CL   UNL     1       0.403  11.859  19.735  0.00  0.00    +0.000 Cl
ATOM      7  C   UNL     1       1.604  10.083  18.104  0.00  0.00    +0.000 A 
ATOM      8  C   UNL     1       2.163   8.839  17.790  0.00  0.00    +0.000 A 
ATOM      9  C   UNL     1       2.184   7.814  18.762  0.00  0.00    +0.000 A 
ATOM     10  C   UNL     1       2.651   6.457  18.774  0.00  0.00    +0.000 A 
ATOM     11  H   UNL     1       1.439   6.824  21.711  0.00  0.00    +0.000 HD
ENDROOT
BRANCH   1  12
ATOM     12  C   UNL     1       2.553   4.587  20.510  0.00  0.00    +0.000 C 
ATOM     13  O   UNL     1       3.635   4.022  20.586  0.00  0.00    +0.000 OA
BRANCH  12  14
ATOM     14  O   UNL     1       1.345   4.006  20.757  0.00  0.00    +0.000 OA
BRANCH  14  16
ATOM     15  C   UNL     1       0.818   2.564  18.936  0.00  0.00    +0.000 C 
ATOM     16  C   UNL     1       1.267   2.623  20.385  0.00  0.00    +0.000 C 
ENDBRANCH  14  16
ENDBRANCH  12  14
ENDBRANCH   1  12
BRANCH  10  17
ATOM     17  C   UNL     1       3.311   5.729  17.703  0.00  0.00    +0.000 C 
ATOM     18  N   UNL     1       4.585   5.891  17.564  0.00  0.00    +0.000 NA
BRANCH  18  19
ATOM     19  N   UNL     1       5.197   5.187  16.570  0.00  0.00    +0.000 N 
ATOM     20  C   UNL     1       6.435   5.620  16.119  0.00  0.00    +0.000 C 
ATOM     21  O   UNL     1       7.059   6.576  16.586  0.00  0.00    +0.000 OA
ATOM     22  H   UNL     1       4.714   4.421  16.107  0.00  0.00    +0.000 HD
BRANCH  20  23
ATOM     23  C   UNL     1       7.009   4.798  14.984  0.00  0.00    +0.000 C 
BRANCH  23  24
ATOM     24  S   UNL     1       5.708   3.900  14.076  0.00  0.00    +0.000 S 
ATOM     25  C   UNL     1       6.548   3.717  12.477  0.00  0.00    +0.000 C 
ENDBRANCH  23  24
ENDBRANCH  20  23
ENDBRANCH  18  19
ENDBRANCH  10  17
TORSDOF 7
ENDMDL
MODEL 5
REMARK VINA RESULT:      -6.7      3.710      4.777
REMARK  Name = 
REMARK  9 active torsions:
REMARK  status: ('A' for Active; 'I' for Inactive)
REMARK    1  A    between atoms: C_1  and  C_2
REMARK    2  A    between atoms: C_2  and  O_3
REMARK    3  A    between atoms: O_3  and  C_4
REMARK    4  A    between atoms: C_4  and  C_6
REMARK    5  A    between atoms: C_15  and  C_16
REMARK    6  A    between atoms: N_17  and  N_18
REMARK    7  A    between atoms: C_19  and  C_21
REMARK    8  A    between atoms: C_21  and  S_22
REMARK    9  A    between atoms: S_22  and  C_23
REMARK                            x       y       z     vdW  Elec       q    Type
REMARK                         _______ _______ _______ _____ _____    ______ ____
ROOT
ATOM      1  C   UNL     1       5.808   4.627  18.186  0.00  0.00    +0.000 A 
ATOM      2  N   UNL     1       5.331   4.605  19.477  0.00  0.00    +0.000 N 
ATOM      3  C   UNL     1       4.124   3.954  19.547  0.00  0.00    +0.000 A 
ATOM      4  C   UNL     1       3.306   3.681  20.652  0.00  0.00    +0.000 A 
ATOM      5  C   UNL     1       2.123   2.975  20.417  0.00  0.00    +0.000 A 
ATOM      6 CL   UNL     1       1.084   2.614  21.744  0.00  0.00    +0.000 Cl
ATOM      7  C   UNL     1       1.770   2.558  19.139  0.00  0.00    +0.000 A 
ATOM      8  C   UNL     1       2.596   2.851  18.048  0.00  0.00    +0.000 A 
ATOM      9  C   UNL     1       3.797   3.565  18.249  0.00  0.00    +0.000 A 
ATOM     10  C   UNL     1       4.854   4.008  17.386  0.00  0.00    +0.000 A 
ATOM     11  H   UNL     1       5.825   4.995  20.269  0.00  0.00    +0.000 HD
ENDROOT
BRANCH   1  12
ATOM     12  C   UNL     1       7.081   5.185  17.804  0.00  0.00    +0.000 C 
ATOM     13  O   UNL     1       8.120   4.554  17.671  0.00  0.00    +0.000 OA
BRANCH  12  14
ATOM     14  O   UNL     1       6.974   6.542  17.735  0.00  0.00    +0.000 OA
BRANCH  14  16
ATOM     15  C   UNL     1       8.032   8.674  17.835  0.00  0.00    +0.000 C 
ATOM     16  C   UNL     1       8.045   7.253  18.371  0.00  0.00    +0.000 C 
ENDBRANCH  14  16
ENDBRANCH  12  14
ENDBRANCH   1  12
BRANCH  10  17
ATOM     17  C   UNL     1       4.957   3.849  15.944  0.00  0.00    +0.000 C 
ATOM     18  N   UNL     1       6.077   3.419  15.466  0.00  0.00    +0.000 NA
BRANCH  18  19
ATOM     19  N   UNL     1       6.155   3.253  14.115  0.00  0.00    +0.000 N 
ATOM     20  C   UNL     1       6.788   4.233  13.365  0.00  0.00    +0.000 C 
ATOM     21  O   UNL     1       7.337   5.233  13.833  0.00  0.00    +0.000 OA
ATOM     22  H   UNL     1       5.677   2.479  13.661  0.00  0.00    +0.000 HD
BRANCH  20  23
ATOM     23  C   UNL     1       6.781   3.978  11.872  0.00  0.00    +0.000 C 
BRANCH  23  24
ATOM     24  S   UNL     1       5.843   2.474  11.448  0.00  0.00    +0.000 S 
ATOM     25  C   UNL     1       4.190   3.205  11.271  0.00  0.00    +0.000 C 
ENDBRANCH  23  24
ENDBRANCH  20  23
ENDBRANCH  18  19
ENDBRANCH  10  17
TORSDOF 7
ENDMDL
MODEL 6
REMARK VINA RESULT:      -6.7      4.235      6.946
REMARK  Name = 
REMARK  9 active torsions:
REMARK  status: ('A' for Active; 'I' for Inactive)
REMARK    1  A    between atoms: C_1  and  C_2
REMARK    2  A    between atoms: C_2  and  O_3
REMARK    3  A    between atoms: O_3  and  C_4
REMARK    4  A    between atoms: C_4  and  C_6
REMARK    5  A    between atoms: C_15  and  C_16
REMARK    6  A    between atoms: N_17  and  N_18
REMARK    7  A    between atoms: C_19  and  C_21
REMARK    8  A    between atoms: C_21  and  S_22
REMARK    9  A    between atoms: S_22  and  C_23
REMARK                            x       y       z     vdW  Elec       q    Type
REMARK                         _______ _______ _______ _____ _____    ______ ____
ROOT
ATOM      1  C   UNL     1       2.867   3.861  17.927  0.00  0.00    +0.000 A 
ATOM      2  N   UNL     1       3.418   3.483  16.722  0.00  0.00    +0.000 N 
ATOM      3  C   UNL     1       4.510   4.256  16.414  0.00  0.00    +0.000 A 
ATOM      4  C   UNL     1       5.374   4.202  15.312  0.00  0.00    +0.000 A 
ATOM      5  C   UNL     1       6.426   5.121  15.274  0.00  0.00    +0.000 A 
ATOM      6 CL   UNL     1       7.517   5.095  13.940  0.00  0.00    +0.000 Cl
ATOM      7  C   UNL     1       6.611   6.053  16.289  0.00  0.00    +0.000 A 
ATOM      8  C   UNL     1       5.729   6.097  17.376  0.00  0.00    +0.000 A 
ATOM      9  C   UNL     1       4.654   5.184  17.443  0.00  0.00    +0.000 A 
ATOM     10  C   UNL     1       3.603   4.945  18.391  0.00  0.00    +0.000 A 
ATOM     11  H   UNL     1       3.073   2.717  16.159  0.00  0.00    +0.000 HD
ENDROOT
BRANCH   1  12
ATOM     12  C   UNL     1       1.748   3.197  18.548  0.00  0.00    +0.000 C 
ATOM     13  O   UNL     1       0.583   3.288  18.188  0.00  0.00    +0.000 OA
BRANCH  12  14
ATOM     14  O   UNL     1       2.176   2.553  19.670  0.00  0.00    +0.000 OA
BRANCH  14  16
ATOM     15  C   UNL     1       2.119   3.118  21.983  0.00  0.00    +0.000 C 
ATOM     16  C   UNL     1       1.291   2.671  20.792  0.00  0.00    +0.000 C 
ENDBRANCH  14  16
ENDBRANCH  12  14
ENDBRANCH   1  12
BRANCH  10  17
ATOM     17  C   UNL     1       3.330   5.667  19.624  0.00  0.00    +0.000 C 
ATOM     18  N   UNL     1       2.240   6.359  19.685  0.00  0.00    +0.000 NA
BRANCH  18  19
ATOM     19  N   UNL     1       1.984   7.014  20.853  0.00  0.00    +0.000 N 
ATOM     20  C   UNL     1       1.531   8.323  20.790  0.00  0.00    +0.000 C 
ATOM     21  O   UNL     1       1.291   8.935  19.747  0.00  0.00    +0.000 OA
ATOM     22  H   UNL     1       2.211   6.585  21.746  0.00  0.00    +0.000 HD
BRANCH  20  23
ATOM     23  C   UNL     1       1.320   8.975  22.140  0.00  0.00    +0.000 C 
BRANCH  23  24
ATOM     24  S   UNL     1      -0.439   9.345  22.445  0.00  0.00    +0.000 S 
ATOM     25  C   UNL     1      -0.438  11.112  22.029  0.00  0.00    +0.000 C 
ENDBRANCH  23  24
ENDBRANCH  20  23
ENDBRANCH  18  19
ENDBRANCH  10  17
TORSDOF 7
ENDMDL
MODEL 7
REMARK VINA RESULT:      -6.7      4.003      6.591
REMARK  Name = 
REMARK  9 active torsions:
REMARK  status: ('A' for Active; 'I' for Inactive)
REMARK    1  A    between atoms: C_1  and  C_2
REMARK    2  A    between atoms: C_2  and  O_3
REMARK    3  A    between atoms: O_3  and  C_4
REMARK    4  A    between atoms: C_4  and  C_6
REMARK    5  A    between atoms: C_15  and  C_16
REMARK    6  A    between atoms: N_17  and  N_18
REMARK    7  A    between atoms: C_19  and  C_21
REMARK    8  A    between atoms: C_21  and  S_22
REMARK    9  A    between atoms: S_22  and  C_23
REMARK                            x       y       z     vdW  Elec       q    Type
REMARK                         _______ _______ _______ _____ _____    ______ ____
ROOT
ATOM      1  C   UNL     1       4.061   3.395  18.926  0.00  0.00    +0.000 A 
ATOM      2  N   UNL     1       4.691   2.842  17.833  0.00  0.00    +0.000 N 
ATOM      3  C   UNL     1       5.033   3.808  16.920  0.00  0.00    +0.000 A 
ATOM      4  C   UNL     1       5.702   3.695  15.693  0.00  0.00    +0.000 A 
ATOM      5  C   UNL     1       5.928   4.872  14.974  0.00  0.00    +0.000 A 
ATOM      6 CL   UNL     1       6.749   4.788  13.461  0.00  0.00    +0.000 Cl
ATOM      7  C   UNL     1       5.508   6.107  15.456  0.00  0.00    +0.000 A 
ATOM      8  C   UNL     1       4.832   6.196  16.678  0.00  0.00    +0.000 A 
ATOM      9  C   UNL     1       4.584   5.025  17.428  0.00  0.00    +0.000 A 
ATOM     10  C   UNL     1       3.953   4.761  18.689  0.00  0.00    +0.000 A 
ATOM     11  H   UNL     1       4.895   1.856  17.738  0.00  0.00    +0.000 HD
ENDROOT
BRANCH   1  12
ATOM     12  C   UNL     1       3.637   2.643  20.081  0.00  0.00    +0.000 C 
ATOM     13  O   UNL     1       4.368   2.264  20.985  0.00  0.00    +0.000 OA
BRANCH  12  14
ATOM     14  O   UNL     1       2.322   2.315  19.945  0.00  0.00    +0.000 OA
BRANCH  14  16
ATOM     15  C   UNL     1       0.536   3.876  20.168  0.00  0.00    +0.000 C 
ATOM     16  C   UNL     1       1.457   2.926  20.913  0.00  0.00    +0.000 C 
ENDBRANCH  14  16
ENDBRANCH  12  14
ENDBRANCH   1  12
BRANCH  10  17
ATOM     17  C   UNL     1       3.319   5.711  19.588  0.00  0.00    +0.000 C 
ATOM     18  N   UNL     1       2.618   6.660  19.062  0.00  0.00    +0.000 NA
BRANCH  18  19
ATOM     19  N   UNL     1       2.011   7.533  19.916  0.00  0.00    +0.000 N 
ATOM     20  C   UNL     1       1.474   8.701  19.395  0.00  0.00    +0.000 C 
ATOM     21  O   UNL     1       1.457   8.994  18.198  0.00  0.00    +0.000 OA
ATOM     22  H   UNL     1       2.038   7.376  20.920  0.00  0.00    +0.000 HD
BRANCH  20  23
ATOM     23  C   UNL     1       0.864   9.623  20.430  0.00  0.00    +0.000 C 
BRANCH  23  24
ATOM     24  S   UNL     1       1.279   9.102  22.126  0.00  0.00    +0.000 S 
ATOM     25  C   UNL     1      -0.206   9.700  22.982  0.00  0.00    +0.000 C 
ENDBRANCH  23  24
ENDBRANCH  20  23
ENDBRANCH  18  19
ENDBRANCH  10  17
TORSDOF 7
ENDMDL
MODEL 8
REMARK VINA RESULT:      -6.6      3.357      4.678
REMARK  Name = 
REMARK  9 active torsions:
REMARK  status: ('A' for Active; 'I' for Inactive)
REMARK    1  A    between atoms: C_1  and  C_2
REMARK    2  A    between atoms: C_2  and  O_3
REMARK    3  A    between atoms: O_3  and  C_4
REMARK    4  A    between atoms: C_4  and  C_6
REMARK    5  A    between atoms: C_15  and  C_16
REMARK    6  A    between atoms: N_17  and  N_18
REMARK    7  A    between atoms: C_19  and  C_21
REMARK    8  A    between atoms: C_21  and  S_22
REMARK    9  A    between atoms: S_22  and  C_23
REMARK                            x       y       z     vdW  Elec       q    Type
REMARK                         _______ _______ _______ _____ _____    ______ ____
ROOT
ATOM      1  C   UNL     1       4.963   5.581  17.899  0.00  0.00    +0.000 A 
ATOM      2  N   UNL     1       4.434   5.606  19.171  0.00  0.00    +0.000 N 
ATOM      3  C   UNL     1       3.596   4.539  19.379  0.00  0.00    +0.000 A 
ATOM      4  C   UNL     1       2.874   4.165  20.521  0.00  0.00    +0.000 A 
ATOM      5  C   UNL     1       2.105   3.001  20.443  0.00  0.00    +0.000 A 
ATOM      6 CL   UNL     1       1.200   2.498  21.821  0.00  0.00    +0.000 Cl
ATOM      7  C   UNL     1       2.056   2.241  19.279  0.00  0.00    +0.000 A 
ATOM      8  C   UNL     1       2.776   2.639  18.147  0.00  0.00    +0.000 A 
ATOM      9  C   UNL     1       3.561   3.812  18.191  0.00  0.00    +0.000 A 
ATOM     10  C   UNL     1       4.412   4.482  17.249  0.00  0.00    +0.000 A 
ATOM     11  H   UNL     1       4.660   6.309  19.863  0.00  0.00    +0.000 HD
ENDROOT
BRANCH   1  12
ATOM     12  C   UNL     1       5.924   6.534  17.404  0.00  0.00    +0.000 C 
ATOM     13  O   UNL     1       5.652   7.588  16.847  0.00  0.00    +0.000 OA
BRANCH  12  14
ATOM     14  O   UNL     1       7.178   6.020  17.544  0.00  0.00    +0.000 OA
BRANCH  14  16
ATOM     15  C   UNL     1       8.251   8.020  18.267  0.00  0.00    +0.000 C 
ATOM     16  C   UNL     1       7.929   6.582  18.629  0.00  0.00    +0.000 C 
ENDBRANCH  14  16
ENDBRANCH  12  14
ENDBRANCH   1  12
BRANCH  10  17
ATOM     17  C   UNL     1       4.686   4.110  15.870  0.00  0.00    +0.000 C 
ATOM     18  N   UNL     1       5.858   3.640  15.597  0.00  0.00    +0.000 NA
BRANCH  18  19
ATOM     19  N   UNL     1       6.096   3.275  14.305  0.00  0.00    +0.000 N 
ATOM     20  C   UNL     1       6.723   4.186  13.467  0.00  0.00    +0.000 C 
ATOM     21  O   UNL     1       7.131   5.296  13.813  0.00  0.00    +0.000 OA
ATOM     22  H   UNL     1       5.738   2.396  13.942  0.00  0.00    +0.000 HD
BRANCH  20  23
ATOM     23  C   UNL     1       6.900   3.702  12.043  0.00  0.00    +0.000 C 
BRANCH  23  24
ATOM     24  S   UNL     1       5.789   2.310  11.658  0.00  0.00    +0.000 S 
ATOM     25  C   UNL     1       4.270   3.241  11.311  0.00  0.00    +0.000 C 
ENDBRANCH  23  24
ENDBRANCH  20  23
ENDBRANCH  18  19
ENDBRANCH  10  17
TORSDOF 7
ENDMDL
MODEL 9
REMARK VINA RESULT:      -6.5      4.065      6.653
REMARK  Name = 
REMARK  9 active torsions:
REMARK  status: ('A' for Active; 'I' for Inactive)
REMARK    1  A    between atoms: C_1  and  C_2
REMARK    2  A    between atoms: C_2  and  O_3
REMARK    3  A    between atoms: O_3  and  C_4
REMARK    4  A    between atoms: C_4  and  C_6
REMARK    5  A    between atoms: C_15  and  C_16
REMARK    6  A    between atoms: N_17  and  N_18
REMARK    7  A    between atoms: C_19  and  C_21
REMARK    8  A    between atoms: C_21  and  S_22
REMARK    9  A    between atoms: S_22  and  C_23
REMARK                            x       y       z     vdW  Elec       q    Type
REMARK                         _______ _______ _______ _____ _____    ______ ____
ROOT
ATOM      1  C   UNL     1       2.803   3.359  18.063  0.00  0.00    +0.000 A 
ATOM      2  N   UNL     1       3.720   2.877  17.156  0.00  0.00    +0.000 N 
ATOM      3  C   UNL     1       4.467   3.897  16.619  0.00  0.00    +0.000 A 
ATOM      4  C   UNL     1       5.515   3.858  15.689  0.00  0.00    +0.000 A 
ATOM      5  C   UNL     1       6.106   5.073  15.336  0.00  0.00    +0.000 A 
ATOM      6 CL   UNL     1       7.400   5.078  14.197  0.00  0.00    +0.000 Cl
ATOM      7  C   UNL     1       5.674   6.276  15.884  0.00  0.00    +0.000 A 
ATOM      8  C   UNL     1       4.618   6.294  16.802  0.00  0.00    +0.000 A 
ATOM      9  C   UNL     1       3.996   5.083  17.179  0.00  0.00    +0.000 A 
ATOM     10  C   UNL     1       2.931   4.743  18.079  0.00  0.00    +0.000 A 
ATOM     11  H   UNL     1       3.841   1.896  16.941  0.00  0.00    +0.000 HD
ENDROOT
BRANCH   1  12
ATOM     12  C   UNL     1       1.917   2.526  18.837  0.00  0.00    +0.000 C 
ATOM     13  O   UNL     1       0.710   2.430  18.671  0.00  0.00    +0.000 OA
BRANCH  12  14
ATOM     14  O   UNL     1       2.616   1.958  19.860  0.00  0.00    +0.000 OA
BRANCH  14  16
ATOM     15  C   UNL     1       1.516   2.676  21.847  0.00  0.00    +0.000 C 
ATOM     16  C   UNL     1       2.775   2.803  21.008  0.00  0.00    +0.000 C 
ENDBRANCH  14  16
ENDBRANCH  12  14
ENDBRANCH   1  12
BRANCH  10  17
ATOM     17  C   UNL     1       2.121   5.643  18.885  0.00  0.00    +0.000 C 
ATOM     18  N   UNL     1       2.724   6.363  19.771  0.00  0.00    +0.000 NA
BRANCH  18  19
ATOM     19  N   UNL     1       1.958   7.217  20.506  0.00  0.00    +0.000 N 
ATOM     20  C   UNL     1       1.607   8.437  19.947  0.00  0.00    +0.000 C 
ATOM     21  O   UNL     1       1.895   8.796  18.803  0.00  0.00    +0.000 OA
ATOM     22  H   UNL     1       1.731   7.005  21.474  0.00  0.00    +0.000 HD
BRANCH  20  23
ATOM     23  C   UNL     1       0.794   9.331  20.860  0.00  0.00    +0.000 C 
BRANCH  23  24
ATOM     24  S   UNL     1      -0.471  10.266  19.940  0.00  0.00    +0.000 S 
ATOM     25  C   UNL     1      -0.803  11.574  21.154  0.00  0.00    +0.000 C 
ENDBRANCH  23  24
ENDBRANCH  20  23
ENDBRANCH  18  19
ENDBRANCH  10  17
TORSDOF 7
ENDMDL
