MODEL 1
REMARK VINA RESULT:      -6.6      0.000      0.000
REMARK  Name = 
REMARK  2 active torsions:
REMARK  status: ('A' for Active; 'I' for Inactive)
REMARK    1  A    between atoms: C_2  and  C_3
REMARK    2  A    between atoms: C_2  and  N_9
REMARK                            x       y       z     vdW  Elec       q    Type
REMARK                         _______ _______ _______ _____ _____    ______ ____
ROOT
ATOM      1  C   UNL     1       2.594   7.383  18.251  0.00  0.00    +0.000 C 
ATOM      2  C   UNL     1       3.265   6.242  18.508  0.00  0.00    +0.000 C 
ENDROOT
BRANCH   2   3
ATOM      3  C   UNL     1       2.427   5.086  18.912  0.00  0.00    +0.000 A 
ATOM      4  C   UNL     1       2.122   4.072  17.990  0.00  0.00    +0.000 A 
ATOM      5  C   UNL     1       1.315   2.996  18.367  0.00  0.00    +0.000 A 
ATOM      6  C   UNL     1       0.792   2.934  19.657  0.00  0.00    +0.000 A 
ATOM      7  C   UNL     1       1.086   3.936  20.580  0.00  0.00    +0.000 A 
ATOM      8  C   UNL     1       1.904   5.008  20.214  0.00  0.00    +0.000 A 
ENDBRANCH   2   3
BRANCH   2   9
ATOM      9  N   UNL     1       4.671   6.158  18.340  0.00  0.00    +0.000 N 
ATOM     10  C   UNL     1       5.443   5.430  19.193  0.00  0.00    +0.000 A 
ATOM     11  C   UNL     1       6.830   5.400  19.078  0.00  0.00    +0.000 A 
ATOM     12  C   UNL     1       7.446   6.117  18.066  0.00  0.00    +0.000 A 
ATOM     13  C   UNL     1       6.661   6.825  17.172  0.00  0.00    +0.000 A 
ATOM     14  C   UNL     1       5.276   6.817  17.313  0.00  0.00    +0.000 A 
ENDBRANCH   2   9
TORSDOF 2
ENDMDL
MODEL 2
REMARK VINA RESULT:      -6.6      1.172      2.091
REMARK  Name = 
REMARK  2 active torsions:
REMARK  status: ('A' for Active; 'I' for Inactive)
REMARK    1  A    between atoms: C_2  and  C_3
REMARK    2  A    between atoms: C_2  and  N_9
REMARK                            x       y       z     vdW  Elec       q    Type
REMARK                         _______ _______ _______ _____ _____    ______ ____
ROOT
ATOM      1  C   UNL     1       3.163   7.336  17.855  0.00  0.00    +0.000 C 
ATOM      2  C   UNL     1       3.571   6.057  17.977  0.00  0.00    +0.000 C 
ENDROOT
BRANCH   2   3
ATOM      3  C   UNL     1       2.602   5.138  18.624  0.00  0.00    +0.000 A 
ATOM      4  C   UNL     1       2.216   5.336  19.960  0.00  0.00    +0.000 A 
ATOM      5  C   UNL     1       1.322   4.457  20.572  0.00  0.00    +0.000 A 
ATOM      6  C   UNL     1       0.821   3.365  19.866  0.00  0.00    +0.000 A 
ATOM      7  C   UNL     1       1.199   3.156  18.541  0.00  0.00    +0.000 A 
ATOM      8  C   UNL     1       2.083   4.040  17.917  0.00  0.00    +0.000 A 
ENDBRANCH   2   3
BRANCH   2   9
ATOM      9  N   UNL     1       4.822   5.629  17.464  0.00  0.00    +0.000 N 
ATOM     10  C   UNL     1       5.056   5.578  16.123  0.00  0.00    +0.000 A 
ATOM     11  C   UNL     1       6.255   5.093  15.609  0.00  0.00    +0.000 A 
ATOM     12  C   UNL     1       7.243   4.658  16.477  0.00  0.00    +0.000 A 
ATOM     13  C   UNL     1       7.024   4.747  17.841  0.00  0.00    +0.000 A 
ATOM     14  C   UNL     1       5.817   5.253  18.314  0.00  0.00    +0.000 A 
ENDBRANCH   2   9
TORSDOF 2
ENDMDL
MODEL 3
REMARK VINA RESULT:      -6.6      1.146      1.146
REMARK  Name = 
REMARK  2 active torsions:
REMARK  status: ('A' for Active; 'I' for Inactive)
REMARK    1  A    between atoms: C_2  and  C_3
REMARK    2  A    between atoms: C_2  and  N_9
REMARK                            x       y       z     vdW  Elec       q    Type
REMARK                         _______ _______ _______ _____ _____    ______ ____
ROOT
ATOM      1  C   UNL     1       3.151   7.102  17.952  0.00  0.00    +0.000 C 
ATOM      2  C   UNL     1       3.574   5.828  18.076  0.00  0.00    +0.000 C 
ENDROOT
BRANCH   2   3
ATOM      3  C   UNL     1       2.610   4.894  18.710  0.00  0.00    +0.000 A 
ATOM      4  C   UNL     1       2.063   3.831  17.975  0.00  0.00    +0.000 A 
ATOM      5  C   UNL     1       1.139   2.967  18.566  0.00  0.00    +0.000 A 
ATOM      6  C   UNL     1       0.741   3.169  19.887  0.00  0.00    +0.000 A 
ATOM      7  C   UNL     1       1.275   4.223  20.626  0.00  0.00    +0.000 A 
ATOM      8  C   UNL     1       2.211   5.082  20.043  0.00  0.00    +0.000 A 
ENDBRANCH   2   3
BRANCH   2   9
ATOM      9  N   UNL     1       4.836   5.416  17.576  0.00  0.00    +0.000 N 
ATOM     10  C   UNL     1       5.855   5.082  18.415  0.00  0.00    +0.000 A 
ATOM     11  C   UNL     1       7.117   4.745  17.934  0.00  0.00    +0.000 A 
ATOM     12  C   UNL     1       7.346   4.737  16.568  0.00  0.00    +0.000 A 
ATOM     13  C   UNL     1       6.301   5.036  15.711  0.00  0.00    +0.000 A 
ATOM     14  C   UNL     1       5.050   5.353  16.233  0.00  0.00    +0.000 A 
ENDBRANCH   2   9
TORSDOF 2
ENDMDL
MODEL 4
REMARK VINA RESULT:      -6.6      1.666      2.709
REMARK  Name = 
REMARK  2 active torsions:
REMARK  status: ('A' for Active; 'I' for Inactive)
REMARK    1  A    between atoms: C_2  and  C_3
REMARK    2  A    between atoms: C_2  and  N_9
REMARK                            x       y       z     vdW  Elec       q    Type
REMARK                         _______ _______ _______ _____ _____    ______ ____
ROOT
ATOM      1  C   UNL     1       5.595   3.879  15.518  0.00  0.00    +0.000 C 
ATOM      2  C   UNL     1       5.289   4.448  16.702  0.00  0.00    +0.000 C 
ENDROOT
BRANCH   2   3
ATOM      3  C   UNL     1       3.987   4.040  17.288  0.00  0.00    +0.000 A 
ATOM      4  C   UNL     1       3.678   2.681  17.456  0.00  0.00    +0.000 A 
ATOM      5  C   UNL     1       2.445   2.299  17.987  0.00  0.00    +0.000 A 
ATOM      6  C   UNL     1       1.505   3.267  18.335  0.00  0.00    +0.000 A 
ATOM      7  C   UNL     1       1.800   4.620  18.170  0.00  0.00    +0.000 A 
ATOM      8  C   UNL     1       3.038   5.008  17.653  0.00  0.00    +0.000 A 
ENDBRANCH   2   3
BRANCH   2   9
ATOM      9  N   UNL     1       6.189   5.329  17.353  0.00  0.00    +0.000 N 
ATOM     10  C   UNL     1       6.484   6.552  16.832  0.00  0.00    +0.000 A 
ATOM     11  C   UNL     1       7.419   7.394  17.428  0.00  0.00    +0.000 A 
ATOM     12  C   UNL     1       8.063   6.988  18.585  0.00  0.00    +0.000 A 
ATOM     13  C   UNL     1       7.735   5.763  19.140  0.00  0.00    +0.000 A 
ATOM     14  C   UNL     1       6.783   4.957  18.521  0.00  0.00    +0.000 A 
ENDBRANCH   2   9
TORSDOF 2
ENDMDL
MODEL 5
REMARK VINA RESULT:      -6.5      1.060      1.662
REMARK  Name = 
REMARK  2 active torsions:
REMARK  status: ('A' for Active; 'I' for Inactive)
REMARK    1  A    between atoms: C_2  and  C_3
REMARK    2  A    between atoms: C_2  and  N_9
REMARK                            x       y       z     vdW  Elec       q    Type
REMARK                         _______ _______ _______ _____ _____    ______ ____
ROOT
ATOM      1  C   UNL     1       3.033   7.208  18.024  0.00  0.00    +0.000 C 
ATOM      2  C   UNL     1       3.465   5.933  18.107  0.00  0.00    +0.000 C 
ENDROOT
BRANCH   2   3
ATOM      3  C   UNL     1       2.512   4.976  18.723  0.00  0.00    +0.000 A 
ATOM      4  C   UNL     1       2.154   5.100  20.075  0.00  0.00    +0.000 A 
ATOM      5  C   UNL     1       1.274   4.185  20.657  0.00  0.00    +0.000 A 
ATOM      6  C   UNL     1       0.762   3.131  19.903  0.00  0.00    +0.000 A 
ATOM      7  C   UNL     1       1.113   2.997  18.560  0.00  0.00    +0.000 A 
ATOM      8  C   UNL     1       1.981   3.917  17.968  0.00  0.00    +0.000 A 
ENDBRANCH   2   3
BRANCH   2   9
ATOM      9  N   UNL     1       4.724   5.544  17.583  0.00  0.00    +0.000 N 
ATOM     10  C   UNL     1       5.720   5.092  18.395  0.00  0.00    +0.000 A 
ATOM     11  C   UNL     1       6.980   4.775  17.897  0.00  0.00    +0.000 A 
ATOM     12  C   UNL     1       7.232   4.909  16.542  0.00  0.00    +0.000 A 
ATOM     13  C   UNL     1       6.210   5.328  15.708  0.00  0.00    +0.000 A 
ATOM     14  C   UNL     1       4.959   5.621  16.244  0.00  0.00    +0.000 A 
ENDBRANCH   2   9
TORSDOF 2
ENDMDL
MODEL 6
REMARK VINA RESULT:      -6.5      0.982      1.545
REMARK  Name = 
REMARK  2 active torsions:
REMARK  status: ('A' for Active; 'I' for Inactive)
REMARK    1  A    between atoms: C_2  and  C_3
REMARK    2  A    between atoms: C_2  and  N_9
REMARK                            x       y       z     vdW  Elec       q    Type
REMARK                         _______ _______ _______ _____ _____    ______ ____
ROOT
ATOM      1  C   UNL     1       3.036   7.296  18.100  0.00  0.00    +0.000 C 
ATOM      2  C   UNL     1       3.506   6.034  18.167  0.00  0.00    +0.000 C 
ENDROOT
BRANCH   2   3
ATOM      3  C   UNL     1       2.575   5.038  18.754  0.00  0.00    +0.000 A 
ATOM      4  C   UNL     1       2.073   3.986  17.970  0.00  0.00    +0.000 A 
ATOM      5  C   UNL     1       1.181   3.063  18.519  0.00  0.00    +0.000 A 
ATOM      6  C   UNL     1       0.769   3.192  19.844  0.00  0.00    +0.000 A 
ATOM      7  C   UNL     1       1.259   4.233  20.631  0.00  0.00    +0.000 A 
ATOM      8  C   UNL     1       2.163   5.152  20.092  0.00  0.00    +0.000 A 
ENDBRANCH   2   3
BRANCH   2   9
ATOM      9  N   UNL     1       4.782   5.692  17.652  0.00  0.00    +0.000 N 
ATOM     10  C   UNL     1       5.051   5.765  16.319  0.00  0.00    +0.000 A 
ATOM     11  C   UNL     1       6.278   5.365  15.798  0.00  0.00    +0.000 A 
ATOM     12  C   UNL     1       7.259   4.890  16.652  0.00  0.00    +0.000 A 
ATOM     13  C   UNL     1       7.005   4.854  18.012  0.00  0.00    +0.000 A 
ATOM     14  C   UNL     1       5.769   5.277  18.494  0.00  0.00    +0.000 A 
ENDBRANCH   2   9
TORSDOF 2
ENDMDL
MODEL 7
REMARK VINA RESULT:      -6.5      1.608      2.804
REMARK  Name = 
REMARK  2 active torsions:
REMARK  status: ('A' for Active; 'I' for Inactive)
REMARK    1  A    between atoms: C_2  and  C_3
REMARK    2  A    between atoms: C_2  and  N_9
REMARK                            x       y       z     vdW  Elec       q    Type
REMARK                         _______ _______ _______ _____ _____    ______ ____
ROOT
ATOM      1  C   UNL     1       5.500   4.137  15.448  0.00  0.00    +0.000 C 
ATOM      2  C   UNL     1       5.236   4.633  16.674  0.00  0.00    +0.000 C 
ENDROOT
BRANCH   2   3
ATOM      3  C   UNL     1       3.940   4.215  17.265  0.00  0.00    +0.000 A 
ATOM      4  C   UNL     1       3.034   5.175  17.742  0.00  0.00    +0.000 A 
ATOM      5  C   UNL     1       1.826   4.779  18.318  0.00  0.00    +0.000 A 
ATOM      6  C   UNL     1       1.521   3.425  18.440  0.00  0.00    +0.000 A 
ATOM      7  C   UNL     1       2.414   2.462  17.972  0.00  0.00    +0.000 A 
ATOM      8  C   UNL     1       3.619   2.853  17.382  0.00  0.00    +0.000 A 
ENDBRANCH   2   3
BRANCH   2   9
ATOM      9  N   UNL     1       6.172   5.449  17.358  0.00  0.00    +0.000 N 
ATOM     10  C   UNL     1       6.498   6.689  16.899  0.00  0.00    +0.000 A 
ATOM     11  C   UNL     1       7.467   7.468  17.525  0.00  0.00    +0.000 A 
ATOM     12  C   UNL     1       8.112   6.981  18.649  0.00  0.00    +0.000 A 
ATOM     13  C   UNL     1       7.754   5.739  19.143  0.00  0.00    +0.000 A 
ATOM     14  C   UNL     1       6.769   4.998  18.496  0.00  0.00    +0.000 A 
ENDBRANCH   2   9
TORSDOF 2
ENDMDL
MODEL 8
REMARK VINA RESULT:      -6.4      0.583      1.422
REMARK  Name = 
REMARK  2 active torsions:
REMARK  status: ('A' for Active; 'I' for Inactive)
REMARK    1  A    between atoms: C_2  and  C_3
REMARK    2  A    between atoms: C_2  and  N_9
REMARK                            x       y       z     vdW  Elec       q    Type
REMARK                         _______ _______ _______ _____ _____    ______ ____
ROOT
ATOM      1  C   UNL     1       2.587   7.013  18.182  0.00  0.00    +0.000 C 
ATOM      2  C   UNL     1       3.367   5.928  18.357  0.00  0.00    +0.000 C 
ENDROOT
BRANCH   2   3
ATOM      3  C   UNL     1       2.645   4.646  18.552  0.00  0.00    +0.000 A 
ATOM      4  C   UNL     1       2.851   3.572  17.671  0.00  0.00    +0.000 A 
ATOM      5  C   UNL     1       2.154   2.376  17.843  0.00  0.00    +0.000 A 
ATOM      6  C   UNL     1       1.233   2.247  18.881  0.00  0.00    +0.000 A 
ATOM      7  C   UNL     1       1.018   3.307  19.761  0.00  0.00    +0.000 A 
ATOM      8  C   UNL     1       1.723   4.503  19.602  0.00  0.00    +0.000 A 
ENDBRANCH   2   3
BRANCH   2   9
ATOM      9  N   UNL     1       4.782   6.018  18.297  0.00  0.00    +0.000 N 
ATOM     10  C   UNL     1       5.407   6.660  17.271  0.00  0.00    +0.000 A 
ATOM     11  C   UNL     1       6.794   6.693  17.168  0.00  0.00    +0.000 A 
ATOM     12  C   UNL     1       7.565   6.068  18.134  0.00  0.00    +0.000 A 
ATOM     13  C   UNL     1       6.934   5.450  19.199  0.00  0.00    +0.000 A 
ATOM     14  C   UNL     1       5.544   5.453  19.274  0.00  0.00    +0.000 A 
ENDBRANCH   2   9
TORSDOF 2
ENDMDL
MODEL 9
REMARK VINA RESULT:      -6.4      1.385      5.121
REMARK  Name = 
REMARK  2 active torsions:
REMARK  status: ('A' for Active; 'I' for Inactive)
REMARK    1  A    between atoms: C_2  and  C_3
REMARK    2  A    between atoms: C_2  and  N_9
REMARK                            x       y       z     vdW  Elec       q    Type
REMARK                         _______ _______ _______ _____ _____    ______ ____
ROOT
ATOM      1  C   UNL     1       3.198   7.110  17.895  0.00  0.00    +0.000 C 
ATOM      2  C   UNL     1       3.472   5.804  18.086  0.00  0.00    +0.000 C 
ENDROOT
BRANCH   2   3
ATOM      3  C   UNL     1       4.823   5.366  17.654  0.00  0.00    +0.000 A 
ATOM      4  C   UNL     1       5.894   5.369  18.561  0.00  0.00    +0.000 A 
ATOM      5  C   UNL     1       7.169   4.978  18.148  0.00  0.00    +0.000 A 
ATOM      6  C   UNL     1       7.388   4.600  16.824  0.00  0.00    +0.000 A 
ATOM      7  C   UNL     1       6.332   4.595  15.914  0.00  0.00    +0.000 A 
ATOM      8  C   UNL     1       5.051   4.972  16.326  0.00  0.00    +0.000 A 
ENDBRANCH   2   3
BRANCH   2   9
ATOM      9  N   UNL     1       2.540   4.937  18.712  0.00  0.00    +0.000 N 
ATOM     10  C   UNL     1       2.210   5.083  20.026  0.00  0.00    +0.000 A 
ATOM     11  C   UNL     1       1.351   4.194  20.665  0.00  0.00    +0.000 A 
ATOM     12  C   UNL     1       0.805   3.140  19.952  0.00  0.00    +0.000 A 
ATOM     13  C   UNL     1       1.105   3.014  18.607  0.00  0.00    +0.000 A 
ATOM     14  C   UNL     1       1.957   3.933  18.001  0.00  0.00    +0.000 A 
ENDBRANCH   2   9
TORSDOF 2
ENDMDL
