MODEL 1
REMARK VINA RESULT:      -7.4      0.000      0.000
REMARK  Name = 
REMARK  8 active torsions:
REMARK  status: ('A' for Active; 'I' for Inactive)
REMARK    1  A    between atoms: C_1  and  C_2
REMARK    2  A    between atoms: C_2  and  O_3
REMARK    3  A    between atoms: C_2  and  C_18
REMARK    4  A    between atoms: O_3  and  C_4
REMARK    5  A    between atoms: C_7  and  C_8
REMARK    6  A    between atoms: C_8  and  N_9
REMARK    7  A    between atoms: C_11  and  C_12
REMARK    8  A    between atoms: C_12  and  O_14
REMARK                            x       y       z     vdW  Elec       q    Type
REMARK                         _______ _______ _______ _____ _____    ______ ____
ROOT
ATOM      1  C   UNL     1       2.597   7.069  18.730  0.00  0.00    +0.000 A 
ATOM      2  C   UNL     1       2.015   7.318  19.976  0.00  0.00    +0.000 A 
ATOM      3  C   UNL     1       1.313   8.505  20.220  0.00  0.00    +0.000 A 
ATOM      4  C   UNL     1       1.209   9.482  19.225  0.00  0.00    +0.000 A 
ATOM      5  C   UNL     1       1.799   9.222  17.976  0.00  0.00    +0.000 A 
ATOM      6  C   UNL     1       2.498   8.034  17.734  0.00  0.00    +0.000 A 
ENDROOT
BRANCH   1   7
ATOM      7  O   UNL     1       3.220   5.859  18.624  0.00  0.00    +0.000 OA
BRANCH   7   9
ATOM      8  C   UNL     1       3.998   4.102  17.102  0.00  0.00    +0.000 C 
ATOM      9  C   UNL     1       4.046   5.586  17.484  0.00  0.00    +0.000 C 
BRANCH   9  10
ATOM     10  C   UNL     1       5.467   5.968  17.872  0.00  0.00    +0.000 A 
ATOM     11  C   UNL     1       6.118   5.328  18.937  0.00  0.00    +0.000 A 
ATOM     12  C   UNL     1       7.415   5.697  19.302  0.00  0.00    +0.000 A 
ATOM     13  C   UNL     1       8.077   6.710  18.608  0.00  0.00    +0.000 A 
ATOM     14  C   UNL     1       7.444   7.353  17.547  0.00  0.00    +0.000 A 
ATOM     15  C   UNL     1       6.151   6.982  17.179  0.00  0.00    +0.000 A 
ENDBRANCH   9  10
ENDBRANCH   7   9
ENDBRANCH   1   7
BRANCH   4  16
ATOM     16  C   UNL     1       0.442  10.777  19.410  0.00  0.00    +0.000 C 
BRANCH  16  17
ATOM     17  N   UNL     1      -0.549  11.105  18.361  0.00  0.00    +0.000 NA
ATOM     18  C   UNL     1      -1.470   9.965  18.128  0.00  0.00    +0.000 C 
ATOM     19  C   UNL     1      -2.657  10.938  18.257  0.00  0.00    +0.000 C 
ATOM     20  C   UNL     1      -1.664  11.868  18.980  0.00  0.00    +0.000 C 
BRANCH  19  21
ATOM     21  C   UNL     1      -3.322  11.447  16.962  0.00  0.00    +0.000 C 
ATOM     22  O   UNL     1      -4.494  11.797  16.864  0.00  0.00    +0.000 OA
BRANCH  21  23
ATOM     23  O   UNL     1      -2.493  11.505  15.881  0.00  0.00    +0.000 OA
ATOM     24  H   UNL     1      -2.902  11.100  15.087  0.00  0.00    +0.000 HD
ENDBRANCH  21  23
ENDBRANCH  19  21
ENDBRANCH  16  17
ENDBRANCH   4  16
TORSDOF 7
ENDMDL
MODEL 2
REMARK VINA RESULT:      -7.4      0.175      1.021
REMARK  Name = 
REMARK  8 active torsions:
REMARK  status: ('A' for Active; 'I' for Inactive)
REMARK    1  A    between atoms: C_1  and  C_2
REMARK    2  A    between atoms: C_2  and  O_3
REMARK    3  A    between atoms: C_2  and  C_18
REMARK    4  A    between atoms: O_3  and  C_4
REMARK    5  A    between atoms: C_7  and  C_8
REMARK    6  A    between atoms: C_8  and  N_9
REMARK    7  A    between atoms: C_11  and  C_12
REMARK    8  A    between atoms: C_12  and  O_14
REMARK                            x       y       z     vdW  Elec       q    Type
REMARK                         _______ _______ _______ _____ _____    ______ ____
ROOT
ATOM      1  C   UNL     1       2.524   7.215  18.882  0.00  0.00    +0.000 A 
ATOM      2  C   UNL     1       1.924   7.503  20.111  0.00  0.00    +0.000 A 
ATOM      3  C   UNL     1       1.211   8.692  20.304  0.00  0.00    +0.000 A 
ATOM      4  C   UNL     1       1.113   9.632  19.275  0.00  0.00    +0.000 A 
ATOM      5  C   UNL     1       1.721   9.334  18.044  0.00  0.00    +0.000 A 
ATOM      6  C   UNL     1       2.431   8.144  17.851  0.00  0.00    +0.000 A 
ENDROOT
BRANCH   1   7
ATOM      7  O   UNL     1       3.157   6.006  18.826  0.00  0.00    +0.000 OA
BRANCH   7   9
ATOM      8  C   UNL     1       3.823   4.175  17.339  0.00  0.00    +0.000 C 
ATOM      9  C   UNL     1       3.934   5.667  17.670  0.00  0.00    +0.000 C 
BRANCH   9  10
ATOM     10  C   UNL     1       5.380   6.012  17.998  0.00  0.00    +0.000 A 
ATOM     11  C   UNL     1       6.081   6.962  17.238  0.00  0.00    +0.000 A 
ATOM     12  C   UNL     1       7.414   7.260  17.530  0.00  0.00    +0.000 A 
ATOM     13  C   UNL     1       8.063   6.614  18.582  0.00  0.00    +0.000 A 
ATOM     14  C   UNL     1       7.378   5.671  19.346  0.00  0.00    +0.000 A 
ATOM     15  C   UNL     1       6.046   5.376  19.058  0.00  0.00    +0.000 A 
ENDBRANCH   9  10
ENDBRANCH   7   9
ENDBRANCH   1   7
BRANCH   4  16
ATOM     16  C   UNL     1       0.334  10.928  19.405  0.00  0.00    +0.000 C 
BRANCH  16  17
ATOM     17  N   UNL     1      -0.644  11.212  18.332  0.00  0.00    +0.000 NA
ATOM     18  C   UNL     1      -1.488  10.023  18.056  0.00  0.00    +0.000 C 
ATOM     19  C   UNL     1      -2.734  10.921  18.164  0.00  0.00    +0.000 C 
ATOM     20  C   UNL     1      -1.821  11.897  18.929  0.00  0.00    +0.000 C 
BRANCH  19  21
ATOM     21  C   UNL     1      -3.392  11.409  16.857  0.00  0.00    +0.000 C 
ATOM     22  O   UNL     1      -4.565  11.754  16.745  0.00  0.00    +0.000 OA
BRANCH  21  23
ATOM     23  O   UNL     1      -2.556  11.456  15.782  0.00  0.00    +0.000 OA
ATOM     24  H   UNL     1      -2.836  12.134  15.131  0.00  0.00    +0.000 HD
ENDBRANCH  21  23
ENDBRANCH  19  21
ENDBRANCH  16  17
ENDBRANCH   4  16
TORSDOF 7
ENDMDL
MODEL 3
REMARK VINA RESULT:      -7.3      1.859      3.597
REMARK  Name = 
REMARK  8 active torsions:
REMARK  status: ('A' for Active; 'I' for Inactive)
REMARK    1  A    between atoms: C_1  and  C_2
REMARK    2  A    between atoms: C_2  and  O_3
REMARK    3  A    between atoms: C_2  and  C_18
REMARK    4  A    between atoms: O_3  and  C_4
REMARK    5  A    between atoms: C_7  and  C_8
REMARK    6  A    between atoms: C_8  and  N_9
REMARK    7  A    between atoms: C_11  and  C_12
REMARK    8  A    between atoms: C_12  and  O_14
REMARK                            x       y       z     vdW  Elec       q    Type
REMARK                         _______ _______ _______ _____ _____    ______ ____
ROOT
ATOM      1  C   UNL     1       2.614   7.515  18.784  0.00  0.00    +0.000 A 
ATOM      2  C   UNL     1       2.356   8.362  17.704  0.00  0.00    +0.000 A 
ATOM      3  C   UNL     1       1.477   9.445  17.831  0.00  0.00    +0.000 A 
ATOM      4  C   UNL     1       0.815   9.679  19.040  0.00  0.00    +0.000 A 
ATOM      5  C   UNL     1       1.081   8.820  20.119  0.00  0.00    +0.000 A 
ATOM      6  C   UNL     1       1.962   7.740  19.991  0.00  0.00    +0.000 A 
ENDROOT
BRANCH   1   7
ATOM      7  O   UNL     1       3.516   6.522  18.527  0.00  0.00    +0.000 OA
BRANCH   7   9
ATOM      8  C   UNL     1       5.231   4.960  19.319  0.00  0.00    +0.000 C 
ATOM      9  C   UNL     1       3.854   5.587  19.560  0.00  0.00    +0.000 C 
BRANCH   9  10
ATOM     10  C   UNL     1       2.786   4.503  19.536  0.00  0.00    +0.000 A 
ATOM     11  C   UNL     1       2.418   3.886  18.330  0.00  0.00    +0.000 A 
ATOM     12  C   UNL     1       1.423   2.905  18.310  0.00  0.00    +0.000 A 
ATOM     13  C   UNL     1       0.784   2.531  19.492  0.00  0.00    +0.000 A 
ATOM     14  C   UNL     1       1.141   3.133  20.696  0.00  0.00    +0.000 A 
ATOM     15  C   UNL     1       2.138   4.108  20.718  0.00  0.00    +0.000 A 
ENDBRANCH   9  10
ENDBRANCH   7   9
ENDBRANCH   1   7
BRANCH   4  16
ATOM     16  C   UNL     1      -0.128  10.848  19.256  0.00  0.00    +0.000 C 
BRANCH  16  17
ATOM     17  N   UNL     1      -1.092  11.119  18.167  0.00  0.00    +0.000 NA
ATOM     18  C   UNL     1      -2.115  10.047  18.088  0.00  0.00    +0.000 C 
ATOM     19  C   UNL     1      -3.207  11.132  18.077  0.00  0.00    +0.000 C 
ATOM     20  C   UNL     1      -2.129  12.058  18.672  0.00  0.00    +0.000 C 
BRANCH  19  21
ATOM     21  C   UNL     1      -3.833  11.519  16.721  0.00  0.00    +0.000 C 
ATOM     22  O   UNL     1      -3.428  11.141  15.626  0.00  0.00    +0.000 OA
BRANCH  21  23
ATOM     23  O   UNL     1      -4.926  12.329  16.809  0.00  0.00    +0.000 OA
ATOM     24  H   UNL     1      -5.237  12.617  15.924  0.00  0.00    +0.000 HD
ENDBRANCH  21  23
ENDBRANCH  19  21
ENDBRANCH  16  17
ENDBRANCH   4  16
TORSDOF 7
ENDMDL
MODEL 4
REMARK VINA RESULT:      -7.3      2.737      8.841
REMARK  Name = 
REMARK  8 active torsions:
REMARK  status: ('A' for Active; 'I' for Inactive)
REMARK    1  A    between atoms: C_1  and  C_2
REMARK    2  A    between atoms: C_2  and  O_3
REMARK    3  A    between atoms: C_2  and  C_18
REMARK    4  A    between atoms: O_3  and  C_4
REMARK    5  A    between atoms: C_7  and  C_8
REMARK    6  A    between atoms: C_8  and  N_9
REMARK    7  A    between atoms: C_11  and  C_12
REMARK    8  A    between atoms: C_12  and  O_14
REMARK                            x       y       z     vdW  Elec       q    Type
REMARK                         _______ _______ _______ _____ _____    ______ ____
ROOT
ATOM      1  C   UNL     1       1.071   9.368  19.785  0.00  0.00    +0.000 A 
ATOM      2  C   UNL     1       1.676   9.060  18.564  0.00  0.00    +0.000 A 
ATOM      3  C   UNL     1       2.306   7.826  18.362  0.00  0.00    +0.000 A 
ATOM      4  C   UNL     1       2.369   6.887  19.396  0.00  0.00    +0.000 A 
ATOM      5  C   UNL     1       1.759   7.207  20.620  0.00  0.00    +0.000 A 
ATOM      6  C   UNL     1       1.127   8.440  20.819  0.00  0.00    +0.000 A 
ENDROOT
BRANCH   1   7
ATOM      7  O   UNL     1       0.466  10.591  19.829  0.00  0.00    +0.000 OA
BRANCH   7   9
ATOM      8  C   UNL     1       0.439  12.787  18.741  0.00  0.00    +0.000 C 
ATOM      9  C   UNL     1       0.178  11.283  18.607  0.00  0.00    +0.000 C 
BRANCH   9  10
ATOM     10  C   UNL     1      -1.295  11.044  18.306  0.00  0.00    +0.000 A 
ATOM     11  C   UNL     1      -1.690  10.032  17.418  0.00  0.00    +0.000 A 
ATOM     12  C   UNL     1      -3.042   9.830  17.129  0.00  0.00    +0.000 A 
ATOM     13  C   UNL     1      -4.014  10.636  17.721  0.00  0.00    +0.000 A 
ATOM     14  C   UNL     1      -3.636  11.643  18.606  0.00  0.00    +0.000 A 
ATOM     15  C   UNL     1      -2.287  11.843  18.899  0.00  0.00    +0.000 A 
ENDBRANCH   9  10
ENDBRANCH   7   9
ENDBRANCH   1   7
BRANCH   4  16
ATOM     16  C   UNL     1       3.010   5.521  19.239  0.00  0.00    +0.000 C 
BRANCH  16  17
ATOM     17  N   UNL     1       4.480   5.506  19.069  0.00  0.00    +0.000 NA
ATOM     18  C   UNL     1       5.007   4.121  19.145  0.00  0.00    +0.000 C 
ATOM     19  C   UNL     1       5.783   4.377  17.841  0.00  0.00    +0.000 C 
ATOM     20  C   UNL     1       4.792   5.534  17.615  0.00  0.00    +0.000 C 
BRANCH  19  21
ATOM     21  C   UNL     1       7.286   4.713  17.944  0.00  0.00    +0.000 C 
ATOM     22  O   UNL     1       7.836   5.177  18.938  0.00  0.00    +0.000 OA
BRANCH  21  23
ATOM     23  O   UNL     1       8.009   4.438  16.823  0.00  0.00    +0.000 OA
ATOM     24  H   UNL     1       7.490   3.916  16.173  0.00  0.00    +0.000 HD
ENDBRANCH  21  23
ENDBRANCH  19  21
ENDBRANCH  16  17
ENDBRANCH   4  16
TORSDOF 7
ENDMDL
MODEL 5
REMARK VINA RESULT:      -7.2      4.845      8.553
REMARK  Name = 
REMARK  8 active torsions:
REMARK  status: ('A' for Active; 'I' for Inactive)
REMARK    1  A    between atoms: C_1  and  C_2
REMARK    2  A    between atoms: C_2  and  O_3
REMARK    3  A    between atoms: C_2  and  C_18
REMARK    4  A    between atoms: O_3  and  C_4
REMARK    5  A    between atoms: C_7  and  C_8
REMARK    6  A    between atoms: C_8  and  N_9
REMARK    7  A    between atoms: C_11  and  C_12
REMARK    8  A    between atoms: C_12  and  O_14
REMARK                            x       y       z     vdW  Elec       q    Type
REMARK                         _______ _______ _______ _____ _____    ______ ____
ROOT
ATOM      1  C   UNL     1       4.865   5.764  18.289  0.00  0.00    +0.000 A 
ATOM      2  C   UNL     1       4.673   6.475  17.102  0.00  0.00    +0.000 A 
ATOM      3  C   UNL     1       5.413   6.172  15.952  0.00  0.00    +0.000 A 
ATOM      4  C   UNL     1       6.385   5.168  15.982  0.00  0.00    +0.000 A 
ATOM      5  C   UNL     1       6.572   4.461  17.181  0.00  0.00    +0.000 A 
ATOM      6  C   UNL     1       5.829   4.763  18.329  0.00  0.00    +0.000 A 
ENDROOT
BRANCH   1   7
ATOM      7  O   UNL     1       4.053   6.144  19.319  0.00  0.00    +0.000 OA
BRANCH   7   9
ATOM      8  C   UNL     1       2.024   7.317  20.037  0.00  0.00    +0.000 C 
ATOM      9  C   UNL     1       2.643   6.277  19.097  0.00  0.00    +0.000 C 
BRANCH   9  10
ATOM     10  C   UNL     1       2.026   4.912  19.366  0.00  0.00    +0.000 A 
ATOM     11  C   UNL     1       1.630   4.082  18.306  0.00  0.00    +0.000 A 
ATOM     12  C   UNL     1       1.045   2.838  18.559  0.00  0.00    +0.000 A 
ATOM     13  C   UNL     1       0.849   2.410  19.871  0.00  0.00    +0.000 A 
ATOM     14  C   UNL     1       1.240   3.222  20.933  0.00  0.00    +0.000 A 
ATOM     15  C   UNL     1       1.828   4.462  20.682  0.00  0.00    +0.000 A 
ENDBRANCH   9  10
ENDBRANCH   7   9
ENDBRANCH   1   7
BRANCH   4  16
ATOM     16  C   UNL     1       7.202   4.769  14.768  0.00  0.00    +0.000 C 
BRANCH  16  17
ATOM     17  N   UNL     1       6.581   3.781  13.858  0.00  0.00    +0.000 NA
ATOM     18  C   UNL     1       5.135   4.063  13.679  0.00  0.00    +0.000 C 
ATOM     19  C   UNL     1       5.336   3.963  12.156  0.00  0.00    +0.000 C 
ATOM     20  C   UNL     1       6.828   4.204  12.455  0.00  0.00    +0.000 C 
BRANCH  19  21
ATOM     21  C   UNL     1       4.935   2.648  11.455  0.00  0.00    +0.000 C 
ATOM     22  O   UNL     1       5.613   1.625  11.439  0.00  0.00    +0.000 OA
BRANCH  21  23
ATOM     23  O   UNL     1       3.720   2.679  10.839  0.00  0.00    +0.000 OA
ATOM     24  H   UNL     1       2.991   2.466  11.460  0.00  0.00    +0.000 HD
ENDBRANCH  21  23
ENDBRANCH  19  21
ENDBRANCH  16  17
ENDBRANCH   4  16
TORSDOF 7
ENDMDL
MODEL 6
REMARK VINA RESULT:      -7.2      1.787      3.587
REMARK  Name = 
REMARK  8 active torsions:
REMARK  status: ('A' for Active; 'I' for Inactive)
REMARK    1  A    between atoms: C_1  and  C_2
REMARK    2  A    between atoms: C_2  and  O_3
REMARK    3  A    between atoms: C_2  and  C_18
REMARK    4  A    between atoms: O_3  and  C_4
REMARK    5  A    between atoms: C_7  and  C_8
REMARK    6  A    between atoms: C_8  and  N_9
REMARK    7  A    between atoms: C_11  and  C_12
REMARK    8  A    between atoms: C_12  and  O_14
REMARK                            x       y       z     vdW  Elec       q    Type
REMARK                         _______ _______ _______ _____ _____    ______ ____
ROOT
ATOM      1  C   UNL     1       2.599   7.524  18.787  0.00  0.00    +0.000 A 
ATOM      2  C   UNL     1       2.452   8.501  17.799  0.00  0.00    +0.000 A 
ATOM      3  C   UNL     1       1.680   9.646  18.026  0.00  0.00    +0.000 A 
ATOM      4  C   UNL     1       1.012   9.819  19.242  0.00  0.00    +0.000 A 
ATOM      5  C   UNL     1       1.164   8.830  20.228  0.00  0.00    +0.000 A 
ATOM      6  C   UNL     1       1.939   7.687  20.001  0.00  0.00    +0.000 A 
ENDROOT
BRANCH   1   7
ATOM      7  O   UNL     1       3.406   6.479  18.441  0.00  0.00    +0.000 OA
BRANCH   7   9
ATOM      8  C   UNL     1       5.215   5.050  19.273  0.00  0.00    +0.000 C 
ATOM      9  C   UNL     1       3.758   5.499  19.426  0.00  0.00    +0.000 C 
BRANCH   9  10
ATOM     10  C   UNL     1       2.831   4.311  19.213  0.00  0.00    +0.000 A 
ATOM     11  C   UNL     1       3.041   3.419  18.150  0.00  0.00    +0.000 A 
ATOM     12  C   UNL     1       2.175   2.341  17.947  0.00  0.00    +0.000 A 
ATOM     13  C   UNL     1       1.090   2.143  18.800  0.00  0.00    +0.000 A 
ATOM     14  C   UNL     1       0.871   3.019  19.861  0.00  0.00    +0.000 A 
ATOM     15  C   UNL     1       1.737   4.092  20.068  0.00  0.00    +0.000 A 
ENDBRANCH   9  10
ENDBRANCH   7   9
ENDBRANCH   1   7
BRANCH   4  16
ATOM     16  C   UNL     1       0.182  11.046  19.565  0.00  0.00    +0.000 C 
BRANCH  16  17
ATOM     17  N   UNL     1      -1.249  10.985  19.191  0.00  0.00    +0.000 NA
ATOM     18  C   UNL     1      -1.712  12.289  18.657  0.00  0.00    +0.000 C 
ATOM     19  C   UNL     1      -2.315  11.546  17.451  0.00  0.00    +0.000 C 
ATOM     20  C   UNL     1      -1.360  10.398  17.830  0.00  0.00    +0.000 C 
BRANCH  19  21
ATOM     21  C   UNL     1      -3.832  11.265  17.455  0.00  0.00    +0.000 C 
ATOM     22  O   UNL     1      -4.376  10.350  18.065  0.00  0.00    +0.000 OA
BRANCH  21  23
ATOM     23  O   UNL     1      -4.575  12.140  16.721  0.00  0.00    +0.000 OA
ATOM     24  H   UNL     1      -5.526  12.100  16.959  0.00  0.00    +0.000 HD
ENDBRANCH  21  23
ENDBRANCH  19  21
ENDBRANCH  16  17
ENDBRANCH   4  16
TORSDOF 7
ENDMDL
MODEL 7
REMARK VINA RESULT:      -7.2      1.071      1.481
REMARK  Name = 
REMARK  8 active torsions:
REMARK  status: ('A' for Active; 'I' for Inactive)
REMARK    1  A    between atoms: C_1  and  C_2
REMARK    2  A    between atoms: C_2  and  O_3
REMARK    3  A    between atoms: C_2  and  C_18
REMARK    4  A    between atoms: O_3  and  C_4
REMARK    5  A    between atoms: C_7  and  C_8
REMARK    6  A    between atoms: C_8  and  N_9
REMARK    7  A    between atoms: C_11  and  C_12
REMARK    8  A    between atoms: C_12  and  O_14
REMARK                            x       y       z     vdW  Elec       q    Type
REMARK                         _______ _______ _______ _____ _____    ______ ____
ROOT
ATOM      1  C   UNL     1       2.483   7.478  18.893  0.00  0.00    +0.000 A 
ATOM      2  C   UNL     1       1.854   7.763  20.108  0.00  0.00    +0.000 A 
ATOM      3  C   UNL     1       1.069   8.911  20.262  0.00  0.00    +0.000 A 
ATOM      4  C   UNL     1       0.925   9.816  19.206  0.00  0.00    +0.000 A 
ATOM      5  C   UNL     1       1.562   9.522  17.989  0.00  0.00    +0.000 A 
ATOM      6  C   UNL     1       2.344   8.371  17.836  0.00  0.00    +0.000 A 
ENDROOT
BRANCH   1   7
ATOM      7  O   UNL     1       3.188   6.309  18.875  0.00  0.00    +0.000 OA
BRANCH   7   9
ATOM      8  C   UNL     1       2.468   4.218  17.819  0.00  0.00    +0.000 C 
ATOM      9  C   UNL     1       3.242   5.533  17.672  0.00  0.00    +0.000 C 
BRANCH   9  10
ATOM     10  C   UNL     1       4.710   5.235  17.408  0.00  0.00    +0.000 A 
ATOM     11  C   UNL     1       5.181   5.047  16.099  0.00  0.00    +0.000 A 
ATOM     12  C   UNL     1       6.526   4.754  15.863  0.00  0.00    +0.000 A 
ATOM     13  C   UNL     1       7.417   4.642  16.931  0.00  0.00    +0.000 A 
ATOM     14  C   UNL     1       6.964   4.829  18.235  0.00  0.00    +0.000 A 
ATOM     15  C   UNL     1       5.623   5.126  18.471  0.00  0.00    +0.000 A 
ENDBRANCH   9  10
ENDBRANCH   7   9
ENDBRANCH   1   7
BRANCH   4  16
ATOM     16  C   UNL     1       0.068  11.064  19.294  0.00  0.00    +0.000 C 
BRANCH  16  17
ATOM     17  N   UNL     1      -0.936  11.245  18.222  0.00  0.00    +0.000 NA
ATOM     18  C   UNL     1      -1.875  10.097  18.178  0.00  0.00    +0.000 C 
ATOM     19  C   UNL     1      -3.047  11.095  18.176  0.00  0.00    +0.000 C 
ATOM     20  C   UNL     1      -2.031  12.109  18.735  0.00  0.00    +0.000 C 
BRANCH  19  21
ATOM     21  C   UNL     1      -3.727  11.411  16.828  0.00  0.00    +0.000 C 
ATOM     22  O   UNL     1      -4.926  11.632  16.680  0.00  0.00    +0.000 OA
BRANCH  21  23
ATOM     23  O   UNL     1      -2.883  11.452  15.759  0.00  0.00    +0.000 OA
ATOM     24  H   UNL     1      -2.947  12.303  15.276  0.00  0.00    +0.000 HD
ENDBRANCH  21  23
ENDBRANCH  19  21
ENDBRANCH  16  17
ENDBRANCH   4  16
TORSDOF 7
ENDMDL
MODEL 8
REMARK VINA RESULT:      -7.2      2.921      8.689
REMARK  Name = 
REMARK  8 active torsions:
REMARK  status: ('A' for Active; 'I' for Inactive)
REMARK    1  A    between atoms: C_1  and  C_2
REMARK    2  A    between atoms: C_2  and  O_3
REMARK    3  A    between atoms: C_2  and  C_18
REMARK    4  A    between atoms: O_3  and  C_4
REMARK    5  A    between atoms: C_7  and  C_8
REMARK    6  A    between atoms: C_8  and  N_9
REMARK    7  A    between atoms: C_11  and  C_12
REMARK    8  A    between atoms: C_12  and  O_14
REMARK                            x       y       z     vdW  Elec       q    Type
REMARK                         _______ _______ _______ _____ _____    ______ ____
ROOT
ATOM      1  C   UNL     1       1.553   8.723  19.317  0.00  0.00    +0.000 A 
ATOM      2  C   UNL     1       1.657   7.733  20.298  0.00  0.00    +0.000 A 
ATOM      3  C   UNL     1       2.433   6.587  20.086  0.00  0.00    +0.000 A 
ATOM      4  C   UNL     1       3.097   6.398  18.871  0.00  0.00    +0.000 A 
ATOM      5  C   UNL     1       2.986   7.399  17.892  0.00  0.00    +0.000 A 
ATOM      6  C   UNL     1       2.212   8.545  18.105  0.00  0.00    +0.000 A 
ENDROOT
BRANCH   1   7
ATOM      7  O   UNL     1       0.791   9.799  19.671  0.00  0.00    +0.000 OA
BRANCH   7   9
ATOM      8  C   UNL     1       0.916  12.217  19.288  0.00  0.00    +0.000 C 
ATOM      9  C   UNL     1       0.551  10.842  18.717  0.00  0.00    +0.000 C 
BRANCH   9  10
ATOM     10  C   UNL     1      -0.934  10.802  18.389  0.00  0.00    +0.000 A 
ATOM     11  C   UNL     1      -1.440   9.875  17.464  0.00  0.00    +0.000 A 
ATOM     12  C   UNL     1      -2.801   9.856  17.151  0.00  0.00    +0.000 A 
ATOM     13  C   UNL     1      -3.672  10.762  17.755  0.00  0.00    +0.000 A 
ATOM     14  C   UNL     1      -3.185  11.686  18.676  0.00  0.00    +0.000 A 
ATOM     15  C   UNL     1      -1.827  11.703  18.993  0.00  0.00    +0.000 A 
ENDBRANCH   9  10
ENDBRANCH   7   9
ENDBRANCH   1   7
BRANCH   4  16
ATOM     16  C   UNL     1       3.977   5.196  18.585  0.00  0.00    +0.000 C 
BRANCH  16  17
ATOM     17  N   UNL     1       4.843   5.290  17.389  0.00  0.00    +0.000 NA
ATOM     18  C   UNL     1       6.164   4.663  17.641  0.00  0.00    +0.000 C 
ATOM     19  C   UNL     1       6.006   3.875  16.328  0.00  0.00    +0.000 C 
ATOM     20  C   UNL     1       4.502   4.178  16.464  0.00  0.00    +0.000 C 
BRANCH  19  21
ATOM     21  C   UNL     1       6.745   4.393  15.077  0.00  0.00    +0.000 C 
ATOM     22  O   UNL     1       7.528   5.338  15.064  0.00  0.00    +0.000 OA
BRANCH  21  23
ATOM     23  O   UNL     1       6.481   3.702  13.933  0.00  0.00    +0.000 OA
ATOM     24  H   UNL     1       6.329   2.749  14.110  0.00  0.00    +0.000 HD
ENDBRANCH  21  23
ENDBRANCH  19  21
ENDBRANCH  16  17
ENDBRANCH   4  16
TORSDOF 7
ENDMDL
MODEL 9
REMARK VINA RESULT:      -7.2      4.854      8.430
REMARK  Name = 
REMARK  8 active torsions:
REMARK  status: ('A' for Active; 'I' for Inactive)
REMARK    1  A    between atoms: C_1  and  C_2
REMARK    2  A    between atoms: C_2  and  O_3
REMARK    3  A    between atoms: C_2  and  C_18
REMARK    4  A    between atoms: O_3  and  C_4
REMARK    5  A    between atoms: C_7  and  C_8
REMARK    6  A    between atoms: C_8  and  N_9
REMARK    7  A    between atoms: C_11  and  C_12
REMARK    8  A    between atoms: C_12  and  O_14
REMARK                            x       y       z     vdW  Elec       q    Type
REMARK                         _______ _______ _______ _____ _____    ______ ____
ROOT
ATOM      1  C   UNL     1       4.586   5.974  18.418  0.00  0.00    +0.000 A 
ATOM      2  C   UNL     1       5.479   4.911  18.575  0.00  0.00    +0.000 A 
ATOM      3  C   UNL     1       6.328   4.523  17.531  0.00  0.00    +0.000 A 
ATOM      4  C   UNL     1       6.273   5.175  16.296  0.00  0.00    +0.000 A 
ATOM      5  C   UNL     1       5.371   6.241  16.148  0.00  0.00    +0.000 A 
ATOM      6  C   UNL     1       4.525   6.630  17.194  0.00  0.00    +0.000 A 
ENDROOT
BRANCH   1   7
ATOM      7  O   UNL     1       3.845   6.265  19.528  0.00  0.00    +0.000 OA
BRANCH   7   9
ATOM      8  C   UNL     1       1.820   7.225  20.521  0.00  0.00    +0.000 C 
ATOM      9  C   UNL     1       2.416   6.331  19.428  0.00  0.00    +0.000 C 
BRANCH   9  10
ATOM     10  C   UNL     1       1.900   4.909  19.591  0.00  0.00    +0.000 A 
ATOM     11  C   UNL     1       1.772   4.334  20.865  0.00  0.00    +0.000 A 
ATOM     12  C   UNL     1       1.316   3.021  21.008  0.00  0.00    +0.000 A 
ATOM     13  C   UNL     1       0.984   2.268  19.882  0.00  0.00    +0.000 A 
ATOM     14  C   UNL     1       1.104   2.827  18.612  0.00  0.00    +0.000 A 
ATOM     15  C   UNL     1       1.554   4.139  18.468  0.00  0.00    +0.000 A 
ENDBRANCH   9  10
ENDBRANCH   7   9
ENDBRANCH   1   7
BRANCH   4  16
ATOM     16  C   UNL     1       7.181   4.824  15.133  0.00  0.00    +0.000 C 
BRANCH  16  17
ATOM     17  N   UNL     1       6.649   3.842  14.162  0.00  0.00    +0.000 NA
ATOM     18  C   UNL     1       5.192   4.034  13.959  0.00  0.00    +0.000 C 
ATOM     19  C   UNL     1       5.433   4.022  12.439  0.00  0.00    +0.000 C 
ATOM     20  C   UNL     1       6.898   4.347  12.787  0.00  0.00    +0.000 C 
BRANCH  19  21
ATOM     21  C   UNL     1       5.139   2.718  11.668  0.00  0.00    +0.000 C 
ATOM     22  O   UNL     1       4.154   2.526  10.961  0.00  0.00    +0.000 OA
BRANCH  21  23
ATOM     23  O   UNL     1       6.086   1.748  11.807  0.00  0.00    +0.000 OA
ATOM     24  H   UNL     1       6.132   1.168  11.017  0.00  0.00    +0.000 HD
ENDBRANCH  21  23
ENDBRANCH  19  21
ENDBRANCH  16  17
ENDBRANCH   4  16
TORSDOF 7
ENDMDL
