MODEL 1
REMARK VINA RESULT:      -8.6      0.000      0.000
REMARK  Name = 
REMARK  4 active torsions:
REMARK  status: ('A' for Active; 'I' for Inactive)
REMARK    1  A    between atoms: C_2  and  C_4
REMARK    2  A    between atoms: C_9  and  N_10
REMARK    3  A    between atoms: N_17  and  C_18
REMARK    4  A    between atoms: C_18  and  C_19
REMARK                            x       y       z     vdW  Elec       q    Type
REMARK                         _______ _______ _______ _____ _____    ______ ____
ROOT
ATOM      1  C   UNL     1       6.714   4.979  18.089  0.00  0.00    +0.000 A 
ATOM      2  C   UNL     1       7.358   5.181  16.833  0.00  0.00    +0.000 A 
ATOM      3  C   UNL     1       6.780   4.714  15.683  0.00  0.00    +0.000 A 
ATOM      4  C   UNL     1       5.563   4.099  15.798  0.00  0.00    +0.000 A 
ATOM      5  N   UNL     1       4.865   3.984  16.953  0.00  0.00    +0.000 NA
ATOM      6  C   UNL     1       5.422   4.339  18.152  0.00  0.00    +0.000 A 
ATOM      7  C   UNL     1       5.072   3.634  14.454  0.00  0.00    +0.000 C 
ATOM      8  C   UNL     1       6.263   3.945  13.528  0.00  0.00    +0.000 C 
ATOM      9  C   UNL     1       7.179   4.926  14.265  0.00  0.00    +0.000 C 
ENDROOT
BRANCH   6  10
ATOM     10  N   UNL     1       4.687   3.973  19.295  0.00  0.00    +0.000 N 
ATOM     11  C   UNL     1       4.393   2.589  19.596  0.00  0.00    +0.000 C 
ATOM     12  C   UNL     1       2.895   2.293  19.401  0.00  0.00    +0.000 C 
ATOM     13  C   UNL     1       2.189   2.411  20.760  0.00  0.00    +0.000 C 
ATOM     14  C   UNL     1       1.490   3.743  20.841  0.00  0.00    +0.000 C 
ATOM     15  C   UNL     1       2.238   4.818  20.008  0.00  0.00    +0.000 C 
ATOM     16  C   UNL     1       3.849   4.920  20.153  0.00  0.00    +0.000 C 
ATOM     17  N   UNL     1       1.771   4.581  18.633  0.00  0.00    +0.000 NA
ATOM     18  C   UNL     1       2.200   3.174  18.274  0.00  0.00    +0.000 C 
BRANCH  17  19
ATOM     19  C   UNL     1       2.277   5.626  17.729  0.00  0.00    +0.000 C 
BRANCH  19  20
ATOM     20  C   UNL     1       2.121   7.124  17.863  0.00  0.00    +0.000 C 
ATOM     21  C   UNL     1       3.575   7.710  17.564  0.00  0.00    +0.000 C 
ATOM     22  C   UNL     1       2.537   8.621  17.938  0.00  0.00    +0.000 C 
ENDBRANCH  19  20
ENDBRANCH  17  19
ENDBRANCH   6  10
BRANCH   1  24
ATOM     23  N   UNL     1       8.144   6.834  18.862  0.00  0.00    +0.000 N 
ATOM     24  C   UNL     1       7.447   5.659  19.194  0.00  0.00    +0.000 C 
ATOM     25  O   UNL     1       7.384   5.262  20.335  0.00  0.00    +0.000 OA
ATOM     26  H   UNL     1       8.456   7.400  19.628  0.00  0.00    +0.000 HD
ATOM     27  H   UNL     1       8.116   7.257  17.939  0.00  0.00    +0.000 HD
ENDBRANCH   1  24
TORSDOF 4
ENDMDL
MODEL 2
REMARK VINA RESULT:      -8.4      0.825      1.011
REMARK  Name = 
REMARK  4 active torsions:
REMARK  status: ('A' for Active; 'I' for Inactive)
REMARK    1  A    between atoms: C_2  and  C_4
REMARK    2  A    between atoms: C_9  and  N_10
REMARK    3  A    between atoms: N_17  and  C_18
REMARK    4  A    between atoms: C_18  and  C_19
REMARK                            x       y       z     vdW  Elec       q    Type
REMARK                         _______ _______ _______ _____ _____    ______ ____
ROOT
ATOM      1  C   UNL     1       6.768   5.014  17.438  0.00  0.00    +0.000 A 
ATOM      2  C   UNL     1       7.444   5.206  16.198  0.00  0.00    +0.000 A 
ATOM      3  C   UNL     1       6.889   4.740  15.035  0.00  0.00    +0.000 A 
ATOM      4  C   UNL     1       5.666   4.135  15.122  0.00  0.00    +0.000 A 
ATOM      5  N   UNL     1       4.939   4.030  16.260  0.00  0.00    +0.000 NA
ATOM      6  C   UNL     1       5.470   4.385  17.471  0.00  0.00    +0.000 A 
ATOM      7  C   UNL     1       5.203   3.670  13.769  0.00  0.00    +0.000 C 
ATOM      8  C   UNL     1       6.419   3.968  12.870  0.00  0.00    +0.000 C 
ATOM      9  C   UNL     1       7.325   4.944  13.627  0.00  0.00    +0.000 C 
ENDROOT
BRANCH   6  10
ATOM     10  N   UNL     1       4.705   4.028  18.598  0.00  0.00    +0.000 N 
ATOM     11  C   UNL     1       3.942   2.800  18.638  0.00  0.00    +0.000 C 
ATOM     12  C   UNL     1       2.431   3.091  18.580  0.00  0.00    +0.000 C 
ATOM     13  C   UNL     1       1.878   3.112  20.013  0.00  0.00    +0.000 C 
ATOM     14  C   UNL     1       1.715   4.542  20.460  0.00  0.00    +0.000 C 
ATOM     15  C   UNL     1       2.764   5.462  19.780  0.00  0.00    +0.000 C 
ATOM     16  C   UNL     1       4.306   4.969  19.735  0.00  0.00    +0.000 C 
ATOM     17  N   UNL     1       2.181   5.739  18.457  0.00  0.00    +0.000 NA
ATOM     18  C   UNL     1       2.054   4.400  17.760  0.00  0.00    +0.000 C 
BRANCH  17  19
ATOM     19  C   UNL     1       2.991   6.733  17.734  0.00  0.00    +0.000 C 
BRANCH  19  20
ATOM     20  C   UNL     1       2.926   8.239  17.843  0.00  0.00    +0.000 C 
ATOM     21  C   UNL     1       1.369   8.581  17.779  0.00  0.00    +0.000 C 
ATOM     22  C   UNL     1       2.303   9.664  17.842  0.00  0.00    +0.000 C 
ENDBRANCH  19  20
ENDBRANCH  17  19
ENDBRANCH   6  10
BRANCH   1  24
ATOM     23  N   UNL     1       7.832   7.038  18.362  0.00  0.00    +0.000 N 
ATOM     24  C   UNL     1       7.480   5.691  18.558  0.00  0.00    +0.000 C 
ATOM     25  O   UNL     1       7.678   5.132  19.613  0.00  0.00    +0.000 OA
ATOM     26  H   UNL     1       8.114   7.549  19.176  0.00  0.00    +0.000 HD
ATOM     27  H   UNL     1       7.571   7.568  17.535  0.00  0.00    +0.000 HD
ENDBRANCH   1  24
TORSDOF 4
ENDMDL
MODEL 3
REMARK VINA RESULT:      -8.3      0.971      1.043
REMARK  Name = 
REMARK  4 active torsions:
REMARK  status: ('A' for Active; 'I' for Inactive)
REMARK    1  A    between atoms: C_2  and  C_4
REMARK    2  A    between atoms: C_9  and  N_10
REMARK    3  A    between atoms: N_17  and  C_18
REMARK    4  A    between atoms: C_18  and  C_19
REMARK                            x       y       z     vdW  Elec       q    Type
REMARK                         _______ _______ _______ _____ _____    ______ ____
ROOT
ATOM      1  C   UNL     1       6.254   4.644  17.764  0.00  0.00    +0.000 A 
ATOM      2  C   UNL     1       7.036   5.159  16.688  0.00  0.00    +0.000 A 
ATOM      3  C   UNL     1       6.743   4.806  15.397  0.00  0.00    +0.000 A 
ATOM      4  C   UNL     1       5.664   3.989  15.200  0.00  0.00    +0.000 A 
ATOM      5  N   UNL     1       4.828   3.568  16.179  0.00  0.00    +0.000 NA
ATOM      6  C   UNL     1       5.114   3.800  17.498  0.00  0.00    +0.000 A 
ATOM      7  C   UNL     1       5.486   3.685  13.738  0.00  0.00    +0.000 C 
ATOM      8  C   UNL     1       6.726   4.338  13.098  0.00  0.00    +0.000 C 
ATOM      9  C   UNL     1       7.312   5.317  14.121  0.00  0.00    +0.000 C 
ENDROOT
BRANCH   6  10
ATOM     10  N   UNL     1       4.293   3.131  18.424  0.00  0.00    +0.000 N 
ATOM     11  C   UNL     1       3.514   1.971  18.048  0.00  0.00    +0.000 C 
ATOM     12  C   UNL     1       2.011   2.305  18.022  0.00  0.00    +0.000 C 
ATOM     13  C   UNL     1       1.393   1.893  19.367  0.00  0.00    +0.000 C 
ATOM     14  C   UNL     1       1.227   3.115  20.231  0.00  0.00    +0.000 C 
ATOM     15  C   UNL     1       2.317   4.174  19.917  0.00  0.00    +0.000 C 
ATOM     16  C   UNL     1       3.854   3.679  19.782  0.00  0.00    +0.000 C 
ATOM     17  N   UNL     1       1.800   4.865  18.725  0.00  0.00    +0.000 NA
ATOM     18  C   UNL     1       1.689   3.814  17.639  0.00  0.00    +0.000 C 
BRANCH  17  19
ATOM     19  C   UNL     1       2.655   6.013  18.382  0.00  0.00    +0.000 C 
BRANCH  19  20
ATOM     20  C   UNL     1       2.241   7.456  18.203  0.00  0.00    +0.000 C 
ATOM     21  C   UNL     1       3.461   8.132  17.427  0.00  0.00    +0.000 C 
ATOM     22  C   UNL     1       2.364   8.960  17.828  0.00  0.00    +0.000 C 
ENDBRANCH  19  20
ENDBRANCH  17  19
ENDBRANCH   6  10
BRANCH   1  24
ATOM     23  N   UNL     1       8.018   5.115  19.422  0.00  0.00    +0.000 N 
ATOM     24  C   UNL     1       6.663   5.237  19.068  0.00  0.00    +0.000 C 
ATOM     25  O   UNL     1       5.883   5.860  19.753  0.00  0.00    +0.000 OA
ATOM     26  H   UNL     1       8.334   5.686  20.181  0.00  0.00    +0.000 HD
ATOM     27  H   UNL     1       8.719   4.705  18.812  0.00  0.00    +0.000 HD
ENDBRANCH   1  24
TORSDOF 4
ENDMDL
MODEL 4
REMARK VINA RESULT:      -6.6      8.374     11.518
REMARK  Name = 
REMARK  4 active torsions:
REMARK  status: ('A' for Active; 'I' for Inactive)
REMARK    1  A    between atoms: C_2  and  C_4
REMARK    2  A    between atoms: C_9  and  N_10
REMARK    3  A    between atoms: N_17  and  C_18
REMARK    4  A    between atoms: C_18  and  C_19
REMARK                            x       y       z     vdW  Elec       q    Type
REMARK                         _______ _______ _______ _____ _____    ______ ____
ROOT
ATOM      1  C   UNL     1      -0.951  11.569  22.665  0.00  0.00    +0.000 A 
ATOM      2  C   UNL     1      -2.194  11.545  23.363  0.00  0.00    +0.000 A 
ATOM      3  C   UNL     1      -2.992  12.657  23.383  0.00  0.00    +0.000 A 
ATOM      4  C   UNL     1      -2.563  13.750  22.680  0.00  0.00    +0.000 A 
ATOM      5  N   UNL     1      -1.447  13.781  21.913  0.00  0.00    +0.000 NA
ATOM      6  C   UNL     1      -0.555  12.743  21.923  0.00  0.00    +0.000 A 
ATOM      7  C   UNL     1      -3.538  14.887  22.813  0.00  0.00    +0.000 C 
ATOM      8  C   UNL     1      -4.558  14.345  23.833  0.00  0.00    +0.000 C 
ATOM      9  C   UNL     1      -4.373  12.826  23.911  0.00  0.00    +0.000 C 
ENDROOT
BRANCH   6  10
ATOM     10  N   UNL     1       0.663  12.982  21.261  0.00  0.00    +0.000 N 
ATOM     11  C   UNL     1       1.294  14.284  21.280  0.00  0.00    +0.000 C 
ATOM     12  C   UNL     1       1.219  14.950  19.894  0.00  0.00    +0.000 C 
ATOM     13  C   UNL     1       2.531  14.674  19.144  0.00  0.00    +0.000 C 
ATOM     14  C   UNL     1       2.313  13.554  18.159  0.00  0.00    +0.000 C 
ATOM     15  C   UNL     1       1.227  12.569  18.666  0.00  0.00    +0.000 C 
ATOM     16  C   UNL     1       1.296  12.073  20.207  0.00  0.00    +0.000 C 
ATOM     17  N   UNL     1      -0.039  13.226  18.301  0.00  0.00    +0.000 NA
ATOM     18  C   UNL     1      -0.065  14.543  19.048  0.00  0.00    +0.000 C 
BRANCH  17  19
ATOM     19  C   UNL     1      -1.180  12.340  18.581  0.00  0.00    +0.000 C 
BRANCH  19  20
ATOM     20  C   UNL     1      -2.031  11.582  17.588  0.00  0.00    +0.000 C 
ATOM     21  C   UNL     1      -1.507  10.077  17.672  0.00  0.00    +0.000 C 
ATOM     22  C   UNL     1      -2.522  10.393  16.714  0.00  0.00    +0.000 C 
ENDBRANCH  19  20
ENDBRANCH  17  19
ENDBRANCH   6  10
BRANCH   1  24
ATOM     23  N   UNL     1      -0.442   9.450  21.510  0.00  0.00    +0.000 N 
ATOM     24  C   UNL     1      -0.296  10.232  22.670  0.00  0.00    +0.000 C 
ATOM     25  O   UNL     1       0.392   9.867  23.596  0.00  0.00    +0.000 OA
ATOM     26  H   UNL     1       0.162   8.656  21.427  0.00  0.00    +0.000 HD
ATOM     27  H   UNL     1      -0.912   9.780  20.671  0.00  0.00    +0.000 HD
ENDBRANCH   1  24
TORSDOF 4
ENDMDL
MODEL 5
REMARK VINA RESULT:      -6.6      2.025      5.802
REMARK  Name = 
REMARK  4 active torsions:
REMARK  status: ('A' for Active; 'I' for Inactive)
REMARK    1  A    between atoms: C_2  and  C_4
REMARK    2  A    between atoms: C_9  and  N_10
REMARK    3  A    between atoms: N_17  and  C_18
REMARK    4  A    between atoms: C_18  and  C_19
REMARK                            x       y       z     vdW  Elec       q    Type
REMARK                         _______ _______ _______ _____ _____    ______ ____
ROOT
ATOM      1  C   UNL     1       3.201   6.238  18.272  0.00  0.00    +0.000 A 
ATOM      2  C   UNL     1       2.652   6.055  19.575  0.00  0.00    +0.000 A 
ATOM      3  C   UNL     1       2.730   4.831  20.185  0.00  0.00    +0.000 A 
ATOM      4  C   UNL     1       3.383   3.835  19.513  0.00  0.00    +0.000 A 
ATOM      5  N   UNL     1       4.015   3.994  18.326  0.00  0.00    +0.000 NA
ATOM      6  C   UNL     1       3.896   5.158  17.614  0.00  0.00    +0.000 A 
ATOM      7  C   UNL     1       3.369   2.558  20.307  0.00  0.00    +0.000 C 
ATOM      8  C   UNL     1       2.472   2.911  21.509  0.00  0.00    +0.000 C 
ATOM      9  C   UNL     1       2.367   4.438  21.574  0.00  0.00    +0.000 C 
ENDROOT
BRANCH   6  10
ATOM     10  N   UNL     1       4.413   5.125  16.306  0.00  0.00    +0.000 N 
ATOM     11  C   UNL     1       4.564   3.882  15.581  0.00  0.00    +0.000 C 
ATOM     12  C   UNL     1       6.051   3.517  15.424  0.00  0.00    +0.000 C 
ATOM     13  C   UNL     1       6.537   4.010  14.053  0.00  0.00    +0.000 C 
ATOM     14  C   UNL     1       7.300   5.297  14.231  0.00  0.00    +0.000 C 
ATOM     15  C   UNL     1       6.767   6.098  15.449  0.00  0.00    +0.000 C 
ATOM     16  C   UNL     1       5.165   6.265  15.618  0.00  0.00    +0.000 C 
ATOM     17  N   UNL     1       7.431   5.466  16.601  0.00  0.00    +0.000 NA
ATOM     18  C   UNL     1       6.973   4.023  16.617  0.00  0.00    +0.000 C 
BRANCH  17  19
ATOM     19  C   UNL     1       7.146   6.214  17.836  0.00  0.00    +0.000 C 
BRANCH  19  20
ATOM     20  C   UNL     1       7.989   7.287  18.486  0.00  0.00    +0.000 C 
ATOM     21  C   UNL     1       7.696   8.603  17.631  0.00  0.00    +0.000 C 
ATOM     22  C   UNL     1       8.660   8.676  18.687  0.00  0.00    +0.000 C 
ENDBRANCH  19  20
ENDBRANCH  17  19
ENDBRANCH   6  10
BRANCH   1  24
ATOM     23  N   UNL     1       1.828   8.224  17.768  0.00  0.00    +0.000 N 
ATOM     24  C   UNL     1       3.114   7.661  17.839  0.00  0.00    +0.000 C 
ATOM     25  O   UNL     1       4.106   8.322  17.631  0.00  0.00    +0.000 OA
ATOM     26  H   UNL     1       1.780   9.221  17.685  0.00  0.00    +0.000 HD
ATOM     27  H   UNL     1       0.986   7.730  18.053  0.00  0.00    +0.000 HD
ENDBRANCH   1  24
TORSDOF 4
ENDMDL
MODEL 6
REMARK VINA RESULT:      -6.2      7.137     10.159
REMARK  Name = 
REMARK  4 active torsions:
REMARK  status: ('A' for Active; 'I' for Inactive)
REMARK    1  A    between atoms: C_2  and  C_4
REMARK    2  A    between atoms: C_9  and  N_10
REMARK    3  A    between atoms: N_17  and  C_18
REMARK    4  A    between atoms: C_18  and  C_19
REMARK                            x       y       z     vdW  Elec       q    Type
REMARK                         _______ _______ _______ _____ _____    ______ ____
ROOT
ATOM      1  C   UNL     1      -0.551  10.347  18.979  0.00  0.00    +0.000 A 
ATOM      2  C   UNL     1      -0.962   9.874  17.698  0.00  0.00    +0.000 A 
ATOM      3  C   UNL     1      -2.126  10.330  17.139  0.00  0.00    +0.000 A 
ATOM      4  C   UNL     1      -2.831  11.271  17.838  0.00  0.00    +0.000 A 
ATOM      5  N   UNL     1      -2.423  11.830  19.002  0.00  0.00    +0.000 NA
ATOM      6  C   UNL     1      -1.324  11.355  19.665  0.00  0.00    +0.000 A 
ATOM      7  C   UNL     1      -4.083  11.656  17.099  0.00  0.00    +0.000 C 
ATOM      8  C   UNL     1      -4.090  10.683  15.904  0.00  0.00    +0.000 C 
ATOM      9  C   UNL     1      -2.679  10.099  15.777  0.00  0.00    +0.000 C 
ENDROOT
BRANCH   6  10
ATOM     10  N   UNL     1      -1.128  11.867  20.961  0.00  0.00    +0.000 N 
ATOM     11  C   UNL     1      -2.239  12.107  21.857  0.00  0.00    +0.000 C 
ATOM     12  C   UNL     1      -2.466  13.617  22.056  0.00  0.00    +0.000 C 
ATOM     13  C   UNL     1      -1.744  14.058  23.339  0.00  0.00    +0.000 C 
ATOM     14  C   UNL     1      -0.443  14.723  22.971  0.00  0.00    +0.000 C 
ATOM     15  C   UNL     1       0.131  14.137  21.654  0.00  0.00    +0.000 C 
ATOM     16  C   UNL     1       0.152  12.527  21.473  0.00  0.00    +0.000 C 
ATOM     17  N   UNL     1      -0.609  14.852  20.602  0.00  0.00    +0.000 NA
ATOM     18  C   UNL     1      -2.069  14.504  20.797  0.00  0.00    +0.000 C 
BRANCH  17  19
ATOM     19  C   UNL     1      -0.070  14.517  19.273  0.00  0.00    +0.000 C 
BRANCH  19  20
ATOM     20  C   UNL     1       1.315  14.795  18.737  0.00  0.00    +0.000 C 
ATOM     21  C   UNL     1       1.854  13.373  18.253  0.00  0.00    +0.000 C 
ATOM     22  C   UNL     1       2.731  14.501  18.164  0.00  0.00    +0.000 C 
ENDBRANCH  19  20
ENDBRANCH  17  19
ENDBRANCH   6  10
BRANCH   1  24
ATOM     23  N   UNL     1       1.787   9.862  18.362  0.00  0.00    +0.000 N 
ATOM     24  C   UNL     1       0.790   9.817  19.352  0.00  0.00    +0.000 C 
ATOM     25  O   UNL     1       1.030   9.437  20.475  0.00  0.00    +0.000 OA
ATOM     26  H   UNL     1       2.728   9.708  18.668  0.00  0.00    +0.000 HD
ATOM     27  H   UNL     1       1.648  10.287  17.449  0.00  0.00    +0.000 HD
ENDBRANCH   1  24
TORSDOF 4
ENDMDL
MODEL 7
REMARK VINA RESULT:      -6.2      9.409     12.237
REMARK  Name = 
REMARK  4 active torsions:
REMARK  status: ('A' for Active; 'I' for Inactive)
REMARK    1  A    between atoms: C_2  and  C_4
REMARK    2  A    between atoms: C_9  and  N_10
REMARK    3  A    between atoms: N_17  and  C_18
REMARK    4  A    between atoms: C_18  and  C_19
REMARK                            x       y       z     vdW  Elec       q    Type
REMARK                         _______ _______ _______ _____ _____    ______ ____
ROOT
ATOM      1  C   UNL     1      10.469  12.433  19.917  0.00  0.00    +0.000 A 
ATOM      2  C   UNL     1       9.739  11.599  20.814  0.00  0.00    +0.000 A 
ATOM      3  C   UNL     1       9.142  12.140  21.921  0.00  0.00    +0.000 A 
ATOM      4  C   UNL     1       9.246  13.493  22.092  0.00  0.00    +0.000 A 
ATOM      5  N   UNL     1       9.833  14.337  21.210  0.00  0.00    +0.000 NA
ATOM      6  C   UNL     1      10.532  13.858  20.135  0.00  0.00    +0.000 A 
ATOM      7  C   UNL     1       8.554  13.926  23.355  0.00  0.00    +0.000 C 
ATOM      8  C   UNL     1       8.136  12.587  23.994  0.00  0.00    +0.000 C 
ATOM      9  C   UNL     1       8.222  11.510  22.907  0.00  0.00    +0.000 C 
ENDROOT
BRANCH   6  10
ATOM     10  N   UNL     1      11.275  14.815  19.419  0.00  0.00    +0.000 N 
ATOM     11  C   UNL     1      11.792  16.006  20.057  0.00  0.00    +0.000 C 
ATOM     12  C   UNL     1      11.039  17.258  19.571  0.00  0.00    +0.000 C 
ATOM     13  C   UNL     1      11.841  17.903  18.430  0.00  0.00    +0.000 C 
ATOM     14  C   UNL     1      11.218  17.524  17.112  0.00  0.00    +0.000 C 
ATOM     15  C   UNL     1      10.542  16.130  17.193  0.00  0.00    +0.000 C 
ATOM     16  C   UNL     1      11.357  14.920  17.896  0.00  0.00    +0.000 C 
ATOM     17  N   UNL     1       9.234  16.411  17.807  0.00  0.00    +0.000 NA
ATOM     18  C   UNL     1       9.522  16.991  19.176  0.00  0.00    +0.000 C 
BRANCH  17  19
ATOM     19  C   UNL     1       8.398  15.199  17.818  0.00  0.00    +0.000 C 
BRANCH  19  20
ATOM     20  C   UNL     1       6.901  15.104  17.629  0.00  0.00    +0.000 C 
ATOM     21  C   UNL     1       6.322  14.884  19.100  0.00  0.00    +0.000 C 
ATOM     22  C   UNL     1       5.408  14.871  17.998  0.00  0.00    +0.000 C 
ENDBRANCH  19  20
ENDBRANCH  17  19
ENDBRANCH   6  10
BRANCH   1  24
ATOM     23  N   UNL     1      12.328  11.520  18.578  0.00  0.00    +0.000 N 
ATOM     24  C   UNL     1      10.939  11.673  18.725  0.00  0.00    +0.000 C 
ATOM     25  O   UNL     1      10.160  11.149  17.961  0.00  0.00    +0.000 OA
ATOM     26  H   UNL     1      12.635  10.842  17.908  0.00  0.00    +0.000 HD
ATOM     27  H   UNL     1      13.001  11.845  19.268  0.00  0.00    +0.000 HD
ENDBRANCH   1  24
TORSDOF 4
ENDMDL
MODEL 8
REMARK VINA RESULT:      -6.2      9.668     12.062
REMARK  Name = 
REMARK  4 active torsions:
REMARK  status: ('A' for Active; 'I' for Inactive)
REMARK    1  A    between atoms: C_2  and  C_4
REMARK    2  A    between atoms: C_9  and  N_10
REMARK    3  A    between atoms: N_17  and  C_18
REMARK    4  A    between atoms: C_18  and  C_19
REMARK                            x       y       z     vdW  Elec       q    Type
REMARK                         _______ _______ _______ _____ _____    ______ ____
ROOT
ATOM      1  C   UNL     1       8.830  16.583  18.401  0.00  0.00    +0.000 A 
ATOM      2  C   UNL     1       7.721  17.414  18.735  0.00  0.00    +0.000 A 
ATOM      3  C   UNL     1       6.529  16.851  19.105  0.00  0.00    +0.000 A 
ATOM      4  C   UNL     1       6.476  15.485  19.177  0.00  0.00    +0.000 A 
ATOM      5  N   UNL     1       7.533  14.663  18.978  0.00  0.00    +0.000 NA
ATOM      6  C   UNL     1       8.726  15.148  18.512  0.00  0.00    +0.000 A 
ATOM      7  C   UNL     1       5.102  15.026  19.581  0.00  0.00    +0.000 C 
ATOM      8  C   UNL     1       4.294  16.338  19.602  0.00  0.00    +0.000 C 
ATOM      9  C   UNL     1       5.295  17.497  19.629  0.00  0.00    +0.000 C 
ENDROOT
BRANCH   6  10
ATOM     10  N   UNL     1       9.673  14.176  18.139  0.00  0.00    +0.000 N 
ATOM     11  C   UNL     1       9.273  12.903  17.580  0.00  0.00    +0.000 C 
ATOM     12  C   UNL     1       9.533  11.760  18.578  0.00  0.00    +0.000 C 
ATOM     13  C   UNL     1      10.891  11.121  18.250  0.00  0.00    +0.000 C 
ATOM     14  C   UNL     1      11.928  11.640  19.212  0.00  0.00    +0.000 C 
ATOM     15  C   UNL     1      11.589  13.083  19.674  0.00  0.00    +0.000 C 
ATOM     16  C   UNL     1      11.144  14.164  18.552  0.00  0.00    +0.000 C 
ATOM     17  N   UNL     1      10.599  12.883  20.744  0.00  0.00    +0.000 NA
ATOM     18  C   UNL     1       9.414  12.191  20.104  0.00  0.00    +0.000 C 
BRANCH  17  19
ATOM     19  C   UNL     1      10.282  14.163  21.399  0.00  0.00    +0.000 C 
BRANCH  19  20
ATOM     20  C   UNL     1       9.004  14.550  22.108  0.00  0.00    +0.000 C 
ATOM     21  C   UNL     1       8.986  16.146  22.065  0.00  0.00    +0.000 C 
ATOM     22  C   UNL     1       7.935  15.471  22.763  0.00  0.00    +0.000 C 
ENDBRANCH  19  20
ENDBRANCH  17  19
ENDBRANCH   6  10
BRANCH   1  24
ATOM     23  N   UNL     1      10.536  17.400  16.818  0.00  0.00    +0.000 N 
ATOM     24  C   UNL     1      10.056  17.389  18.139  0.00  0.00    +0.000 C 
ATOM     25  O   UNL     1      10.569  18.061  19.004  0.00  0.00    +0.000 OA
ATOM     26  H   UNL     1      11.221  18.096  16.597  0.00  0.00    +0.000 HD
ATOM     27  H   UNL     1      10.056  16.943  16.047  0.00  0.00    +0.000 HD
ENDBRANCH   1  24
TORSDOF 4
ENDMDL
MODEL 9
REMARK VINA RESULT:      -6.2      8.203     10.804
REMARK  Name = 
REMARK  4 active torsions:
REMARK  status: ('A' for Active; 'I' for Inactive)
REMARK    1  A    between atoms: C_2  and  C_4
REMARK    2  A    between atoms: C_9  and  N_10
REMARK    3  A    between atoms: N_17  and  C_18
REMARK    4  A    between atoms: C_18  and  C_19
REMARK                            x       y       z     vdW  Elec       q    Type
REMARK                         _______ _______ _______ _____ _____    ______ ____
ROOT
ATOM      1  C   UNL     1      -0.863  10.779  21.098  0.00  0.00    +0.000 A 
ATOM      2  C   UNL     1      -0.644   9.980  19.937  0.00  0.00    +0.000 A 
ATOM      3  C   UNL     1      -1.280  10.288  18.764  0.00  0.00    +0.000 A 
ATOM      4  C   UNL     1      -2.080  11.398  18.756  0.00  0.00    +0.000 A 
ATOM      5  N   UNL     1      -2.228  12.246  19.801  0.00  0.00    +0.000 NA
ATOM      6  C   UNL     1      -1.703  11.950  21.030  0.00  0.00    +0.000 A 
ATOM      7  C   UNL     1      -2.713  11.589  17.405  0.00  0.00    +0.000 C 
ATOM      8  C   UNL     1      -2.274  10.326  16.639  0.00  0.00    +0.000 C 
ATOM      9  C   UNL     1      -1.104   9.703  17.407  0.00  0.00    +0.000 C 
ENDROOT
BRANCH   6  10
ATOM     10  N   UNL     1      -2.105  12.794  22.082  0.00  0.00    +0.000 N 
ATOM     11  C   UNL     1      -3.352  13.525  22.032  0.00  0.00    +0.000 C 
ATOM     12  C   UNL     1      -3.096  15.034  21.858  0.00  0.00    +0.000 C 
ATOM     13  C   UNL     1      -3.124  15.701  23.242  0.00  0.00    +0.000 C 
ATOM     14  C   UNL     1      -1.710  15.936  23.707  0.00  0.00    +0.000 C 
ATOM     15  C   UNL     1      -0.748  14.860  23.136  0.00  0.00    +0.000 C 
ATOM     16  C   UNL     1      -1.204  13.307  23.205  0.00  0.00    +0.000 C 
ATOM     17  N   UNL     1      -0.453  15.341  21.777  0.00  0.00    +0.000 NA
ATOM     18  C   UNL     1      -1.776  15.378  21.041  0.00  0.00    +0.000 C 
BRANCH  17  19
ATOM     19  C   UNL     1       0.578  14.502  21.145  0.00  0.00    +0.000 C 
BRANCH  19  20
ATOM     20  C   UNL     1       0.680  14.094  19.693  0.00  0.00    +0.000 C 
ATOM     21  C   UNL     1       1.750  12.910  19.681  0.00  0.00    +0.000 C 
ATOM     22  C   UNL     1       1.213  13.357  18.431  0.00  0.00    +0.000 C 
ENDBRANCH  19  20
ENDBRANCH  17  19
ENDBRANCH   6  10
BRANCH   1  24
ATOM     23  N   UNL     1      -0.639   9.763  23.334  0.00  0.00    +0.000 N 
ATOM     24  C   UNL     1       0.005  10.346  22.229  0.00  0.00    +0.000 C 
ATOM     25  O   UNL     1       1.211  10.423  22.168  0.00  0.00    +0.000 OA
ATOM     26  H   UNL     1      -0.053   9.286  23.992  0.00  0.00    +0.000 HD
ATOM     27  H   UNL     1      -1.637   9.575  23.363  0.00  0.00    +0.000 HD
ENDBRANCH   1  24
TORSDOF 4
ENDMDL
