MODEL 1
REMARK VINA RESULT:      -7.4      0.000      0.000
REMARK  Name = 
REMARK  8 active torsions:
REMARK  status: ('A' for Active; 'I' for Inactive)
REMARK    1  A    between atoms: C_1  and  O_2
REMARK    2  A    between atoms: O_2  and  C_3
REMARK    3  A    between atoms: C_8  and  O_9
REMARK    4  A    between atoms: O_9  and  C_10
REMARK    5  A    between atoms: C_13  and  C_15
REMARK    6  A    between atoms: C_18  and  O_19
REMARK    7  A    between atoms: O_19  and  C_20
REMARK    8  A    between atoms: C_20  and  C_21
REMARK                            x       y       z     vdW  Elec       q    Type
REMARK                         _______ _______ _______ _____ _____    ______ ____
ROOT
ATOM      1  C   UNL     1      -5.404  11.769  18.340  0.00  0.00    +0.000 A 
ATOM      2  C   UNL     1      -4.478  11.160  17.483  0.00  0.00    +0.000 A 
ATOM      3  C   UNL     1      -3.112  11.217  17.763  0.00  0.00    +0.000 A 
ATOM      4  C   UNL     1      -2.658  11.888  18.905  0.00  0.00    +0.000 A 
ATOM      5  C   UNL     1      -3.583  12.501  19.761  0.00  0.00    +0.000 A 
ATOM      6  C   UNL     1      -4.959  12.433  19.498  0.00  0.00    +0.000 A 
ATOM      7  C   UNL     1      -1.172  11.942  19.177  0.00  0.00    +0.000 C 
ATOM      8  N   UNL     1      -0.499  10.671  18.886  0.00  0.00    +0.000 N 
ATOM      9  C   UNL     1       0.664  10.384  19.607  0.00  0.00    +0.000 C 
ATOM     10  O   UNL     1       1.135  11.185  20.421  0.00  0.00    +0.000 OA
ATOM     11  C   UNL     1      -1.057   9.853  17.790  0.00  0.00    +0.000 C 
ATOM     12  C   UNL     1      -2.081  10.557  16.892  0.00  0.00    +0.000 C 
ENDROOT
BRANCH   9  13
ATOM     13  C   UNL     1       1.422   9.122  19.394  0.00  0.00    +0.000 A 
ATOM     14  C   UNL     1       2.110   8.935  18.191  0.00  0.00    +0.000 A 
ATOM     15  C   UNL     1       2.802   7.744  17.951  0.00  0.00    +0.000 A 
ATOM     16  C   UNL     1       2.787   6.755  18.927  0.00  0.00    +0.000 A 
ATOM     17  N   UNL     1       2.189   6.933  20.117  0.00  0.00    +0.000 NA
ATOM     18  C   UNL     1       1.556   8.114  20.335  0.00  0.00    +0.000 A 
BRANCH  16  19
ATOM     19  O   UNL     1       3.438   5.564  18.830  0.00  0.00    +0.000 OA
BRANCH  19  20
ATOM     20  C   UNL     1       3.207   4.821  17.632  0.00  0.00    +0.000 C 
BRANCH  20  21
ATOM     21  C   UNL     1       1.956   3.955  17.763  0.00  0.00    +0.000 C 
ATOM     22  F   UNL     1       1.611   3.708  19.044  0.00  0.00    +0.000 F 
ATOM     23  F   UNL     1       0.896   4.549  17.165  0.00  0.00    +0.000 F 
ATOM     24  F   UNL     1       2.139   2.760  17.152  0.00  0.00    +0.000 F 
ENDBRANCH  20  21
ENDBRANCH  19  20
ENDBRANCH  16  19
ENDBRANCH   9  13
BRANCH   1  26
ATOM     25  C   UNL     1      -7.364  12.710  17.397  0.00  0.00    +0.000 C 
ATOM     26  O   UNL     1      -6.707  11.578  17.955  0.00  0.00    +0.000 OA
ENDBRANCH   1  26
BRANCH   6  27
ATOM     27  O   UNL     1      -5.911  12.950  20.337  0.00  0.00    +0.000 OA
ATOM     28  C   UNL     1      -5.980  14.361  20.492  0.00  0.00    +0.000 C 
ENDBRANCH   6  27
TORSDOF 6
ENDMDL
MODEL 2
REMARK VINA RESULT:      -7.3      0.861      1.260
REMARK  Name = 
REMARK  8 active torsions:
REMARK  status: ('A' for Active; 'I' for Inactive)
REMARK    1  A    between atoms: C_1  and  O_2
REMARK    2  A    between atoms: O_2  and  C_3
REMARK    3  A    between atoms: C_8  and  O_9
REMARK    4  A    between atoms: O_9  and  C_10
REMARK    5  A    between atoms: C_13  and  C_15
REMARK    6  A    between atoms: C_18  and  O_19
REMARK    7  A    between atoms: O_19  and  C_20
REMARK    8  A    between atoms: C_20  and  C_21
REMARK                            x       y       z     vdW  Elec       q    Type
REMARK                         _______ _______ _______ _____ _____    ______ ____
ROOT
ATOM      1  C   UNL     1      -5.504  12.040  18.790  0.00  0.00    +0.000 A 
ATOM      2  C   UNL     1      -4.659  11.444  17.843  0.00  0.00    +0.000 A 
ATOM      3  C   UNL     1      -3.274  11.477  18.013  0.00  0.00    +0.000 A 
ATOM      4  C   UNL     1      -2.720  12.111  19.131  0.00  0.00    +0.000 A 
ATOM      5  C   UNL     1      -3.563  12.711  20.076  0.00  0.00    +0.000 A 
ATOM      6  C   UNL     1      -4.958  12.667  19.924  0.00  0.00    +0.000 A 
ATOM      7  C   UNL     1      -1.216  12.139  19.282  0.00  0.00    +0.000 C 
ATOM      8  N   UNL     1      -0.587  10.870  18.903  0.00  0.00    +0.000 N 
ATOM      9  C   UNL     1       0.627  10.549  19.519  0.00  0.00    +0.000 C 
ATOM     10  O   UNL     1       1.174  11.322  20.313  0.00  0.00    +0.000 OA
ATOM     11  C   UNL     1      -1.244  10.089  17.835  0.00  0.00    +0.000 C 
ATOM     12  C   UNL     1      -2.327  10.830  17.043  0.00  0.00    +0.000 C 
ENDROOT
BRANCH   9  13
ATOM     13  C   UNL     1       1.347   9.284  19.211  0.00  0.00    +0.000 A 
ATOM     14  C   UNL     1       1.414   8.284  20.184  0.00  0.00    +0.000 A 
ATOM     15  C   UNL     1       2.115   7.099  19.933  0.00  0.00    +0.000 A 
ATOM     16  C   UNL     1       2.741   6.943  18.703  0.00  0.00    +0.000 A 
ATOM     17  N   UNL     1       2.639   7.860  17.725  0.00  0.00    +0.000 NA
ATOM     18  C   UNL     1       1.923   8.983  17.986  0.00  0.00    +0.000 A 
BRANCH  16  19
ATOM     19  O   UNL     1       3.431   5.833  18.323  0.00  0.00    +0.000 OA
BRANCH  19  20
ATOM     20  C   UNL     1       2.937   4.589  18.820  0.00  0.00    +0.000 C 
BRANCH  20  21
ATOM     21  C   UNL     1       1.993   3.938  17.812  0.00  0.00    +0.000 C 
ATOM     22  F   UNL     1       1.083   4.795  17.303  0.00  0.00    +0.000 F 
ATOM     23  F   UNL     1       2.687   3.419  16.771  0.00  0.00    +0.000 F 
ATOM     24  F   UNL     1       1.314   2.916  18.386  0.00  0.00    +0.000 F 
ENDBRANCH  20  21
ENDBRANCH  19  20
ENDBRANCH  16  19
ENDBRANCH   9  13
BRANCH   1  26
ATOM     25  C   UNL     1      -7.485  12.984  17.896  0.00  0.00    +0.000 C 
ATOM     26  O   UNL     1      -6.837  11.875  18.507  0.00  0.00    +0.000 OA
ENDBRANCH   1  26
BRANCH   6  27
ATOM     27  O   UNL     1      -5.830  13.171  20.853  0.00  0.00    +0.000 OA
ATOM     28  C   UNL     1      -5.655  12.801  22.214  0.00  0.00    +0.000 C 
ENDBRANCH   6  27
TORSDOF 6
ENDMDL
MODEL 3
REMARK VINA RESULT:      -7.0      1.101      1.468
REMARK  Name = 
REMARK  8 active torsions:
REMARK  status: ('A' for Active; 'I' for Inactive)
REMARK    1  A    between atoms: C_1  and  O_2
REMARK    2  A    between atoms: O_2  and  C_3
REMARK    3  A    between atoms: C_8  and  O_9
REMARK    4  A    between atoms: O_9  and  C_10
REMARK    5  A    between atoms: C_13  and  C_15
REMARK    6  A    between atoms: C_18  and  O_19
REMARK    7  A    between atoms: O_19  and  C_20
REMARK    8  A    between atoms: C_20  and  C_21
REMARK                            x       y       z     vdW  Elec       q    Type
REMARK                         _______ _______ _______ _____ _____    ______ ____
ROOT
ATOM      1  C   UNL     1      -5.677  12.356  19.899  0.00  0.00    +0.000 A 
ATOM      2  C   UNL     1      -4.859  11.901  18.856  0.00  0.00    +0.000 A 
ATOM      3  C   UNL     1      -3.470  11.903  18.994  0.00  0.00    +0.000 A 
ATOM      4  C   UNL     1      -2.885  12.365  20.180  0.00  0.00    +0.000 A 
ATOM      5  C   UNL     1      -3.702  12.822  21.223  0.00  0.00    +0.000 A 
ATOM      6  C   UNL     1      -5.099  12.806  21.100  0.00  0.00    +0.000 A 
ATOM      7  C   UNL     1      -1.378  12.365  20.297  0.00  0.00    +0.000 C 
ATOM      8  N   UNL     1      -0.767  11.162  19.720  0.00  0.00    +0.000 N 
ATOM      9  C   UNL     1       0.458  10.750  20.253  0.00  0.00    +0.000 C 
ATOM     10  O   UNL     1       1.029  11.395  21.138  0.00  0.00    +0.000 OA
ATOM     11  C   UNL     1      -1.455  10.549  18.565  0.00  0.00    +0.000 C 
ATOM     12  C   UNL     1      -2.551  11.402  17.917  0.00  0.00    +0.000 C 
ENDROOT
BRANCH   9  13
ATOM     13  C   UNL     1       1.162   9.541  19.745  0.00  0.00    +0.000 A 
ATOM     14  C   UNL     1       1.669   9.545  18.442  0.00  0.00    +0.000 A 
ATOM     15  C   UNL     1       2.304   8.410  17.928  0.00  0.00    +0.000 A 
ATOM     16  C   UNL     1       2.416   7.285  18.735  0.00  0.00    +0.000 A 
ATOM     17  N   UNL     1       1.995   7.275  20.012  0.00  0.00    +0.000 NA
ATOM     18  C   UNL     1       1.415   8.403  20.494  0.00  0.00    +0.000 A 
BRANCH  16  19
ATOM     19  O   UNL     1       3.030   6.127  18.368  0.00  0.00    +0.000 OA
BRANCH  19  20
ATOM     20  C   UNL     1       2.849   5.017  19.247  0.00  0.00    +0.000 C 
BRANCH  20  21
ATOM     21  C   UNL     1       1.736   4.101  18.743  0.00  0.00    +0.000 C 
ATOM     22  F   UNL     1       1.240   4.475  17.545  0.00  0.00    +0.000 F 
ATOM     23  F   UNL     1       2.182   2.829  18.618  0.00  0.00    +0.000 F 
ATOM     24  F   UNL     1       0.705   4.077  19.620  0.00  0.00    +0.000 F 
ENDBRANCH  20  21
ENDBRANCH  19  20
ENDBRANCH  16  19
ENDBRANCH   9  13
BRANCH   1  26
ATOM     25  C   UNL     1      -7.549  13.178  18.702  0.00  0.00    +0.000 C 
ATOM     26  O   UNL     1      -7.017  12.238  19.628  0.00  0.00    +0.000 OA
ENDBRANCH   1  26
BRANCH   6  27
ATOM     27  O   UNL     1      -5.946  13.172  22.113  0.00  0.00    +0.000 OA
ATOM     28  C   UNL     1      -5.999  14.542  22.486  0.00  0.00    +0.000 C 
ENDBRANCH   6  27
TORSDOF 6
ENDMDL
MODEL 4
REMARK VINA RESULT:      -7.0      1.791      1.973
REMARK  Name = 
REMARK  8 active torsions:
REMARK  status: ('A' for Active; 'I' for Inactive)
REMARK    1  A    between atoms: C_1  and  O_2
REMARK    2  A    between atoms: O_2  and  C_3
REMARK    3  A    between atoms: C_8  and  O_9
REMARK    4  A    between atoms: O_9  and  C_10
REMARK    5  A    between atoms: C_13  and  C_15
REMARK    6  A    between atoms: C_18  and  O_19
REMARK    7  A    between atoms: O_19  and  C_20
REMARK    8  A    between atoms: C_20  and  C_21
REMARK                            x       y       z     vdW  Elec       q    Type
REMARK                         _______ _______ _______ _____ _____    ______ ____
ROOT
ATOM      1  C   UNL     1      -5.513  11.960  18.449  0.00  0.00    +0.000 A 
ATOM      2  C   UNL     1      -4.583  11.385  17.571  0.00  0.00    +0.000 A 
ATOM      3  C   UNL     1      -3.219  11.423  17.863  0.00  0.00    +0.000 A 
ATOM      4  C   UNL     1      -2.770  12.040  19.037  0.00  0.00    +0.000 A 
ATOM      5  C   UNL     1      -3.698  12.618  19.913  0.00  0.00    +0.000 A 
ATOM      6  C   UNL     1      -5.073  12.569  19.638  0.00  0.00    +0.000 A 
ATOM      7  C   UNL     1      -1.286  12.074  19.321  0.00  0.00    +0.000 C 
ATOM      8  N   UNL     1      -0.617  10.815  18.978  0.00  0.00    +0.000 N 
ATOM      9  C   UNL     1       0.540  10.490  19.693  0.00  0.00    +0.000 C 
ATOM     10  O   UNL     1       1.009  11.252  20.546  0.00  0.00    +0.000 OA
ATOM     11  C   UNL     1      -1.171  10.050  17.842  0.00  0.00    +0.000 C 
ATOM     12  C   UNL     1      -2.185  10.798  16.970  0.00  0.00    +0.000 C 
ENDROOT
BRANCH   9  13
ATOM     13  C   UNL     1       1.294   9.235  19.429  0.00  0.00    +0.000 A 
ATOM     14  C   UNL     1       1.959   9.085  18.209  0.00  0.00    +0.000 A 
ATOM     15  C   UNL     1       2.647   7.901  17.920  0.00  0.00    +0.000 A 
ATOM     16  C   UNL     1       2.650   6.884  18.867  0.00  0.00    +0.000 A 
ATOM     17  N   UNL     1       2.073   7.026  20.073  0.00  0.00    +0.000 NA
ATOM     18  C   UNL     1       1.445   8.200  20.337  0.00  0.00    +0.000 A 
BRANCH  16  19
ATOM     19  O   UNL     1       3.298   5.696  18.722  0.00  0.00    +0.000 OA
BRANCH  19  20
ATOM     20  C   UNL     1       4.200   5.607  17.618  0.00  0.00    +0.000 C 
BRANCH  20  21
ATOM     21  C   UNL     1       5.649   5.604  18.100  0.00  0.00    +0.000 C 
ATOM     22  F   UNL     1       5.767   5.434  19.434  0.00  0.00    +0.000 F 
ATOM     23  F   UNL     1       6.351   4.612  17.502  0.00  0.00    +0.000 F 
ATOM     24  F   UNL     1       6.259   6.771  17.782  0.00  0.00    +0.000 F 
ENDBRANCH  20  21
ENDBRANCH  19  20
ENDBRANCH  16  19
ENDBRANCH   9  13
BRANCH   1  26
ATOM     25  C   UNL     1      -7.436  12.930  17.460  0.00  0.00    +0.000 C 
ATOM     26  O   UNL     1      -6.814  11.792  18.047  0.00  0.00    +0.000 OA
ENDBRANCH   1  26
BRANCH   6  27
ATOM     27  O   UNL     1      -6.028  13.052  20.494  0.00  0.00    +0.000 OA
ATOM     28  C   UNL     1      -6.586  12.164  21.453  0.00  0.00    +0.000 C 
ENDBRANCH   6  27
TORSDOF 6
ENDMDL
MODEL 5
REMARK VINA RESULT:      -7.0      1.394      1.760
REMARK  Name = 
REMARK  8 active torsions:
REMARK  status: ('A' for Active; 'I' for Inactive)
REMARK    1  A    between atoms: C_1  and  O_2
REMARK    2  A    between atoms: O_2  and  C_3
REMARK    3  A    between atoms: C_8  and  O_9
REMARK    4  A    between atoms: O_9  and  C_10
REMARK    5  A    between atoms: C_13  and  C_15
REMARK    6  A    between atoms: C_18  and  O_19
REMARK    7  A    between atoms: O_19  and  C_20
REMARK    8  A    between atoms: C_20  and  C_21
REMARK                            x       y       z     vdW  Elec       q    Type
REMARK                         _______ _______ _______ _____ _____    ______ ____
ROOT
ATOM      1  C   UNL     1      -5.521  12.354  19.855  0.00  0.00    +0.000 A 
ATOM      2  C   UNL     1      -4.873  11.672  18.815  0.00  0.00    +0.000 A 
ATOM      3  C   UNL     1      -3.483  11.722  18.696  0.00  0.00    +0.000 A 
ATOM      4  C   UNL     1      -2.727  12.458  19.616  0.00  0.00    +0.000 A 
ATOM      5  C   UNL     1      -3.374  13.142  20.654  0.00  0.00    +0.000 A 
ATOM      6  C   UNL     1      -4.769  13.083  20.793  0.00  0.00    +0.000 A 
ATOM      7  C   UNL     1      -1.225  12.502  19.455  0.00  0.00    +0.000 C 
ATOM      8  N   UNL     1      -0.660  11.203  19.073  0.00  0.00    +0.000 N 
ATOM      9  C   UNL     1       0.659  10.941  19.456  0.00  0.00    +0.000 C 
ATOM     10  O   UNL     1       1.340  11.785  20.049  0.00  0.00    +0.000 OA
ATOM     11  C   UNL     1      -1.504  10.325  18.237  0.00  0.00    +0.000 C 
ATOM     12  C   UNL     1      -2.739  10.988  17.617  0.00  0.00    +0.000 C 
ENDROOT
BRANCH   9  13
ATOM     13  C   UNL     1       1.327   9.654  19.125  0.00  0.00    +0.000 A 
ATOM     14  C   UNL     1       1.365   8.639  20.085  0.00  0.00    +0.000 A 
ATOM     15  C   UNL     1       2.016   7.432  19.811  0.00  0.00    +0.000 A 
ATOM     16  C   UNL     1       2.624   7.268  18.573  0.00  0.00    +0.000 A 
ATOM     17  N   UNL     1       2.548   8.201  17.608  0.00  0.00    +0.000 NA
ATOM     18  C   UNL     1       1.879   9.347  17.891  0.00  0.00    +0.000 A 
BRANCH  16  19
ATOM     19  O   UNL     1       3.268   6.137  18.172  0.00  0.00    +0.000 OA
BRANCH  19  20
ATOM     20  C   UNL     1       2.447   4.983  17.990  0.00  0.00    +0.000 C 
BRANCH  20  21
ATOM     21  C   UNL     1       3.265   3.817  17.438  0.00  0.00    +0.000 C 
ATOM     22  F   UNL     1       4.011   3.198  18.377  0.00  0.00    +0.000 F 
ATOM     23  F   UNL     1       2.455   2.884  16.883  0.00  0.00    +0.000 F 
ATOM     24  F   UNL     1       4.106   4.244  16.466  0.00  0.00    +0.000 F 
ENDBRANCH  20  21
ENDBRANCH  19  20
ENDBRANCH  16  19
ENDBRANCH   9  13
BRANCH   1  26
ATOM     25  C   UNL     1      -7.317  10.825  20.081  0.00  0.00    +0.000 C 
ATOM     26  O   UNL     1      -6.879  12.161  19.865  0.00  0.00    +0.000 OA
ENDBRANCH   1  26
BRANCH   6  27
ATOM     27  O   UNL     1      -5.445  13.671  21.829  0.00  0.00    +0.000 OA
ATOM     28  C   UNL     1      -5.489  12.993  23.078  0.00  0.00    +0.000 C 
ENDBRANCH   6  27
TORSDOF 6
ENDMDL
MODEL 6
REMARK VINA RESULT:      -6.9      1.460      1.699
REMARK  Name = 
REMARK  8 active torsions:
REMARK  status: ('A' for Active; 'I' for Inactive)
REMARK    1  A    between atoms: C_1  and  O_2
REMARK    2  A    between atoms: O_2  and  C_3
REMARK    3  A    between atoms: C_8  and  O_9
REMARK    4  A    between atoms: O_9  and  C_10
REMARK    5  A    between atoms: C_13  and  C_15
REMARK    6  A    between atoms: C_18  and  O_19
REMARK    7  A    between atoms: O_19  and  C_20
REMARK    8  A    between atoms: C_20  and  C_21
REMARK                            x       y       z     vdW  Elec       q    Type
REMARK                         _______ _______ _______ _____ _____    ______ ____
ROOT
ATOM      1  C   UNL     1      -5.508  12.262  19.643  0.00  0.00    +0.000 A 
ATOM      2  C   UNL     1      -4.823  11.571  18.634  0.00  0.00    +0.000 A 
ATOM      3  C   UNL     1      -3.430  11.618  18.566  0.00  0.00    +0.000 A 
ATOM      4  C   UNL     1      -2.707  12.361  19.507  0.00  0.00    +0.000 A 
ATOM      5  C   UNL     1      -3.391  13.055  20.514  0.00  0.00    +0.000 A 
ATOM      6  C   UNL     1      -4.790  12.998  20.602  0.00  0.00    +0.000 A 
ATOM      7  C   UNL     1      -1.199  12.402  19.402  0.00  0.00    +0.000 C 
ATOM      8  N   UNL     1      -0.623  11.100  19.052  0.00  0.00    +0.000 N 
ATOM      9  C   UNL     1       0.681  10.840  19.485  0.00  0.00    +0.000 C 
ATOM     10  O   UNL     1       1.341  11.688  20.096  0.00  0.00    +0.000 OA
ATOM     11  C   UNL     1      -1.437  10.216  18.192  0.00  0.00    +0.000 C 
ATOM     12  C   UNL     1      -2.647  10.875  17.521  0.00  0.00    +0.000 C 
ENDROOT
BRANCH   9  13
ATOM     13  C   UNL     1       1.359   9.550  19.190  0.00  0.00    +0.000 A 
ATOM     14  C   UNL     1       1.984   9.377  17.951  0.00  0.00    +0.000 A 
ATOM     15  C   UNL     1       2.599   8.161  17.634  0.00  0.00    +0.000 A 
ATOM     16  C   UNL     1       2.572   7.135  18.571  0.00  0.00    +0.000 A 
ATOM     17  N   UNL     1       2.035   7.296  19.793  0.00  0.00    +0.000 NA
ATOM     18  C   UNL     1       1.478   8.498  20.084  0.00  0.00    +0.000 A 
BRANCH  16  19
ATOM     19  O   UNL     1       3.152   5.916  18.399  0.00  0.00    +0.000 OA
BRANCH  19  20
ATOM     20  C   UNL     1       4.172   5.845  17.402  0.00  0.00    +0.000 C 
BRANCH  20  21
ATOM     21  C   UNL     1       4.528   4.392  17.093  0.00  0.00    +0.000 C 
ATOM     22  F   UNL     1       3.604   3.512  17.533  0.00  0.00    +0.000 F 
ATOM     23  F   UNL     1       4.662   4.206  15.758  0.00  0.00    +0.000 F 
ATOM     24  F   UNL     1       5.711   4.060  17.662  0.00  0.00    +0.000 F 
ENDBRANCH  20  21
ENDBRANCH  19  20
ENDBRANCH  16  19
ENDBRANCH   9  13
BRANCH   1  26
ATOM     25  C   UNL     1      -7.307  10.721  19.699  0.00  0.00    +0.000 C 
ATOM     26  O   UNL     1      -6.866  12.071  19.605  0.00  0.00    +0.000 OA
ENDBRANCH   1  26
BRANCH   6  27
ATOM     27  O   UNL     1      -5.503  13.596  21.608  0.00  0.00    +0.000 OA
ATOM     28  C   UNL     1      -5.473  13.005  22.900  0.00  0.00    +0.000 C 
ENDBRANCH   6  27
TORSDOF 6
ENDMDL
MODEL 7
REMARK VINA RESULT:      -6.9      1.242      1.543
REMARK  Name = 
REMARK  8 active torsions:
REMARK  status: ('A' for Active; 'I' for Inactive)
REMARK    1  A    between atoms: C_1  and  O_2
REMARK    2  A    between atoms: O_2  and  C_3
REMARK    3  A    between atoms: C_8  and  O_9
REMARK    4  A    between atoms: O_9  and  C_10
REMARK    5  A    between atoms: C_13  and  C_15
REMARK    6  A    between atoms: C_18  and  O_19
REMARK    7  A    between atoms: O_19  and  C_20
REMARK    8  A    between atoms: C_20  and  C_21
REMARK                            x       y       z     vdW  Elec       q    Type
REMARK                         _______ _______ _______ _____ _____    ______ ____
ROOT
ATOM      1  C   UNL     1      -5.405  11.618  18.707  0.00  0.00    +0.000 A 
ATOM      2  C   UNL     1      -4.603  10.920  17.794  0.00  0.00    +0.000 A 
ATOM      3  C   UNL     1      -3.213  11.024  17.851  0.00  0.00    +0.000 A 
ATOM      4  C   UNL     1      -2.610  11.832  18.823  0.00  0.00    +0.000 A 
ATOM      5  C   UNL     1      -3.411  12.532  19.735  0.00  0.00    +0.000 A 
ATOM      6  C   UNL     1      -4.809  12.419  19.697  0.00  0.00    +0.000 A 
ATOM      7  C   UNL     1      -1.102  11.933  18.854  0.00  0.00    +0.000 C 
ATOM      8  N   UNL     1      -0.445  10.644  18.612  0.00  0.00    +0.000 N 
ATOM      9  C   UNL     1       0.822  10.457  19.173  0.00  0.00    +0.000 C 
ATOM     10  O   UNL     1       1.388  11.354  19.805  0.00  0.00    +0.000 OA
ATOM     11  C   UNL     1      -1.140   9.695  17.718  0.00  0.00    +0.000 C 
ATOM     12  C   UNL     1      -2.308  10.276  16.913  0.00  0.00    +0.000 C 
ENDROOT
BRANCH   9  13
ATOM     13  C   UNL     1       1.575   9.186  18.993  0.00  0.00    +0.000 A 
ATOM     14  C   UNL     1       2.290   8.980  17.810  0.00  0.00    +0.000 A 
ATOM     15  C   UNL     1       2.978   7.780  17.601  0.00  0.00    +0.000 A 
ATOM     16  C   UNL     1       2.931   6.803  18.587  0.00  0.00    +0.000 A 
ATOM     17  N   UNL     1       2.305   7.000  19.761  0.00  0.00    +0.000 NA
ATOM     18  C   UNL     1       1.677   8.188  19.949  0.00  0.00    +0.000 A 
BRANCH  16  19
ATOM     19  O   UNL     1       3.574   5.606  18.521  0.00  0.00    +0.000 OA
BRANCH  19  20
ATOM     20  C   UNL     1       2.986   4.539  19.266  0.00  0.00    +0.000 C 
BRANCH  20  21
ATOM     21  C   UNL     1       3.929   3.340  19.334  0.00  0.00    +0.000 C 
ATOM     22  F   UNL     1       3.745   2.459  18.329  0.00  0.00    +0.000 F 
ATOM     23  F   UNL     1       5.221   3.743  19.288  0.00  0.00    +0.000 F 
ATOM     24  F   UNL     1       3.764   2.669  20.499  0.00  0.00    +0.000 F 
ENDBRANCH  20  21
ENDBRANCH  19  20
ENDBRANCH  16  19
ENDBRANCH   9  13
BRANCH   1  26
ATOM     25  C   UNL     1      -7.216  10.140  19.098  0.00  0.00    +0.000 C 
ATOM     26  O   UNL     1      -6.746  11.367  18.553  0.00  0.00    +0.000 OA
ENDBRANCH   1  26
BRANCH   6  27
ATOM     27  O   UNL     1      -5.636  13.022  20.608  0.00  0.00    +0.000 OA
ATOM     28  C   UNL     1      -6.152  14.311  20.302  0.00  0.00    +0.000 C 
ENDBRANCH   6  27
TORSDOF 6
ENDMDL
MODEL 8
REMARK VINA RESULT:      -6.9      4.330      9.192
REMARK  Name = 
REMARK  8 active torsions:
REMARK  status: ('A' for Active; 'I' for Inactive)
REMARK    1  A    between atoms: C_1  and  O_2
REMARK    2  A    between atoms: O_2  and  C_3
REMARK    3  A    between atoms: C_8  and  O_9
REMARK    4  A    between atoms: O_9  and  C_10
REMARK    5  A    between atoms: C_13  and  C_15
REMARK    6  A    between atoms: C_18  and  O_19
REMARK    7  A    between atoms: O_19  and  C_20
REMARK    8  A    between atoms: C_20  and  C_21
REMARK                            x       y       z     vdW  Elec       q    Type
REMARK                         _______ _______ _______ _____ _____    ______ ____
ROOT
ATOM      1  C   UNL     1       1.751   3.738  19.822  0.00  0.00    +0.000 A 
ATOM      2  C   UNL     1       1.682   4.813  20.720  0.00  0.00    +0.000 A 
ATOM      3  C   UNL     1       1.936   6.114  20.284  0.00  0.00    +0.000 A 
ATOM      4  C   UNL     1       2.266   6.353  18.944  0.00  0.00    +0.000 A 
ATOM      5  C   UNL     1       2.338   5.279  18.047  0.00  0.00    +0.000 A 
ATOM      6  C   UNL     1       2.066   3.970  18.471  0.00  0.00    +0.000 A 
ATOM      7  C   UNL     1       2.545   7.772  18.504  0.00  0.00    +0.000 C 
ATOM      8  N   UNL     1       1.626   8.742  19.108  0.00  0.00    +0.000 N 
ATOM      9  C   UNL     1       1.372   9.915  18.391  0.00  0.00    +0.000 C 
ATOM     10  O   UNL     1       1.934  10.150  17.316  0.00  0.00    +0.000 OA
ATOM     11  C   UNL     1       1.124   8.435  20.464  0.00  0.00    +0.000 C 
ATOM     12  C   UNL     1       1.849   7.303  21.199  0.00  0.00    +0.000 C 
ENDROOT
BRANCH   9  13
ATOM     13  C   UNL     1       0.452  10.963  18.909  0.00  0.00    +0.000 A 
ATOM     14  C   UNL     1      -0.897  10.924  18.546  0.00  0.00    +0.000 A 
ATOM     15  C   UNL     1      -1.777  11.917  18.992  0.00  0.00    +0.000 A 
ATOM     16  C   UNL     1      -1.281  12.936  19.795  0.00  0.00    +0.000 A 
ATOM     17  N   UNL     1      -0.003  12.962  20.211  0.00  0.00    +0.000 NA
ATOM     18  C   UNL     1       0.817  11.966  19.792  0.00  0.00    +0.000 A 
BRANCH  16  19
ATOM     19  O   UNL     1      -2.032  13.945  20.314  0.00  0.00    +0.000 OA
BRANCH  19  20
ATOM     20  C   UNL     1      -2.096  14.007  21.740  0.00  0.00    +0.000 C 
BRANCH  20  21
ATOM     21  C   UNL     1      -3.181  13.076  22.275  0.00  0.00    +0.000 C 
ATOM     22  F   UNL     1      -4.062  12.686  21.330  0.00  0.00    +0.000 F 
ATOM     23  F   UNL     1      -2.634  11.957  22.806  0.00  0.00    +0.000 F 
ATOM     24  F   UNL     1      -3.884  13.681  23.262  0.00  0.00    +0.000 F 
ENDBRANCH  20  21
ENDBRANCH  19  20
ENDBRANCH  16  19
ENDBRANCH   9  13
BRANCH   1  26
ATOM     25  C   UNL     1       1.839   2.350  21.740  0.00  0.00    +0.000 C 
ATOM     26  O   UNL     1       1.422   2.534  20.392  0.00  0.00    +0.000 OA
ENDBRANCH   1  26
BRANCH   6  27
ATOM     27  O   UNL     1       2.050   2.894  17.623  0.00  0.00    +0.000 OA
ATOM     28  C   UNL     1       3.159   2.005  17.638  0.00  0.00    +0.000 C 
ENDBRANCH   6  27
TORSDOF 6
ENDMDL
MODEL 9
REMARK VINA RESULT:      -6.9      1.754      1.954
REMARK  Name = 
REMARK  8 active torsions:
REMARK  status: ('A' for Active; 'I' for Inactive)
REMARK    1  A    between atoms: C_1  and  O_2
REMARK    2  A    between atoms: O_2  and  C_3
REMARK    3  A    between atoms: C_8  and  O_9
REMARK    4  A    between atoms: O_9  and  C_10
REMARK    5  A    between atoms: C_13  and  C_15
REMARK    6  A    between atoms: C_18  and  O_19
REMARK    7  A    between atoms: O_19  and  C_20
REMARK    8  A    between atoms: C_20  and  C_21
REMARK                            x       y       z     vdW  Elec       q    Type
REMARK                         _______ _______ _______ _____ _____    ______ ____
ROOT
ATOM      1  C   UNL     1      -5.370  11.803  18.904  0.00  0.00    +0.000 A 
ATOM      2  C   UNL     1      -4.600  11.083  17.981  0.00  0.00    +0.000 A 
ATOM      3  C   UNL     1      -3.207  11.144  18.021  0.00  0.00    +0.000 A 
ATOM      4  C   UNL     1      -2.568  11.932  18.986  0.00  0.00    +0.000 A 
ATOM      5  C   UNL     1      -3.336  12.656  19.908  0.00  0.00    +0.000 A 
ATOM      6  C   UNL     1      -4.737  12.586  19.887  0.00  0.00    +0.000 A 
ATOM      7  C   UNL     1      -1.057  11.987  18.998  0.00  0.00    +0.000 C 
ATOM      8  N   UNL     1      -0.443  10.679  18.747  0.00  0.00    +0.000 N 
ATOM      9  C   UNL     1       0.825  10.453  19.292  0.00  0.00    +0.000 C 
ATOM     10  O   UNL     1       1.426  11.332  19.919  0.00  0.00    +0.000 OA
ATOM     11  C   UNL     1      -1.178   9.753  17.861  0.00  0.00    +0.000 C 
ATOM     12  C   UNL     1      -2.337  10.370  17.071  0.00  0.00    +0.000 C 
ENDROOT
BRANCH   9  13
ATOM     13  C   UNL     1       1.536   9.160  19.102  0.00  0.00    +0.000 A 
ATOM     14  C   UNL     1       2.228   8.932  17.909  0.00  0.00    +0.000 A 
ATOM     15  C   UNL     1       2.876   7.712  17.691  0.00  0.00    +0.000 A 
ATOM     16  C   UNL     1       2.814   6.737  18.679  0.00  0.00    +0.000 A 
ATOM     17  N   UNL     1       2.211   6.953  19.861  0.00  0.00    +0.000 NA
ATOM     18  C   UNL     1       1.622   8.160  20.057  0.00  0.00    +0.000 A 
BRANCH  16  19
ATOM     19  O   UNL     1       3.420   5.521  18.603  0.00  0.00    +0.000 OA
BRANCH  19  20
ATOM     20  C   UNL     1       4.806   5.490  18.946  0.00  0.00    +0.000 C 
BRANCH  20  21
ATOM     21  C   UNL     1       5.665   5.236  17.710  0.00  0.00    +0.000 C 
ATOM     22  F   UNL     1       6.792   4.543  17.977  0.00  0.00    +0.000 F 
ATOM     23  F   UNL     1       4.971   4.538  16.779  0.00  0.00    +0.000 F 
ATOM     24  F   UNL     1       6.033   6.407  17.137  0.00  0.00    +0.000 F 
ENDBRANCH  20  21
ENDBRANCH  19  20
ENDBRANCH  16  19
ENDBRANCH   9  13
BRANCH   1  26
ATOM     25  C   UNL     1      -7.246  10.464  19.451  0.00  0.00    +0.000 C 
ATOM     26  O   UNL     1      -6.719  11.594  18.767  0.00  0.00    +0.000 OA
ENDBRANCH   1  26
BRANCH   6  27
ATOM     27  O   UNL     1      -5.533  13.213  20.809  0.00  0.00    +0.000 OA
ATOM     28  C   UNL     1      -5.678  14.624  20.727  0.00  0.00    +0.000 C 
ENDBRANCH   6  27
TORSDOF 6
ENDMDL
