MODEL 1
REMARK VINA RESULT:      -7.1      0.000      0.000
REMARK  Name = 
REMARK  7 active torsions:
REMARK  status: ('A' for Active; 'I' for Inactive)
REMARK    1  A    between atoms: C_1  and  C_2
REMARK    2  A    between atoms: C_2  and  C_4
REMARK    3  A    between atoms: C_5  and  O_6
REMARK    4  A    between atoms: C_7  and  C_8
REMARK    5  A    between atoms: C_12  and  O_13
REMARK    6  A    between atoms: C_16  and  C_17
REMARK    7  A    between atoms: C_16  and  C_18
REMARK                            x       y       z     vdW  Elec       q    Type
REMARK                         _______ _______ _______ _____ _____    ______ ____
ROOT
ATOM      1  C   UNL     1       5.711   5.899  17.682  0.00  0.00    +0.000 A 
ATOM      2  C   UNL     1       4.537   6.672  17.604  0.00  0.00    +0.000 A 
ATOM      3  C   UNL     1       3.330   6.162  18.101  0.00  0.00    +0.000 A 
ATOM      4  C   UNL     1       3.285   4.881  18.681  0.00  0.00    +0.000 A 
ATOM      5  C   UNL     1       4.452   4.103  18.783  0.00  0.00    +0.000 A 
ATOM      6  C   UNL     1       5.667   4.635  18.299  0.00  0.00    +0.000 A 
ATOM      7  C   UNL     1       4.360   2.773  19.381  0.00  0.00    +0.000 C 
ATOM      8  C   UNL     1       3.171   2.325  19.781  0.00  0.00    +0.000 C 
ATOM      9  C   UNL     1       1.910   3.139  19.700  0.00  0.00    +0.000 C 
ATOM     10  C   UNL     1       1.386   3.371  21.121  0.00  0.00    +0.000 C 
ATOM     11  C   UNL     1       0.864   2.387  18.869  0.00  0.00    +0.000 C 
ATOM     12  O   UNL     1       2.057   4.438  19.102  0.00  0.00    +0.000 OA
ENDROOT
BRANCH   1  14
ATOM     13  C   UNL     1       7.749   7.513  17.794  0.00  0.00    +0.000 C 
ATOM     14  C   UNL     1       6.969   6.439  17.082  0.00  0.00    +0.000 C 
ATOM     15  O   UNL     1       7.387   5.936  16.036  0.00  0.00    +0.000 OA
ENDBRANCH   1  14
BRANCH   2  16
ATOM     16  O   UNL     1       4.549   7.928  17.057  0.00  0.00    +0.000 OA
ATOM     17  H   UNL     1       5.449   8.319  17.133  0.00  0.00    +0.000 HD
ENDBRANCH   2  16
BRANCH   3  18
ATOM     18  C   UNL     1       2.066   6.942  18.039  0.00  0.00    +0.000 C 
ATOM     19  O   UNL     1       2.007   8.166  18.053  0.00  0.00    +0.000 OA
ENDBRANCH   3  18
BRANCH   6  20
ATOM     20  O   UNL     1       6.846   3.950  18.446  0.00  0.00    +0.000 OA
ATOM     21  H   UNL     1       6.749   3.211  19.067  0.00  0.00    +0.000 HD
ENDBRANCH   6  20
TORSDOF 4
ENDMDL
MODEL 2
REMARK VINA RESULT:      -6.8      1.858      2.056
REMARK  Name = 
REMARK  7 active torsions:
REMARK  status: ('A' for Active; 'I' for Inactive)
REMARK    1  A    between atoms: C_1  and  C_2
REMARK    2  A    between atoms: C_2  and  C_4
REMARK    3  A    between atoms: C_5  and  O_6
REMARK    4  A    between atoms: C_7  and  C_8
REMARK    5  A    between atoms: C_12  and  O_13
REMARK    6  A    between atoms: C_16  and  C_17
REMARK    7  A    between atoms: C_16  and  C_18
REMARK                            x       y       z     vdW  Elec       q    Type
REMARK                         _______ _______ _______ _____ _____    ______ ____
ROOT
ATOM      1  C   UNL     1       5.433   4.741  15.909  0.00  0.00    +0.000 A 
ATOM      2  C   UNL     1       4.906   5.922  16.465  0.00  0.00    +0.000 A 
ATOM      3  C   UNL     1       3.976   5.848  17.511  0.00  0.00    +0.000 A 
ATOM      4  C   UNL     1       3.566   4.597  18.010  0.00  0.00    +0.000 A 
ATOM      5  C   UNL     1       4.095   3.409  17.478  0.00  0.00    +0.000 A 
ATOM      6  C   UNL     1       5.048   3.496  16.440  0.00  0.00    +0.000 A 
ATOM      7  C   UNL     1       3.634   2.132  18.015  0.00  0.00    +0.000 C 
ATOM      8  C   UNL     1       2.705   2.130  18.970  0.00  0.00    +0.000 C 
ATOM      9  C   UNL     1       2.133   3.383  19.570  0.00  0.00    +0.000 C 
ATOM     10  C   UNL     1       2.492   3.419  21.059  0.00  0.00    +0.000 C 
ATOM     11  C   UNL     1       0.610   3.389  19.395  0.00  0.00    +0.000 C 
ATOM     12  O   UNL     1       2.620   4.611  19.003  0.00  0.00    +0.000 OA
ENDROOT
BRANCH   1  14
ATOM     13  C   UNL     1       6.015   4.221  13.427  0.00  0.00    +0.000 C 
ATOM     14  C   UNL     1       6.370   4.848  14.749  0.00  0.00    +0.000 C 
ATOM     15  O   UNL     1       7.396   5.521  14.880  0.00  0.00    +0.000 OA
ENDBRANCH   1  14
BRANCH   2  16
ATOM     16  O   UNL     1       5.293   7.155  16.011  0.00  0.00    +0.000 OA
ATOM     17  H   UNL     1       4.635   7.835  16.281  0.00  0.00    +0.000 HD
ENDBRANCH   2  16
BRANCH   3  18
ATOM     18  C   UNL     1       3.393   7.068  18.129  0.00  0.00    +0.000 C 
ATOM     19  O   UNL     1       2.855   7.971  17.500  0.00  0.00    +0.000 OA
ENDBRANCH   3  18
BRANCH   6  20
ATOM     20  O   UNL     1       5.653   2.370  15.940  0.00  0.00    +0.000 OA
ATOM     21  H   UNL     1       6.338   2.596  15.294  0.00  0.00    +0.000 HD
ENDBRANCH   6  20
TORSDOF 4
ENDMDL
MODEL 3
REMARK VINA RESULT:      -6.5      1.664      5.062
REMARK  Name = 
REMARK  7 active torsions:
REMARK  status: ('A' for Active; 'I' for Inactive)
REMARK    1  A    between atoms: C_1  and  C_2
REMARK    2  A    between atoms: C_2  and  C_4
REMARK    3  A    between atoms: C_5  and  O_6
REMARK    4  A    between atoms: C_7  and  C_8
REMARK    5  A    between atoms: C_12  and  O_13
REMARK    6  A    between atoms: C_16  and  C_17
REMARK    7  A    between atoms: C_16  and  C_18
REMARK                            x       y       z     vdW  Elec       q    Type
REMARK                         _______ _______ _______ _____ _____    ______ ____
ROOT
ATOM      1  C   UNL     1       3.120   3.841  20.213  0.00  0.00    +0.000 A 
ATOM      2  C   UNL     1       2.531   5.107  20.036  0.00  0.00    +0.000 A 
ATOM      3  C   UNL     1       3.107   6.029  19.152  0.00  0.00    +0.000 A 
ATOM      4  C   UNL     1       4.273   5.695  18.438  0.00  0.00    +0.000 A 
ATOM      5  C   UNL     1       4.864   4.429  18.590  0.00  0.00    +0.000 A 
ATOM      6  C   UNL     1       4.262   3.500  19.466  0.00  0.00    +0.000 A 
ATOM      7  C   UNL     1       6.080   4.127  17.839  0.00  0.00    +0.000 C 
ATOM      8  C   UNL     1       6.609   5.068  17.059  0.00  0.00    +0.000 C 
ATOM      9  C   UNL     1       5.991   6.424  16.864  0.00  0.00    +0.000 C 
ATOM     10  C   UNL     1       5.604   6.577  15.390  0.00  0.00    +0.000 C 
ATOM     11  C   UNL     1       6.999   7.510  17.259  0.00  0.00    +0.000 C 
ATOM     12  O   UNL     1       4.798   6.669  17.627  0.00  0.00    +0.000 OA
ENDROOT
BRANCH   1  14
ATOM     13  C   UNL     1       1.051   2.590  21.175  0.00  0.00    +0.000 C 
ATOM     14  C   UNL     1       2.524   2.904  21.214  0.00  0.00    +0.000 C 
ATOM     15  O   UNL     1       3.274   2.343  22.017  0.00  0.00    +0.000 OA
ENDBRANCH   1  14
BRANCH   2  16
ATOM     16  O   UNL     1       1.389   5.459  20.707  0.00  0.00    +0.000 OA
ATOM     17  H   UNL     1       1.299   6.439  20.727  0.00  0.00    +0.000 HD
ENDBRANCH   2  16
BRANCH   3  18
ATOM     18  C   UNL     1       2.520   7.378  18.934  0.00  0.00    +0.000 C 
ATOM     19  O   UNL     1       1.935   8.024  19.795  0.00  0.00    +0.000 OA
ENDBRANCH   3  18
BRANCH   6  20
ATOM     20  O   UNL     1       4.754   2.225  19.590  0.00  0.00    +0.000 OA
ATOM     21  H   UNL     1       5.237   1.956  18.794  0.00  0.00    +0.000 HD
ENDBRANCH   6  20
TORSDOF 4
ENDMDL
MODEL 4
REMARK VINA RESULT:      -6.4      0.823      1.036
REMARK  Name = 
REMARK  7 active torsions:
REMARK  status: ('A' for Active; 'I' for Inactive)
REMARK    1  A    between atoms: C_1  and  C_2
REMARK    2  A    between atoms: C_2  and  C_4
REMARK    3  A    between atoms: C_5  and  O_6
REMARK    4  A    between atoms: C_7  and  C_8
REMARK    5  A    between atoms: C_12  and  O_13
REMARK    6  A    between atoms: C_16  and  C_17
REMARK    7  A    between atoms: C_16  and  C_18
REMARK                            x       y       z     vdW  Elec       q    Type
REMARK                         _______ _______ _______ _____ _____    ______ ____
ROOT
ATOM      1  C   UNL     1       5.757   5.585  17.193  0.00  0.00    +0.000 A 
ATOM      2  C   UNL     1       4.593   6.376  17.149  0.00  0.00    +0.000 A 
ATOM      3  C   UNL     1       3.473   6.015  17.909  0.00  0.00    +0.000 A 
ATOM      4  C   UNL     1       3.505   4.865  18.720  0.00  0.00    +0.000 A 
ATOM      5  C   UNL     1       4.665   4.074  18.790  0.00  0.00    +0.000 A 
ATOM      6  C   UNL     1       5.796   4.460  18.037  0.00  0.00    +0.000 A 
ATOM      7  C   UNL     1       4.654   2.883  19.634  0.00  0.00    +0.000 C 
ATOM      8  C   UNL     1       3.537   2.563  20.287  0.00  0.00    +0.000 C 
ATOM      9  C   UNL     1       2.288   3.397  20.245  0.00  0.00    +0.000 C 
ATOM     10  C   UNL     1       1.993   3.907  21.659  0.00  0.00    +0.000 C 
ATOM     11  C   UNL     1       1.118   2.546  19.738  0.00  0.00    +0.000 C 
ATOM     12  O   UNL     1       2.353   4.557  19.398  0.00  0.00    +0.000 OA
ENDROOT
BRANCH   1  14
ATOM     13  C   UNL     1       7.176   5.193  15.048  0.00  0.00    +0.000 C 
ATOM     14  C   UNL     1       6.912   5.956  16.319  0.00  0.00    +0.000 C 
ATOM     15  O   UNL     1       7.590   6.940  16.624  0.00  0.00    +0.000 OA
ENDBRANCH   1  14
BRANCH   2  16
ATOM     16  O   UNL     1       4.532   7.508  16.379  0.00  0.00    +0.000 OA
ATOM     17  H   UNL     1       4.355   7.268  15.441  0.00  0.00    +0.000 HD
ENDBRANCH   2  16
BRANCH   3  18
ATOM     18  C   UNL     1       2.222   6.818  17.893  0.00  0.00    +0.000 C 
ATOM     19  O   UNL     1       2.178   8.031  18.060  0.00  0.00    +0.000 OA
ENDBRANCH   3  18
BRANCH   6  20
ATOM     20  O   UNL     1       6.977   3.768  18.131  0.00  0.00    +0.000 OA
ATOM     21  H   UNL     1       7.112   3.424  19.027  0.00  0.00    +0.000 HD
ENDBRANCH   6  20
TORSDOF 4
ENDMDL
MODEL 5
REMARK VINA RESULT:      -6.3      1.736      5.197
REMARK  Name = 
REMARK  7 active torsions:
REMARK  status: ('A' for Active; 'I' for Inactive)
REMARK    1  A    between atoms: C_1  and  C_2
REMARK    2  A    between atoms: C_2  and  C_4
REMARK    3  A    between atoms: C_5  and  O_6
REMARK    4  A    between atoms: C_7  and  C_8
REMARK    5  A    between atoms: C_12  and  O_13
REMARK    6  A    between atoms: C_16  and  C_17
REMARK    7  A    between atoms: C_16  and  C_18
REMARK                            x       y       z     vdW  Elec       q    Type
REMARK                         _______ _______ _______ _____ _____    ______ ____
ROOT
ATOM      1  C   UNL     1       2.022   3.640  19.305  0.00  0.00    +0.000 A 
ATOM      2  C   UNL     1       1.981   5.015  19.602  0.00  0.00    +0.000 A 
ATOM      3  C   UNL     1       2.849   5.898  18.946  0.00  0.00    +0.000 A 
ATOM      4  C   UNL     1       3.763   5.417  17.989  0.00  0.00    +0.000 A 
ATOM      5  C   UNL     1       3.805   4.049  17.669  0.00  0.00    +0.000 A 
ATOM      6  C   UNL     1       2.909   3.172  18.319  0.00  0.00    +0.000 A 
ATOM      7  C   UNL     1       4.775   3.588  16.679  0.00  0.00    +0.000 C 
ATOM      8  C   UNL     1       5.612   4.471  16.135  0.00  0.00    +0.000 C 
ATOM      9  C   UNL     1       5.580   5.941  16.445  0.00  0.00    +0.000 C 
ATOM     10  C   UNL     1       5.240   6.704  15.161  0.00  0.00    +0.000 C 
ATOM     11  C   UNL     1       6.949   6.384  16.975  0.00  0.00    +0.000 C 
ATOM     12  O   UNL     1       4.607   6.339  17.426  0.00  0.00    +0.000 OA
ENDROOT
BRANCH   1  14
ATOM     13  C   UNL     1       1.354   2.493  21.543  0.00  0.00    +0.000 C 
ATOM     14  C   UNL     1       1.132   2.713  20.070  0.00  0.00    +0.000 C 
ATOM     15  O   UNL     1       0.176   2.197  19.485  0.00  0.00    +0.000 OA
ENDBRANCH   1  14
BRANCH   2  16
ATOM     16  O   UNL     1       1.096   5.518  20.518  0.00  0.00    +0.000 OA
ATOM     17  H   UNL     1       0.668   4.782  21.012  0.00  0.00    +0.000 HD
ENDBRANCH   2  16
BRANCH   3  18
ATOM     18  C   UNL     1       2.842   7.358  19.227  0.00  0.00    +0.000 C 
ATOM     19  O   UNL     1       1.889   7.966  19.699  0.00  0.00    +0.000 OA
ENDBRANCH   3  18
BRANCH   6  20
ATOM     20  O   UNL     1       2.856   1.842  17.985  0.00  0.00    +0.000 OA
ATOM     21  H   UNL     1       3.487   1.631  17.280  0.00  0.00    +0.000 HD
ENDBRANCH   6  20
TORSDOF 4
ENDMDL
MODEL 6
REMARK VINA RESULT:      -6.2      1.699      3.293
REMARK  Name = 
REMARK  7 active torsions:
REMARK  status: ('A' for Active; 'I' for Inactive)
REMARK    1  A    between atoms: C_1  and  C_2
REMARK    2  A    between atoms: C_2  and  C_4
REMARK    3  A    between atoms: C_5  and  O_6
REMARK    4  A    between atoms: C_7  and  C_8
REMARK    5  A    between atoms: C_12  and  O_13
REMARK    6  A    between atoms: C_16  and  C_17
REMARK    7  A    between atoms: C_16  and  C_18
REMARK                            x       y       z     vdW  Elec       q    Type
REMARK                         _______ _______ _______ _____ _____    ______ ____
ROOT
ATOM      1  C   UNL     1       4.976   5.344  17.103  0.00  0.00    +0.000 A 
ATOM      2  C   UNL     1       4.941   3.941  16.985  0.00  0.00    +0.000 A 
ATOM      3  C   UNL     1       4.055   3.195  17.774  0.00  0.00    +0.000 A 
ATOM      4  C   UNL     1       3.197   3.841  18.684  0.00  0.00    +0.000 A 
ATOM      5  C   UNL     1       3.207   5.242  18.801  0.00  0.00    +0.000 A 
ATOM      6  C   UNL     1       4.088   5.985  17.985  0.00  0.00    +0.000 A 
ATOM      7  C   UNL     1       2.309   5.872  19.766  0.00  0.00    +0.000 C 
ATOM      8  C   UNL     1       1.534   5.102  20.526  0.00  0.00    +0.000 C 
ATOM      9  C   UNL     1       1.490   3.604  20.412  0.00  0.00    +0.000 C 
ATOM     10  C   UNL     1       0.079   3.188  19.982  0.00  0.00    +0.000 C 
ATOM     11  C   UNL     1       1.834   2.974  21.766  0.00  0.00    +0.000 C 
ATOM     12  O   UNL     1       2.393   3.036  19.449  0.00  0.00    +0.000 OA
ENDROOT
BRANCH   1  14
ATOM     13  C   UNL     1       7.233   6.629  16.950  0.00  0.00    +0.000 C 
ATOM     14  C   UNL     1       5.979   6.108  16.300  0.00  0.00    +0.000 C 
ATOM     15  O   UNL     1       5.790   6.235  15.087  0.00  0.00    +0.000 OA
ENDBRANCH   1  14
BRANCH   2  16
ATOM     16  O   UNL     1       5.754   3.283  16.101  0.00  0.00    +0.000 OA
ATOM     17  H   UNL     1       6.696   3.388  16.367  0.00  0.00    +0.000 HD
ENDBRANCH   2  16
BRANCH   3  18
ATOM     18  C   UNL     1       3.984   1.713  17.684  0.00  0.00    +0.000 C 
ATOM     19  O   UNL     1       4.120   0.956  18.638  0.00  0.00    +0.000 OA
ENDBRANCH   3  18
BRANCH   6  20
ATOM     20  O   UNL     1       4.080   7.357  18.005  0.00  0.00    +0.000 OA
ATOM     21  H   UNL     1       4.471   7.699  18.823  0.00  0.00    +0.000 HD
ENDBRANCH   6  20
TORSDOF 4
ENDMDL
MODEL 7
REMARK VINA RESULT:      -5.9      1.314      5.041
REMARK  Name = 
REMARK  7 active torsions:
REMARK  status: ('A' for Active; 'I' for Inactive)
REMARK    1  A    between atoms: C_1  and  C_2
REMARK    2  A    between atoms: C_2  and  C_4
REMARK    3  A    between atoms: C_5  and  O_6
REMARK    4  A    between atoms: C_7  and  C_8
REMARK    5  A    between atoms: C_12  and  O_13
REMARK    6  A    between atoms: C_16  and  C_17
REMARK    7  A    between atoms: C_16  and  C_18
REMARK                            x       y       z     vdW  Elec       q    Type
REMARK                         _______ _______ _______ _____ _____    ______ ____
ROOT
ATOM      1  C   UNL     1       3.206   3.796  19.580  0.00  0.00    +0.000 A 
ATOM      2  C   UNL     1       2.662   5.015  19.135  0.00  0.00    +0.000 A 
ATOM      3  C   UNL     1       3.469   5.934  18.451  0.00  0.00    +0.000 A 
ATOM      4  C   UNL     1       4.824   5.642  18.205  0.00  0.00    +0.000 A 
ATOM      5  C   UNL     1       5.379   4.422  18.626  0.00  0.00    +0.000 A 
ATOM      6  C   UNL     1       4.550   3.494  19.294  0.00  0.00    +0.000 A 
ATOM      7  C   UNL     1       6.792   4.163  18.361  0.00  0.00    +0.000 C 
ATOM      8  C   UNL     1       7.519   5.102  17.758  0.00  0.00    +0.000 C 
ATOM      9  C   UNL     1       6.950   6.409  17.281  0.00  0.00    +0.000 C 
ATOM     10  C   UNL     1       7.094   6.478  15.757  0.00  0.00    +0.000 C 
ATOM     11  C   UNL     1       7.710   7.570  17.934  0.00  0.00    +0.000 C 
ATOM     12  O   UNL     1       5.557   6.612  17.569  0.00  0.00    +0.000 OA
ENDROOT
BRANCH   1  14
ATOM     13  C   UNL     1       2.323   2.935  21.871  0.00  0.00    +0.000 C 
ATOM     14  C   UNL     1       2.339   2.866  20.367  0.00  0.00    +0.000 C 
ATOM     15  O   UNL     1       1.590   2.099  19.756  0.00  0.00    +0.000 OA
ENDBRANCH   1  14
BRANCH   2  16
ATOM     16  O   UNL     1       1.344   5.325  19.348  0.00  0.00    +0.000 OA
ATOM     17  H   UNL     1       1.056   4.981  20.224  0.00  0.00    +0.000 HD
ENDBRANCH   2  16
BRANCH   3  18
ATOM     18  C   UNL     1       2.938   7.234  17.964  0.00  0.00    +0.000 C 
ATOM     19  O   UNL     1       2.368   8.056  18.672  0.00  0.00    +0.000 OA
ENDBRANCH   3  18
BRANCH   6  20
ATOM     20  O   UNL     1       5.023   2.258  19.656  0.00  0.00    +0.000 OA
ATOM     21  H   UNL     1       4.296   1.639  19.825  0.00  0.00    +0.000 HD
ENDBRANCH   6  20
TORSDOF 4
ENDMDL
MODEL 8
REMARK VINA RESULT:      -5.8      1.907      3.487
REMARK  Name = 
REMARK  7 active torsions:
REMARK  status: ('A' for Active; 'I' for Inactive)
REMARK    1  A    between atoms: C_1  and  C_2
REMARK    2  A    between atoms: C_2  and  C_4
REMARK    3  A    between atoms: C_5  and  O_6
REMARK    4  A    between atoms: C_7  and  C_8
REMARK    5  A    between atoms: C_12  and  O_13
REMARK    6  A    between atoms: C_16  and  C_17
REMARK    7  A    between atoms: C_16  and  C_18
REMARK                            x       y       z     vdW  Elec       q    Type
REMARK                         _______ _______ _______ _____ _____    ______ ____
ROOT
ATOM      1  C   UNL     1       5.384   4.903  16.686  0.00  0.00    +0.000 A 
ATOM      2  C   UNL     1       5.086   3.528  16.731  0.00  0.00    +0.000 A 
ATOM      3  C   UNL     1       4.143   3.047  17.649  0.00  0.00    +0.000 A 
ATOM      4  C   UNL     1       3.491   3.932  18.528  0.00  0.00    +0.000 A 
ATOM      5  C   UNL     1       3.765   5.310  18.485  0.00  0.00    +0.000 A 
ATOM      6  C   UNL     1       4.699   5.787  17.540  0.00  0.00    +0.000 A 
ATOM      7  C   UNL     1       3.075   6.193  19.422  0.00  0.00    +0.000 C 
ATOM      8  C   UNL     1       2.234   5.664  20.309  0.00  0.00    +0.000 C 
ATOM      9  C   UNL     1       1.909   4.198  20.369  0.00  0.00    +0.000 C 
ATOM     10  C   UNL     1       0.417   4.016  20.072  0.00  0.00    +0.000 C 
ATOM     11  C   UNL     1       2.238   3.655  21.764  0.00  0.00    +0.000 C 
ATOM     12  O   UNL     1       2.616   3.375  19.426  0.00  0.00    +0.000 OA
ENDROOT
BRANCH   1  14
ATOM     13  C   UNL     1       6.337   5.082  14.272  0.00  0.00    +0.000 C 
ATOM     14  C   UNL     1       6.443   5.378  15.744  0.00  0.00    +0.000 C 
ATOM     15  O   UNL     1       7.358   6.077  16.190  0.00  0.00    +0.000 OA
ENDBRANCH   1  14
BRANCH   2  16
ATOM     16  O   UNL     1       5.693   2.641  15.881  0.00  0.00    +0.000 OA
ATOM     17  H   UNL     1       6.252   2.014  16.394  0.00  0.00    +0.000 HD
ENDBRANCH   2  16
BRANCH   3  18
ATOM     18  C   UNL     1       3.797   1.603  17.733  0.00  0.00    +0.000 C 
ATOM     19  O   UNL     1       4.090   0.876  18.674  0.00  0.00    +0.000 OA
ENDBRANCH   3  18
BRANCH   6  20
ATOM     20  O   UNL     1       4.943   7.131  17.404  0.00  0.00    +0.000 OA
ATOM     21  H   UNL     1       5.570   7.443  18.074  0.00  0.00    +0.000 HD
ENDBRANCH   6  20
TORSDOF 4
ENDMDL
MODEL 9
REMARK VINA RESULT:      -5.8      2.185      3.377
REMARK  Name = 
REMARK  7 active torsions:
REMARK  status: ('A' for Active; 'I' for Inactive)
REMARK    1  A    between atoms: C_1  and  C_2
REMARK    2  A    between atoms: C_2  and  C_4
REMARK    3  A    between atoms: C_5  and  O_6
REMARK    4  A    between atoms: C_7  and  C_8
REMARK    5  A    between atoms: C_12  and  O_13
REMARK    6  A    between atoms: C_16  and  C_17
REMARK    7  A    between atoms: C_16  and  C_18
REMARK                            x       y       z     vdW  Elec       q    Type
REMARK                         _______ _______ _______ _____ _____    ______ ____
ROOT
ATOM      1  C   UNL     1       6.013   4.656  16.048  0.00  0.00    +0.000 A 
ATOM      2  C   UNL     1       6.661   5.084  17.223  0.00  0.00    +0.000 A 
ATOM      3  C   UNL     1       5.970   5.088  18.441  0.00  0.00    +0.000 A 
ATOM      4  C   UNL     1       4.628   4.665  18.498  0.00  0.00    +0.000 A 
ATOM      5  C   UNL     1       3.972   4.218  17.338  0.00  0.00    +0.000 A 
ATOM      6  C   UNL     1       4.685   4.197  16.120  0.00  0.00    +0.000 A 
ATOM      7  C   UNL     1       2.576   3.799  17.438  0.00  0.00    +0.000 C 
ATOM      8  C   UNL     1       1.959   3.883  18.615  0.00  0.00    +0.000 C 
ATOM      9  C   UNL     1       2.639   4.340  19.875  0.00  0.00    +0.000 C 
ATOM     10  C   UNL     1       2.635   3.183  20.880  0.00  0.00    +0.000 C 
ATOM     11  C   UNL     1       1.888   5.544  20.457  0.00  0.00    +0.000 C 
ATOM     12  O   UNL     1       4.010   4.742  19.720  0.00  0.00    +0.000 OA
ENDROOT
BRANCH   1  14
ATOM     13  C   UNL     1       6.411   3.783  13.630  0.00  0.00    +0.000 C 
ATOM     14  C   UNL     1       6.754   4.727  14.752  0.00  0.00    +0.000 C 
ATOM     15  O   UNL     1       7.593   5.619  14.600  0.00  0.00    +0.000 OA
ENDBRANCH   1  14
BRANCH   2  16
ATOM     16  O   UNL     1       7.970   5.490  17.204  0.00  0.00    +0.000 OA
ATOM     17  H   UNL     1       8.036   6.424  17.507  0.00  0.00    +0.000 HD
ENDBRANCH   2  16
BRANCH   3  18
ATOM     18  C   UNL     1       6.613   5.532  19.706  0.00  0.00    +0.000 C 
ATOM     19  O   UNL     1       7.718   5.164  20.085  0.00  0.00    +0.000 OA
ENDBRANCH   3  18
BRANCH   6  20
ATOM     20  O   UNL     1       4.115   3.696  14.976  0.00  0.00    +0.000 OA
ATOM     21  H   UNL     1       3.709   2.831  15.136  0.00  0.00    +0.000 HD
ENDBRANCH   6  20
TORSDOF 4
ENDMDL
