MODEL 1
REMARK VINA RESULT:      -6.2      0.000      0.000
REMARK  Name = 
REMARK  10 active torsions:
REMARK  status: ('A' for Active; 'I' for Inactive)
REMARK    1  A    between atoms: C_1  and  C_2
REMARK    2  A    between atoms: C_2  and  O_3
REMARK    3  A    between atoms: O_3  and  C_4
REMARK    4  A    between atoms: C_4  and  C_6
REMARK    5  A    between atoms: C_6  and  C_7
REMARK    6  A    between atoms: C_6  and  C_9
REMARK    7  A    between atoms: C_9  and  C_10
REMARK    8  A    between atoms: C_9  and  C_18
REMARK    9  A    between atoms: C_15  and  S_16
REMARK   10  A    between atoms: S_16  and  C_17
REMARK                            x       y       z     vdW  Elec       q    Type
REMARK                         _______ _______ _______ _____ _____    ______ ____
ROOT
ATOM      1  C   UNL     1      -0.565  12.004  19.786  0.00  0.00    +0.000 C 
ENDROOT
BRANCH   1   2
ATOM      2  C   UNL     1      -2.075  12.098  19.512  0.00  0.00    +0.000 A 
ATOM      3  C   UNL     1      -2.871  12.633  20.580  0.00  0.00    +0.000 A 
ATOM      4  C   UNL     1      -4.232  12.722  20.470  0.00  0.00    +0.000 A 
ATOM      5  C   UNL     1      -4.812  12.361  19.274  0.00  0.00    +0.000 A 
ATOM      6  C   UNL     1      -4.053  11.838  18.198  0.00  0.00    +0.000 A 
ATOM      7  C   UNL     1      -4.721  11.377  17.085  0.00  0.00    +0.000 A 
ATOM      8  C   UNL     1      -4.066  10.692  16.029  0.00  0.00    +0.000 A 
ATOM      9  C   UNL     1      -2.742  10.782  15.662  0.00  0.00    +0.000 A 
ATOM     10  C   UNL     1      -2.184  10.992  16.907  0.00  0.00    +0.000 A 
ATOM     11  C   UNL     1      -2.684  11.655  18.213  0.00  0.00    +0.000 A 
ENDBRANCH   1   2
BRANCH   1  12
ATOM     12  C   UNL     1      -0.093  10.770  20.511  0.00  0.00    +0.000 A 
ATOM     13  C   UNL     1      -0.438  10.670  21.887  0.00  0.00    +0.000 A 
ATOM     14  C   UNL     1       0.089   9.676  22.689  0.00  0.00    +0.000 A 
ATOM     15  C   UNL     1       0.890   8.718  22.087  0.00  0.00    +0.000 A 
ATOM     16  C   UNL     1       1.231   8.791  20.725  0.00  0.00    +0.000 A 
ATOM     17  C   UNL     1       0.769   9.807  19.901  0.00  0.00    +0.000 A 
BRANCH  17  18
ATOM     18  S   UNL     1       1.273   9.755  18.146  0.00  0.00    +0.000 S 
ATOM     19  C   UNL     1       2.339   8.251  17.931  0.00  0.00    +0.000 C 
ENDBRANCH  17  18
ENDBRANCH   1  12
BRANCH   1  20
ATOM     20  C   UNL     1       0.096  13.266  20.360  0.00  0.00    +0.000 C 
BRANCH  20  21
ATOM     21  C   UNL     1       1.625  13.203  20.396  0.00  0.00    +0.000 C 
ATOM     22  O   UNL     1       2.291  12.948  21.396  0.00  0.00    +0.000 OA
BRANCH  21  23
ATOM     23  O   UNL     1       2.194  13.555  19.206  0.00  0.00    +0.000 OA
BRANCH  23  25
ATOM     24  C   UNL     1       4.159  14.428  18.081  0.00  0.00    +0.000 C 
ATOM     25  C   UNL     1       3.270  14.507  19.317  0.00  0.00    +0.000 C 
ENDBRANCH  23  25
ENDBRANCH  21  23
ENDBRANCH  20  21
BRANCH  20  26
ATOM     26  C   UNL     1      -0.365  14.499  19.614  0.00  0.00    +0.000 C 
ATOM     27  N   UNL     1      -0.704  15.458  19.038  0.00  0.00    +0.000 NA
ENDBRANCH  20  26
ENDBRANCH   1  20
TORSDOF 8
ENDMDL
MODEL 2
REMARK VINA RESULT:      -6.2      2.212      5.349
REMARK  Name = 
REMARK  10 active torsions:
REMARK  status: ('A' for Active; 'I' for Inactive)
REMARK    1  A    between atoms: C_1  and  C_2
REMARK    2  A    between atoms: C_2  and  O_3
REMARK    3  A    between atoms: O_3  and  C_4
REMARK    4  A    between atoms: C_4  and  C_6
REMARK    5  A    between atoms: C_6  and  C_7
REMARK    6  A    between atoms: C_6  and  C_9
REMARK    7  A    between atoms: C_9  and  C_10
REMARK    8  A    between atoms: C_9  and  C_18
REMARK    9  A    between atoms: C_15  and  S_16
REMARK   10  A    between atoms: S_16  and  C_17
REMARK                            x       y       z     vdW  Elec       q    Type
REMARK                         _______ _______ _______ _____ _____    ______ ____
ROOT
ATOM      1  C   UNL     1      -1.118  12.105  20.170  0.00  0.00    +0.000 C 
ENDROOT
BRANCH   1   2
ATOM      2  C   UNL     1      -0.452  10.875  20.807  0.00  0.00    +0.000 A 
ATOM      3  C   UNL     1      -0.695  10.690  22.209  0.00  0.00    +0.000 A 
ATOM      4  C   UNL     1      -0.118   9.656  22.895  0.00  0.00    +0.000 A 
ATOM      5  C   UNL     1       0.638   8.749  22.187  0.00  0.00    +0.000 A 
ATOM      6  C   UNL     1       0.889   8.898  20.802  0.00  0.00    +0.000 A 
ATOM      7  C   UNL     1       1.763   8.023  20.193  0.00  0.00    +0.000 A 
ATOM      8  C   UNL     1       2.201   8.188  18.854  0.00  0.00    +0.000 A 
ATOM      9  C   UNL     1       1.552   8.843  17.831  0.00  0.00    +0.000 A 
ATOM     10  C   UNL     1       0.931   9.834  18.566  0.00  0.00    +0.000 A 
ATOM     11  C   UNL     1       0.404   9.926  20.018  0.00  0.00    +0.000 A 
ENDBRANCH   1   2
BRANCH   1  12
ATOM     12  C   UNL     1      -2.227  11.831  19.187  0.00  0.00    +0.000 A 
ATOM     13  C   UNL     1      -1.836  11.377  17.897  0.00  0.00    +0.000 A 
ATOM     14  C   UNL     1      -2.751  11.265  16.867  0.00  0.00    +0.000 A 
ATOM     15  C   UNL     1      -4.083  11.516  17.157  0.00  0.00    +0.000 A 
ATOM     16  C   UNL     1      -4.492  11.952  18.430  0.00  0.00    +0.000 A 
ATOM     17  C   UNL     1      -3.594  12.132  19.473  0.00  0.00    +0.000 A 
BRANCH  17  18
ATOM     18  S   UNL     1      -4.276  12.675  21.078  0.00  0.00    +0.000 S 
ATOM     19  C   UNL     1      -6.082  13.017  20.815  0.00  0.00    +0.000 C 
ENDBRANCH  17  18
ENDBRANCH   1  12
BRANCH   1  20
ATOM     20  C   UNL     1      -0.166  13.188  19.637  0.00  0.00    +0.000 C 
BRANCH  20  21
ATOM     21  C   UNL     1      -0.750  14.602  19.681  0.00  0.00    +0.000 C 
ATOM     22  O   UNL     1      -1.548  15.003  20.523  0.00  0.00    +0.000 OA
BRANCH  21  23
ATOM     23  O   UNL     1      -0.361  15.364  18.618  0.00  0.00    +0.000 OA
BRANCH  23  25
ATOM     24  C   UNL     1      -0.237  17.525  17.521  0.00  0.00    +0.000 C 
ATOM     25  C   UNL     1      -0.451  16.786  18.837  0.00  0.00    +0.000 C 
ENDBRANCH  23  25
ENDBRANCH  21  23
ENDBRANCH  20  21
BRANCH  20  26
ATOM     26  C   UNL     1       1.160  13.139  20.364  0.00  0.00    +0.000 C 
ATOM     27  N   UNL     1       2.188  13.120  20.919  0.00  0.00    +0.000 NA
ENDBRANCH  20  26
ENDBRANCH   1  20
TORSDOF 8
ENDMDL
MODEL 3
REMARK VINA RESULT:      -6.2      0.813      1.010
REMARK  Name = 
REMARK  10 active torsions:
REMARK  status: ('A' for Active; 'I' for Inactive)
REMARK    1  A    between atoms: C_1  and  C_2
REMARK    2  A    between atoms: C_2  and  O_3
REMARK    3  A    between atoms: O_3  and  C_4
REMARK    4  A    between atoms: C_4  and  C_6
REMARK    5  A    between atoms: C_6  and  C_7
REMARK    6  A    between atoms: C_6  and  C_9
REMARK    7  A    between atoms: C_9  and  C_10
REMARK    8  A    between atoms: C_9  and  C_18
REMARK    9  A    between atoms: C_15  and  S_16
REMARK   10  A    between atoms: S_16  and  C_17
REMARK                            x       y       z     vdW  Elec       q    Type
REMARK                         _______ _______ _______ _____ _____    ______ ____
ROOT
ATOM      1  C   UNL     1      -0.429  11.852  19.569  0.00  0.00    +0.000 C 
ENDROOT
BRANCH   1   2
ATOM      2  C   UNL     1      -1.942  11.994  19.333  0.00  0.00    +0.000 A 
ATOM      3  C   UNL     1      -2.692  12.562  20.417  0.00  0.00    +0.000 A 
ATOM      4  C   UNL     1      -4.052  12.696  20.342  0.00  0.00    +0.000 A 
ATOM      5  C   UNL     1      -4.674  12.347  19.164  0.00  0.00    +0.000 A 
ATOM      6  C   UNL     1      -3.961  11.792  18.073  0.00  0.00    +0.000 A 
ATOM      7  C   UNL     1      -4.673  11.346  16.981  0.00  0.00    +0.000 A 
ATOM      8  C   UNL     1      -4.068  10.634  15.913  0.00  0.00    +0.000 A 
ATOM      9  C   UNL     1      -2.752  10.678  15.511  0.00  0.00    +0.000 A 
ATOM     10  C   UNL     1      -2.155  10.877  16.740  0.00  0.00    +0.000 A 
ATOM     11  C   UNL     1      -2.600  11.564  18.053  0.00  0.00    +0.000 A 
ENDBRANCH   1   2
BRANCH   1  12
ATOM     12  C   UNL     1       0.013  10.650  20.362  0.00  0.00    +0.000 A 
ATOM     13  C   UNL     1      -0.330  10.636  21.742  0.00  0.00    +0.000 A 
ATOM     14  C   UNL     1       0.173   9.677  22.598  0.00  0.00    +0.000 A 
ATOM     15  C   UNL     1       0.948   8.666  22.051  0.00  0.00    +0.000 A 
ATOM     16  C   UNL     1       1.287   8.653  20.686  0.00  0.00    +0.000 A 
ATOM     17  C   UNL     1       0.849   9.632  19.807  0.00  0.00    +0.000 A 
BRANCH  17  18
ATOM     18  S   UNL     1       1.346   9.468  18.057  0.00  0.00    +0.000 S 
ATOM     19  C   UNL     1       2.448   7.978  17.942  0.00  0.00    +0.000 C 
ENDBRANCH  17  18
ENDBRANCH   1  12
BRANCH   1  20
ATOM     20  C   UNL     1       0.303  13.120  20.036  0.00  0.00    +0.000 C 
BRANCH  20  21
ATOM     21  C   UNL     1       1.828  13.016  19.963  0.00  0.00    +0.000 C 
ATOM     22  O   UNL     1       2.465  12.767  18.944  0.00  0.00    +0.000 OA
BRANCH  21  23
ATOM     23  O   UNL     1       2.421  13.139  21.186  0.00  0.00    +0.000 OA
BRANCH  23  25
ATOM     24  C   UNL     1       4.328  14.632  21.333  0.00  0.00    +0.000 C 
ATOM     25  C   UNL     1       2.824  14.482  21.523  0.00  0.00    +0.000 C 
ENDBRANCH  23  25
ENDBRANCH  21  23
ENDBRANCH  20  21
BRANCH  20  26
ATOM     26  C   UNL     1      -0.183  14.331  19.270  0.00  0.00    +0.000 C 
ATOM     27  N   UNL     1      -0.541  15.269  18.672  0.00  0.00    +0.000 NA
ENDBRANCH  20  26
ENDBRANCH   1  20
TORSDOF 8
ENDMDL
MODEL 4
REMARK VINA RESULT:      -6.1      5.859      9.141
REMARK  Name = 
REMARK  10 active torsions:
REMARK  status: ('A' for Active; 'I' for Inactive)
REMARK    1  A    between atoms: C_1  and  C_2
REMARK    2  A    between atoms: C_2  and  O_3
REMARK    3  A    between atoms: O_3  and  C_4
REMARK    4  A    between atoms: C_4  and  C_6
REMARK    5  A    between atoms: C_6  and  C_7
REMARK    6  A    between atoms: C_6  and  C_9
REMARK    7  A    between atoms: C_9  and  C_10
REMARK    8  A    between atoms: C_9  and  C_18
REMARK    9  A    between atoms: C_15  and  S_16
REMARK   10  A    between atoms: S_16  and  C_17
REMARK                            x       y       z     vdW  Elec       q    Type
REMARK                         _______ _______ _______ _____ _____    ______ ____
ROOT
ATOM      1  C   UNL     1       4.054   5.018  18.764  0.00  0.00    +0.000 C 
ENDROOT
BRANCH   1   2
ATOM      2  C   UNL     1       3.404   6.375  18.448  0.00  0.00    +0.000 A 
ATOM      3  C   UNL     1       3.789   6.977  17.204  0.00  0.00    +0.000 A 
ATOM      4  C   UNL     1       3.312   8.205  16.836  0.00  0.00    +0.000 A 
ATOM      5  C   UNL     1       2.386   8.814  17.655  0.00  0.00    +0.000 A 
ATOM      6  C   UNL     1       1.979   8.241  18.884  0.00  0.00    +0.000 A 
ATOM      7  C   UNL     1       1.151   8.972  19.708  0.00  0.00    +0.000 A 
ATOM      8  C   UNL     1       0.819   8.555  21.023  0.00  0.00    +0.000 A 
ATOM      9  C   UNL     1       0.805   7.272  21.521  0.00  0.00    +0.000 A 
ATOM     10  C   UNL     1       1.845   6.741  20.784  0.00  0.00    +0.000 A 
ATOM     11  C   UNL     1       2.430   7.035  19.382  0.00  0.00    +0.000 A 
ENDBRANCH   1   2
BRANCH   1  12
ATOM     12  C   UNL     1       5.549   4.936  18.588  0.00  0.00    +0.000 A 
ATOM     13  C   UNL     1       6.343   5.413  19.666  0.00  0.00    +0.000 A 
ATOM     14  C   UNL     1       7.713   5.549  19.544  0.00  0.00    +0.000 A 
ATOM     15  C   UNL     1       8.302   5.113  18.368  0.00  0.00    +0.000 A 
ATOM     16  C   UNL     1       7.536   4.624  17.295  0.00  0.00    +0.000 A 
ATOM     17  C   UNL     1       6.153   4.527  17.360  0.00  0.00    +0.000 A 
BRANCH  17  18
ATOM     18  S   UNL     1       5.294   3.846  15.898  0.00  0.00    +0.000 S 
ATOM     19  C   UNL     1       6.408   4.115  14.438  0.00  0.00    +0.000 C 
ENDBRANCH  17  18
ENDBRANCH   1  12
BRANCH   1  20
ATOM     20  C   UNL     1       3.362   3.783  18.168  0.00  0.00    +0.000 C 
BRANCH  20  21
ATOM     21  C   UNL     1       3.328   2.576  19.109  0.00  0.00    +0.000 C 
ATOM     22  O   UNL     1       3.086   1.424  18.761  0.00  0.00    +0.000 OA
BRANCH  21  23
ATOM     23  O   UNL     1       3.507   2.925  20.416  0.00  0.00    +0.000 OA
BRANCH  23  25
ATOM     24  C   UNL     1       1.188   3.178  21.087  0.00  0.00    +0.000 C 
ATOM     25  C   UNL     1       2.494   2.425  21.312  0.00  0.00    +0.000 C 
ENDBRANCH  23  25
ENDBRANCH  21  23
ENDBRANCH  20  21
BRANCH  20  26
ATOM     26  C   UNL     1       1.966   4.126  17.697  0.00  0.00    +0.000 C 
ATOM     27  N   UNL     1       0.894   4.397  17.317  0.00  0.00    +0.000 NA
ENDBRANCH  20  26
ENDBRANCH   1  20
TORSDOF 8
ENDMDL
MODEL 5
REMARK VINA RESULT:      -6.0      6.235      9.494
REMARK  Name = 
REMARK  10 active torsions:
REMARK  status: ('A' for Active; 'I' for Inactive)
REMARK    1  A    between atoms: C_1  and  C_2
REMARK    2  A    between atoms: C_2  and  O_3
REMARK    3  A    between atoms: O_3  and  C_4
REMARK    4  A    between atoms: C_4  and  C_6
REMARK    5  A    between atoms: C_6  and  C_7
REMARK    6  A    between atoms: C_6  and  C_9
REMARK    7  A    between atoms: C_9  and  C_10
REMARK    8  A    between atoms: C_9  and  C_18
REMARK    9  A    between atoms: C_15  and  S_16
REMARK   10  A    between atoms: S_16  and  C_17
REMARK                            x       y       z     vdW  Elec       q    Type
REMARK                         _______ _______ _______ _____ _____    ______ ____
ROOT
ATOM      1  C   UNL     1       4.497   5.070  17.753  0.00  0.00    +0.000 C 
ENDROOT
BRANCH   1   2
ATOM      2  C   UNL     1       3.684   6.368  17.890  0.00  0.00    +0.000 A 
ATOM      3  C   UNL     1       3.846   7.320  16.828  0.00  0.00    +0.000 A 
ATOM      4  C   UNL     1       3.210   8.531  16.862  0.00  0.00    +0.000 A 
ATOM      5  C   UNL     1       2.343   8.780  17.903  0.00  0.00    +0.000 A 
ATOM      6  C   UNL     1       2.154   7.857  18.961  0.00  0.00    +0.000 A 
ATOM      7  C   UNL     1       1.373   8.234  20.031  0.00  0.00    +0.000 A 
ATOM      8  C   UNL     1       1.254   7.447  21.206  0.00  0.00    +0.000 A 
ATOM      9  C   UNL     1       1.428   6.087  21.329  0.00  0.00    +0.000 A 
ATOM     10  C   UNL     1       2.411   5.906  20.376  0.00  0.00    +0.000 A 
ATOM     11  C   UNL     1       2.779   6.630  19.059  0.00  0.00    +0.000 A 
ENDBRANCH   1   2
BRANCH   1  12
ATOM     12  C   UNL     1       5.456   5.000  16.593  0.00  0.00    +0.000 A 
ATOM     13  C   UNL     1       4.986   4.352  15.418  0.00  0.00    +0.000 A 
ATOM     14  C   UNL     1       5.834   4.075  14.362  0.00  0.00    +0.000 A 
ATOM     15  C   UNL     1       7.138   4.538  14.443  0.00  0.00    +0.000 A 
ATOM     16  C   UNL     1       7.618   5.194  15.590  0.00  0.00    +0.000 A 
ATOM     17  C   UNL     1       6.812   5.438  16.693  0.00  0.00    +0.000 A 
BRANCH  17  18
ATOM     18  S   UNL     1       7.567   6.327  18.100  0.00  0.00    +0.000 S 
ATOM     19  C   UNL     1       7.714   8.109  17.602  0.00  0.00    +0.000 C 
ENDBRANCH  17  18
ENDBRANCH   1  12
BRANCH   1  20
ATOM     20  C   UNL     1       3.705   3.761  17.892  0.00  0.00    +0.000 C 
BRANCH  20  21
ATOM     21  C   UNL     1       3.908   3.054  19.234  0.00  0.00    +0.000 C 
ATOM     22  O   UNL     1       4.985   2.949  19.814  0.00  0.00    +0.000 OA
BRANCH  21  23
ATOM     23  O   UNL     1       2.769   2.457  19.691  0.00  0.00    +0.000 OA
BRANCH  23  25
ATOM     24  C   UNL     1       1.289   2.604  21.609  0.00  0.00    +0.000 C 
ATOM     25  C   UNL     1       2.704   2.311  21.124  0.00  0.00    +0.000 C 
ENDBRANCH  23  25
ENDBRANCH  21  23
ENDBRANCH  20  21
BRANCH  20  26
ATOM     26  C   UNL     1       2.233   3.995  17.634  0.00  0.00    +0.000 C 
ATOM     27  N   UNL     1       1.092   4.163  17.448  0.00  0.00    +0.000 NA
ENDBRANCH  20  26
ENDBRANCH   1  20
TORSDOF 8
ENDMDL
MODEL 6
REMARK VINA RESULT:      -5.9      1.139      2.044
REMARK  Name = 
REMARK  10 active torsions:
REMARK  status: ('A' for Active; 'I' for Inactive)
REMARK    1  A    between atoms: C_1  and  C_2
REMARK    2  A    between atoms: C_2  and  O_3
REMARK    3  A    between atoms: O_3  and  C_4
REMARK    4  A    between atoms: C_4  and  C_6
REMARK    5  A    between atoms: C_6  and  C_7
REMARK    6  A    between atoms: C_6  and  C_9
REMARK    7  A    between atoms: C_9  and  C_10
REMARK    8  A    between atoms: C_9  and  C_18
REMARK    9  A    between atoms: C_15  and  S_16
REMARK   10  A    between atoms: S_16  and  C_17
REMARK                            x       y       z     vdW  Elec       q    Type
REMARK                         _______ _______ _______ _____ _____    ______ ____
ROOT
ATOM      1  C   UNL     1      -0.198  12.149  18.969  0.00  0.00    +0.000 C 
ENDROOT
BRANCH   1   2
ATOM      2  C   UNL     1      -1.734  12.095  18.920  0.00  0.00    +0.000 A 
ATOM      3  C   UNL     1      -2.413  12.614  20.074  0.00  0.00    +0.000 A 
ATOM      4  C   UNL     1      -3.778  12.577  20.165  0.00  0.00    +0.000 A 
ATOM      5  C   UNL     1      -4.489  12.103  19.085  0.00  0.00    +0.000 A 
ATOM      6  C   UNL     1      -3.848  11.593  17.929  0.00  0.00    +0.000 A 
ATOM      7  C   UNL     1      -4.625  11.017  16.947  0.00  0.00    +0.000 A 
ATOM      8  C   UNL     1      -4.068  10.338  15.833  0.00  0.00    +0.000 A 
ATOM      9  C   UNL     1      -2.826  10.525  15.268  0.00  0.00    +0.000 A 
ATOM     10  C   UNL     1      -2.115  10.849  16.406  0.00  0.00    +0.000 A 
ATOM     11  C   UNL     1      -2.481  11.533  17.745  0.00  0.00    +0.000 A 
ENDBRANCH   1   2
BRANCH   1  12
ATOM     12  C   UNL     1       0.508  10.848  19.250  0.00  0.00    +0.000 A 
ATOM     13  C   UNL     1       1.167  10.231  18.152  0.00  0.00    +0.000 A 
ATOM     14  C   UNL     1       1.692   8.957  18.252  0.00  0.00    +0.000 A 
ATOM     15  C   UNL     1       1.643   8.335  19.490  0.00  0.00    +0.000 A 
ATOM     16  C   UNL     1       1.010   8.934  20.593  0.00  0.00    +0.000 A 
ATOM     17  C   UNL     1       0.420  10.188  20.514  0.00  0.00    +0.000 A 
BRANCH  17  18
ATOM     18  S   UNL     1      -0.341  10.851  22.037  0.00  0.00    +0.000 S 
ATOM     19  C   UNL     1      -0.171   9.543  23.344  0.00  0.00    +0.000 C 
ENDBRANCH  17  18
ENDBRANCH   1  12
BRANCH   1  20
ATOM     20  C   UNL     1       0.411  13.295  19.791  0.00  0.00    +0.000 C 
BRANCH  20  21
ATOM     21  C   UNL     1       1.928  13.193  19.967  0.00  0.00    +0.000 C 
ATOM     22  O   UNL     1       2.497  13.002  21.038  0.00  0.00    +0.000 OA
BRANCH  21  23
ATOM     23  O   UNL     1       2.608  13.433  18.808  0.00  0.00    +0.000 OA
BRANCH  23  25
ATOM     24  C   UNL     1       3.647  15.304  17.665  0.00  0.00    +0.000 C 
ATOM     25  C   UNL     1       3.640  14.434  18.917  0.00  0.00    +0.000 C 
ENDBRANCH  23  25
ENDBRANCH  21  23
ENDBRANCH  20  21
BRANCH  20  26
ATOM     26  C   UNL     1       0.035  14.637  19.202  0.00  0.00    +0.000 C 
ATOM     27  N   UNL     1      -0.257  15.665  18.729  0.00  0.00    +0.000 NA
ENDBRANCH  20  26
ENDBRANCH   1  20
TORSDOF 8
ENDMDL
MODEL 7
REMARK VINA RESULT:      -5.9      0.735      2.374
REMARK  Name = 
REMARK  10 active torsions:
REMARK  status: ('A' for Active; 'I' for Inactive)
REMARK    1  A    between atoms: C_1  and  C_2
REMARK    2  A    between atoms: C_2  and  O_3
REMARK    3  A    between atoms: O_3  and  C_4
REMARK    4  A    between atoms: C_4  and  C_6
REMARK    5  A    between atoms: C_6  and  C_7
REMARK    6  A    between atoms: C_6  and  C_9
REMARK    7  A    between atoms: C_9  and  C_10
REMARK    8  A    between atoms: C_9  and  C_18
REMARK    9  A    between atoms: C_15  and  S_16
REMARK   10  A    between atoms: S_16  and  C_17
REMARK                            x       y       z     vdW  Elec       q    Type
REMARK                         _______ _______ _______ _____ _____    ______ ____
ROOT
ATOM      1  C   UNL     1      -0.306  11.739  19.429  0.00  0.00    +0.000 C 
ENDROOT
BRANCH   1   2
ATOM      2  C   UNL     1      -1.762  11.737  18.936  0.00  0.00    +0.000 A 
ATOM      3  C   UNL     1      -1.962  11.311  17.580  0.00  0.00    +0.000 A 
ATOM      4  C   UNL     1      -3.208  11.312  17.017  0.00  0.00    +0.000 A 
ATOM      5  C   UNL     1      -4.280  11.655  17.811  0.00  0.00    +0.000 A 
ATOM      6  C   UNL     1      -4.117  12.071  19.154  0.00  0.00    +0.000 A 
ATOM      7  C   UNL     1      -5.223  12.523  19.842  0.00  0.00    +0.000 A 
ATOM      8  C   UNL     1      -5.134  13.109  21.131  0.00  0.00    +0.000 A 
ATOM      9  C   UNL     1      -4.158  12.909  22.080  0.00  0.00    +0.000 A 
ATOM     10  C   UNL     1      -3.075  12.721  21.244  0.00  0.00    +0.000 A 
ATOM     11  C   UNL     1      -2.907  12.158  19.813  0.00  0.00    +0.000 A 
ENDBRANCH   1   2
BRANCH   1  12
ATOM     12  C   UNL     1       0.128  10.544  20.239  0.00  0.00    +0.000 A 
ATOM     13  C   UNL     1      -0.266  10.526  21.605  0.00  0.00    +0.000 A 
ATOM     14  C   UNL     1       0.222   9.574  22.481  0.00  0.00    +0.000 A 
ATOM     15  C   UNL     1       1.032   8.576  21.963  0.00  0.00    +0.000 A 
ATOM     16  C   UNL     1       1.421   8.568  20.611  0.00  0.00    +0.000 A 
ATOM     17  C   UNL     1       0.999   9.540  19.716  0.00  0.00    +0.000 A 
BRANCH  17  18
ATOM     18  S   UNL     1       1.562   9.383  17.985  0.00  0.00    +0.000 S 
ATOM     19  C   UNL     1       2.769   7.974  17.931  0.00  0.00    +0.000 C 
ENDBRANCH  17  18
ENDBRANCH   1  12
BRANCH   1  20
ATOM     20  C   UNL     1       0.188  13.046  20.069  0.00  0.00    +0.000 C 
BRANCH  20  21
ATOM     21  C   UNL     1       1.696  13.077  20.327  0.00  0.00    +0.000 C 
ATOM     22  O   UNL     1       2.216  13.077  21.440  0.00  0.00    +0.000 OA
BRANCH  21  23
ATOM     23  O   UNL     1       2.424  13.202  19.179  0.00  0.00    +0.000 OA
BRANCH  23  25
ATOM     24  C   UNL     1       3.087  15.531  19.028  0.00  0.00    +0.000 C 
ATOM     25  C   UNL     1       3.547  14.100  19.278  0.00  0.00    +0.000 C 
ENDBRANCH  23  25
ENDBRANCH  21  23
ENDBRANCH  20  21
BRANCH  20  26
ATOM     26  C   UNL     1      -0.232  14.240  19.241  0.00  0.00    +0.000 C 
ATOM     27  N   UNL     1      -0.575  15.155  18.601  0.00  0.00    +0.000 NA
ENDBRANCH  20  26
ENDBRANCH   1  20
TORSDOF 8
ENDMDL
MODEL 8
REMARK VINA RESULT:      -5.9      1.406      2.190
REMARK  Name = 
REMARK  10 active torsions:
REMARK  status: ('A' for Active; 'I' for Inactive)
REMARK    1  A    between atoms: C_1  and  C_2
REMARK    2  A    between atoms: C_2  and  O_3
REMARK    3  A    between atoms: O_3  and  C_4
REMARK    4  A    between atoms: C_4  and  C_6
REMARK    5  A    between atoms: C_6  and  C_7
REMARK    6  A    between atoms: C_6  and  C_9
REMARK    7  A    between atoms: C_9  and  C_10
REMARK    8  A    between atoms: C_9  and  C_18
REMARK    9  A    between atoms: C_15  and  S_16
REMARK   10  A    between atoms: S_16  and  C_17
REMARK                            x       y       z     vdW  Elec       q    Type
REMARK                         _______ _______ _______ _____ _____    ______ ____
ROOT
ATOM      1  C   UNL     1      -1.134  12.344  20.071  0.00  0.00    +0.000 C 
ENDROOT
BRANCH   1   2
ATOM      2  C   UNL     1      -2.583  12.291  19.557  0.00  0.00    +0.000 A 
ATOM      3  C   UNL     1      -3.572  12.873  20.418  0.00  0.00    +0.000 A 
ATOM      4  C   UNL     1      -4.900  12.844  20.088  0.00  0.00    +0.000 A 
ATOM      5  C   UNL     1      -5.254  12.314  18.867  0.00  0.00    +0.000 A 
ATOM      6  C   UNL     1      -4.300  11.741  17.992  0.00  0.00    +0.000 A 
ATOM      7  C   UNL     1      -4.749  11.113  16.850  0.00  0.00    +0.000 A 
ATOM      8  C   UNL     1      -3.891  10.373  15.997  0.00  0.00    +0.000 A 
ATOM      9  C   UNL     1      -2.533  10.526  15.832  0.00  0.00    +0.000 A 
ATOM     10  C   UNL     1      -2.198  10.910  17.115  0.00  0.00    +0.000 A 
ATOM     11  C   UNL     1      -2.944  11.667  18.240  0.00  0.00    +0.000 A 
ENDBRANCH   1   2
BRANCH   1  12
ATOM     12  C   UNL     1      -0.703  11.216  20.973  0.00  0.00    +0.000 A 
ATOM     13  C   UNL     1      -1.256  11.202  22.283  0.00  0.00    +0.000 A 
ATOM     14  C   UNL     1      -0.799  10.323  23.246  0.00  0.00    +0.000 A 
ATOM     15  C   UNL     1       0.149   9.385  22.867  0.00  0.00    +0.000 A 
ATOM     16  C   UNL     1       0.697   9.372  21.571  0.00  0.00    +0.000 A 
ATOM     17  C   UNL     1       0.305  10.277  20.595  0.00  0.00    +0.000 A 
BRANCH  17  18
ATOM     18  S   UNL     1       1.084  10.120  18.950  0.00  0.00    +0.000 S 
ATOM     19  C   UNL     1       1.856   8.434  18.872  0.00  0.00    +0.000 C 
ENDBRANCH  17  18
ENDBRANCH   1  12
BRANCH   1  20
ATOM     20  C   UNL     1      -0.663  13.699  20.622  0.00  0.00    +0.000 C 
BRANCH  20  21
ATOM     21  C   UNL     1       0.621  13.618  21.450  0.00  0.00    +0.000 C 
ATOM     22  O   UNL     1       1.705  13.227  21.024  0.00  0.00    +0.000 OA
BRANCH  21  23
ATOM     23  O   UNL     1       0.422  13.942  22.761  0.00  0.00    +0.000 OA
BRANCH  23  25
ATOM     24  C   UNL     1      -1.521  14.467  24.117  0.00  0.00    +0.000 C 
ATOM     25  C   UNL     1      -0.609  14.925  22.984  0.00  0.00    +0.000 C 
ENDBRANCH  23  25
ENDBRANCH  21  23
ENDBRANCH  20  21
BRANCH  20  26
ATOM     26  C   UNL     1      -0.511  14.708  19.505  0.00  0.00    +0.000 C 
ATOM     27  N   UNL     1      -0.380  15.476  18.634  0.00  0.00    +0.000 NA
ENDBRANCH  20  26
ENDBRANCH   1  20
TORSDOF 8
ENDMDL
MODEL 9
REMARK VINA RESULT:      -5.9      6.833     10.173
REMARK  Name = 
REMARK  10 active torsions:
REMARK  status: ('A' for Active; 'I' for Inactive)
REMARK    1  A    between atoms: C_1  and  C_2
REMARK    2  A    between atoms: C_2  and  O_3
REMARK    3  A    between atoms: O_3  and  C_4
REMARK    4  A    between atoms: C_4  and  C_6
REMARK    5  A    between atoms: C_6  and  C_7
REMARK    6  A    between atoms: C_6  and  C_9
REMARK    7  A    between atoms: C_9  and  C_10
REMARK    8  A    between atoms: C_9  and  C_18
REMARK    9  A    between atoms: C_15  and  S_16
REMARK   10  A    between atoms: S_16  and  C_17
REMARK                            x       y       z     vdW  Elec       q    Type
REMARK                         _______ _______ _______ _____ _____    ______ ____
ROOT
ATOM      1  C   UNL     1       4.606   3.852  19.193  0.00  0.00    +0.000 C 
ENDROOT
BRANCH   1   2
ATOM      2  C   UNL     1       3.537   4.874  19.615  0.00  0.00    +0.000 A 
ATOM      3  C   UNL     1       2.738   4.507  20.750  0.00  0.00    +0.000 A 
ATOM      4  C   UNL     1       1.725   5.315  21.190  0.00  0.00    +0.000 A 
ATOM      5  C   UNL     1       1.545   6.529  20.566  0.00  0.00    +0.000 A 
ATOM      6  C   UNL     1       2.323   6.924  19.450  0.00  0.00    +0.000 A 
ATOM      7  C   UNL     1       1.995   8.093  18.800  0.00  0.00    +0.000 A 
ATOM      8  C   UNL     1       2.608   8.490  17.584  0.00  0.00    +0.000 A 
ATOM      9  C   UNL     1       3.854   8.136  17.115  0.00  0.00    +0.000 A 
ATOM     10  C   UNL     1       3.928   6.860  17.635  0.00  0.00    +0.000 A 
ATOM     11  C   UNL     1       3.335   6.172  18.888  0.00  0.00    +0.000 A 
ENDBRANCH   1   2
BRANCH   1  12
ATOM     12  C   UNL     1       5.321   4.130  17.896  0.00  0.00    +0.000 A 
ATOM     13  C   UNL     1       4.740   3.583  16.719  0.00  0.00    +0.000 A 
ATOM     14  C   UNL     1       5.400   3.624  15.506  0.00  0.00    +0.000 A 
ATOM     15  C   UNL     1       6.607   4.304  15.451  0.00  0.00    +0.000 A 
ATOM     16  C   UNL     1       7.191   4.866  16.600  0.00  0.00    +0.000 A 
ATOM     17  C   UNL     1       6.586   4.793  17.847  0.00  0.00    +0.000 A 
BRANCH  17  18
ATOM     18  S   UNL     1       7.450   5.594  19.243  0.00  0.00    +0.000 S 
ATOM     19  C   UNL     1       8.127   7.204  18.613  0.00  0.00    +0.000 C 
ENDBRANCH  17  18
ENDBRANCH   1  12
BRANCH   1  20
ATOM     20  C   UNL     1       4.202   2.373  19.292  0.00  0.00    +0.000 C 
BRANCH  20  21
ATOM     21  C   UNL     1       4.437   1.758  20.673  0.00  0.00    +0.000 C 
ATOM     22  O   UNL     1       3.719   1.942  21.652  0.00  0.00    +0.000 OA
BRANCH  21  23
ATOM     23  O   UNL     1       5.598   1.043  20.740  0.00  0.00    +0.000 OA
BRANCH  23  25
ATOM     24  C   UNL     1       6.565  -0.859  21.895  0.00  0.00    +0.000 C 
ATOM     25  C   UNL     1       5.892   0.501  22.043  0.00  0.00    +0.000 C 
ENDBRANCH  23  25
ENDBRANCH  21  23
ENDBRANCH  20  21
BRANCH  20  26
ATOM     26  C   UNL     1       2.764   2.181  18.864  0.00  0.00    +0.000 C 
ATOM     27  N   UNL     1       1.656   2.044  18.518  0.00  0.00    +0.000 NA
ENDBRANCH  20  26
ENDBRANCH   1  20
TORSDOF 8
ENDMDL
