MODEL 1
REMARK VINA RESULT:      -7.4      0.000      0.000
REMARK  Name = 
REMARK  7 active torsions:
REMARK  status: ('A' for Active; 'I' for Inactive)
REMARK    1  A    between atoms: C_1  and  C_2
REMARK    2  A    between atoms: C_2  and  C_3
REMARK    3  A    between atoms: C_2  and  N_4
REMARK    4  A    between atoms: N_4  and  C_5
REMARK    5  A    between atoms: N_14  and  C_15
REMARK    6  A    between atoms: C_15  and  C_16
REMARK    7  A    between atoms: C_16  and  N_17
REMARK                            x       y       z     vdW  Elec       q    Type
REMARK                         _______ _______ _______ _____ _____    ______ ____
ROOT
ATOM      1  C   UNL     1       2.103   7.781  20.235  0.00  0.00    +0.000 C 
ATOM      2  C   UNL     1       1.861   7.756  18.722  0.00  0.00    +0.000 C 
ATOM      3  C   UNL     1       2.670   6.598  18.109  0.00  0.00    +0.000 C 
ATOM      4  C   UNL     1       2.596   5.289  18.877  0.00  0.00    +0.000 A 
ATOM      5  C   UNL     1       2.016   5.256  20.096  0.00  0.00    +0.000 A 
ATOM      6  C   UNL     1       1.869   4.012  20.812  0.00  0.00    +0.000 A 
ATOM      7  C   UNL     1       2.335   2.873  20.303  0.00  0.00    +0.000 A 
ATOM      8  C   UNL     1       3.024   2.875  18.993  0.00  0.00    +0.000 A 
ATOM      9  O   UNL     1       3.449   1.802  18.568  0.00  0.00    +0.000 OA
ATOM     10  N   UNL     1       3.138   4.110  18.332  0.00  0.00    +0.000 N 
ATOM     11  C   UNL     1       1.526   6.481  20.824  0.00  0.00    +0.000 C 
ENDROOT
BRANCH   1  12
ATOM     12  N   UNL     1       1.540   8.986  20.863  0.00  0.00    +0.000 NA
ATOM     13  H   UNL     1       1.958   9.107  21.787  0.00  0.00    +0.000 HD
BRANCH  12  15
ATOM     14  C   UNL     1      -0.410   9.137  22.443  0.00  0.00    +0.000 C 
ATOM     15  C   UNL     1       0.071   8.953  21.000  0.00  0.00    +0.000 C 
ATOM     16  C   UNL     1      -0.536  10.042  20.115  0.00  0.00    +0.000 C 
ENDBRANCH  12  15
ENDBRANCH   1  12
BRANCH  10  17
ATOM     17  C   UNL     1       3.756   4.061  17.000  0.00  0.00    +0.000 C 
BRANCH  17  18
ATOM     18  C   UNL     1       5.290   4.078  16.892  0.00  0.00    +0.000 C 
BRANCH  18  19
ATOM     19  N   UNL     1       6.044   5.156  17.517  0.00  0.00    +0.000 N 
ATOM     20  C   UNL     1       7.201   4.943  18.357  0.00  0.00    +0.000 C 
ATOM     21  C   UNL     1       7.676   6.356  18.648  0.00  0.00    +0.000 C 
ATOM     22  C   UNL     1       7.375   7.100  17.358  0.00  0.00    +0.000 C 
ATOM     23  C   UNL     1       6.172   6.365  16.821  0.00  0.00    +0.000 C 
ATOM     24  O   UNL     1       5.492   6.731  15.876  0.00  0.00    +0.000 OA
ENDBRANCH  18  19
ENDBRANCH  17  18
ENDBRANCH  10  17
TORSDOF 5
ENDMDL
MODEL 2
REMARK VINA RESULT:      -7.3      1.137      1.369
REMARK  Name = 
REMARK  7 active torsions:
REMARK  status: ('A' for Active; 'I' for Inactive)
REMARK    1  A    between atoms: C_1  and  C_2
REMARK    2  A    between atoms: C_2  and  C_3
REMARK    3  A    between atoms: C_2  and  N_4
REMARK    4  A    between atoms: N_4  and  C_5
REMARK    5  A    between atoms: N_14  and  C_15
REMARK    6  A    between atoms: C_15  and  C_16
REMARK    7  A    between atoms: C_16  and  N_17
REMARK                            x       y       z     vdW  Elec       q    Type
REMARK                         _______ _______ _______ _____ _____    ______ ____
ROOT
ATOM      1  C   UNL     1       2.152   7.450  20.494  0.00  0.00    +0.000 C 
ATOM      2  C   UNL     1       2.104   7.724  18.987  0.00  0.00    +0.000 C 
ATOM      3  C   UNL     1       2.749   6.537  18.246  0.00  0.00    +0.000 C 
ATOM      4  C   UNL     1       2.328   5.166  18.748  0.00  0.00    +0.000 A 
ATOM      5  C   UNL     1       1.602   5.058  19.881  0.00  0.00    +0.000 A 
ATOM      6  C   UNL     1       1.130   3.773  20.339  0.00  0.00    +0.000 A 
ATOM      7  C   UNL     1       1.431   2.660  19.672  0.00  0.00    +0.000 A 
ATOM      8  C   UNL     1       2.268   2.730  18.454  0.00  0.00    +0.000 A 
ATOM      9  O   UNL     1       2.531   1.676  17.877  0.00  0.00    +0.000 OA
ATOM     10  N   UNL     1       2.699   4.004  18.046  0.00  0.00    +0.000 N 
ATOM     11  C   UNL     1       1.267   6.223  20.776  0.00  0.00    +0.000 C 
ENDROOT
BRANCH   1  12
ATOM     12  N   UNL     1       1.754   8.629  21.280  0.00  0.00    +0.000 NA
ATOM     13  H   UNL     1       2.203   8.585  22.196  0.00  0.00    +0.000 HD
BRANCH  12  15
ATOM     14  C   UNL     1      -0.103   9.198  22.876  0.00  0.00    +0.000 C 
ATOM     15  C   UNL     1       0.296   8.754  21.465  0.00  0.00    +0.000 C 
ATOM     16  C   UNL     1      -0.252   9.749  20.441  0.00  0.00    +0.000 C 
ENDBRANCH  12  15
ENDBRANCH   1  12
BRANCH  10  17
ATOM     17  C   UNL     1       3.462   4.044  16.791  0.00  0.00    +0.000 C 
BRANCH  17  18
ATOM     18  C   UNL     1       4.937   3.610  16.803  0.00  0.00    +0.000 C 
BRANCH  18  19
ATOM     19  N   UNL     1       5.971   4.584  17.121  0.00  0.00    +0.000 N 
ATOM     20  C   UNL     1       6.212   5.781  16.347  0.00  0.00    +0.000 C 
ATOM     21  C   UNL     1       7.287   6.496  17.146  0.00  0.00    +0.000 C 
ATOM     22  C   UNL     1       6.926   6.171  18.587  0.00  0.00    +0.000 C 
ATOM     23  C   UNL     1       6.269   4.818  18.470  0.00  0.00    +0.000 C 
ATOM     24  O   UNL     1       5.969   4.101  19.412  0.00  0.00    +0.000 OA
ENDBRANCH  18  19
ENDBRANCH  17  18
ENDBRANCH  10  17
TORSDOF 5
ENDMDL
MODEL 3
REMARK VINA RESULT:      -7.3      0.948      1.080
REMARK  Name = 
REMARK  7 active torsions:
REMARK  status: ('A' for Active; 'I' for Inactive)
REMARK    1  A    between atoms: C_1  and  C_2
REMARK    2  A    between atoms: C_2  and  C_3
REMARK    3  A    between atoms: C_2  and  N_4
REMARK    4  A    between atoms: N_4  and  C_5
REMARK    5  A    between atoms: N_14  and  C_15
REMARK    6  A    between atoms: C_15  and  C_16
REMARK    7  A    between atoms: C_16  and  N_17
REMARK                            x       y       z     vdW  Elec       q    Type
REMARK                         _______ _______ _______ _____ _____    ______ ____
ROOT
ATOM      1  C   UNL     1       2.027   8.047  19.731  0.00  0.00    +0.000 C 
ATOM      2  C   UNL     1       1.715   7.727  18.265  0.00  0.00    +0.000 C 
ATOM      3  C   UNL     1       2.611   6.560  17.810  0.00  0.00    +0.000 C 
ATOM      4  C   UNL     1       2.712   5.410  18.798  0.00  0.00    +0.000 A 
ATOM      5  C   UNL     1       2.198   5.542  20.040  0.00  0.00    +0.000 A 
ATOM      6  C   UNL     1       2.218   4.439  20.971  0.00  0.00    +0.000 A 
ATOM      7  C   UNL     1       2.776   3.277  20.638  0.00  0.00    +0.000 A 
ATOM      8  C   UNL     1       3.396   3.107  19.305  0.00  0.00    +0.000 A 
ATOM      9  O   UNL     1       3.910   2.020  19.045  0.00  0.00    +0.000 OA
ATOM     10  N   UNL     1       3.347   4.208  18.432  0.00  0.00    +0.000 N 
ATOM     11  C   UNL     1       1.619   6.826  20.574  0.00  0.00    +0.000 C 
ENDROOT
BRANCH   1  12
ATOM     12  N   UNL     1       1.372   9.287  20.174  0.00  0.00    +0.000 NA
ATOM     13  H   UNL     1       0.675   9.060  20.885  0.00  0.00    +0.000 HD
BRANCH  12  15
ATOM     14  C   UNL     1      -0.790  10.215  19.286  0.00  0.00    +0.000 C 
ATOM     15  C   UNL     1       0.719  10.036  19.083  0.00  0.00    +0.000 C 
ATOM     16  C   UNL     1       1.384  11.407  18.954  0.00  0.00    +0.000 C 
ENDBRANCH  12  15
ENDBRANCH   1  12
BRANCH  10  17
ATOM     17  C   UNL     1       3.901   3.979  17.091  0.00  0.00    +0.000 C 
BRANCH  17  18
ATOM     18  C   UNL     1       5.419   4.112  16.882  0.00  0.00    +0.000 C 
BRANCH  18  19
ATOM     19  N   UNL     1       6.145   5.189  17.540  0.00  0.00    +0.000 N 
ATOM     20  C   UNL     1       7.314   4.982  18.363  0.00  0.00    +0.000 C 
ATOM     21  C   UNL     1       7.749   6.397  18.702  0.00  0.00    +0.000 C 
ATOM     22  C   UNL     1       7.415   7.177  17.441  0.00  0.00    +0.000 C 
ATOM     23  C   UNL     1       6.231   6.425  16.886  0.00  0.00    +0.000 C 
ATOM     24  O   UNL     1       5.532   6.804  15.960  0.00  0.00    +0.000 OA
ENDBRANCH  18  19
ENDBRANCH  17  18
ENDBRANCH  10  17
TORSDOF 5
ENDMDL
MODEL 4
REMARK VINA RESULT:      -7.2      3.250      7.583
REMARK  Name = 
REMARK  7 active torsions:
REMARK  status: ('A' for Active; 'I' for Inactive)
REMARK    1  A    between atoms: C_1  and  C_2
REMARK    2  A    between atoms: C_2  and  C_3
REMARK    3  A    between atoms: C_2  and  N_4
REMARK    4  A    between atoms: N_4  and  C_5
REMARK    5  A    between atoms: N_14  and  C_15
REMARK    6  A    between atoms: C_15  and  C_16
REMARK    7  A    between atoms: C_16  and  N_17
REMARK                            x       y       z     vdW  Elec       q    Type
REMARK                         _______ _______ _______ _____ _____    ______ ____
ROOT
ATOM      1  C   UNL     1       6.302   3.941  14.098  0.00  0.00    +0.000 C 
ATOM      2  C   UNL     1       4.903   3.808  14.708  0.00  0.00    +0.000 C 
ATOM      3  C   UNL     1       5.040   3.645  16.234  0.00  0.00    +0.000 C 
ATOM      4  C   UNL     1       6.032   4.590  16.891  0.00  0.00    +0.000 A 
ATOM      5  C   UNL     1       6.844   5.352  16.127  0.00  0.00    +0.000 A 
ATOM      6  C   UNL     1       7.743   6.308  16.727  0.00  0.00    +0.000 A 
ATOM      7  C   UNL     1       7.818   6.435  18.050  0.00  0.00    +0.000 A 
ATOM      8  C   UNL     1       6.983   5.582  18.924  0.00  0.00    +0.000 A 
ATOM      9  O   UNL     1       7.095   5.725  20.141  0.00  0.00    +0.000 OA
ATOM     10  N   UNL     1       6.121   4.670  18.293  0.00  0.00    +0.000 N 
ATOM     11  C   UNL     1       6.923   5.246  14.626  0.00  0.00    +0.000 C 
ENDROOT
BRANCH   1  12
ATOM     12  N   UNL     1       6.268   3.882  12.628  0.00  0.00    +0.000 NA
ATOM     13  H   UNL     1       5.938   4.778  12.266  0.00  0.00    +0.000 HD
BRANCH  12  15
ATOM     14  C   UNL     1       4.237   3.317  11.259  0.00  0.00    +0.000 C 
ATOM     15  C   UNL     1       5.412   2.804  12.097  0.00  0.00    +0.000 C 
ATOM     16  C   UNL     1       6.269   1.860  11.252  0.00  0.00    +0.000 C 
ENDBRANCH  12  15
ENDBRANCH   1  12
BRANCH  10  17
ATOM     17  C   UNL     1       5.250   3.896  19.189  0.00  0.00    +0.000 C 
BRANCH  17  18
ATOM     18  C   UNL     1       3.932   4.525  19.671  0.00  0.00    +0.000 C 
BRANCH  18  19
ATOM     19  N   UNL     1       2.853   3.666  20.139  0.00  0.00    +0.000 N 
ATOM     20  C   UNL     1       2.250   3.776  21.447  0.00  0.00    +0.000 C 
ATOM     21  C   UNL     1       1.124   2.759  21.391  0.00  0.00    +0.000 C 
ATOM     22  C   UNL     1       0.648   2.842  19.950  0.00  0.00    +0.000 C 
ATOM     23  C   UNL     1       1.902   3.232  19.206  0.00  0.00    +0.000 C 
ATOM     24  O   UNL     1       2.018   3.250  17.991  0.00  0.00    +0.000 OA
ENDBRANCH  18  19
ENDBRANCH  17  18
ENDBRANCH  10  17
TORSDOF 5
ENDMDL
MODEL 5
REMARK VINA RESULT:      -7.1      1.799      4.506
REMARK  Name = 
REMARK  7 active torsions:
REMARK  status: ('A' for Active; 'I' for Inactive)
REMARK    1  A    between atoms: C_1  and  C_2
REMARK    2  A    between atoms: C_2  and  C_3
REMARK    3  A    between atoms: C_2  and  N_4
REMARK    4  A    between atoms: N_4  and  C_5
REMARK    5  A    between atoms: N_14  and  C_15
REMARK    6  A    between atoms: C_15  and  C_16
REMARK    7  A    between atoms: C_16  and  N_17
REMARK                            x       y       z     vdW  Elec       q    Type
REMARK                         _______ _______ _______ _____ _____    ______ ____
ROOT
ATOM      1  C   UNL     1       1.806   7.923  18.160  0.00  0.00    +0.000 C 
ATOM      2  C   UNL     1       2.278   7.512  19.559  0.00  0.00    +0.000 C 
ATOM      3  C   UNL     1       3.045   6.181  19.453  0.00  0.00    +0.000 C 
ATOM      4  C   UNL     1       4.034   6.103  18.302  0.00  0.00    +0.000 A 
ATOM      5  C   UNL     1       4.052   7.074  17.363  0.00  0.00    +0.000 A 
ATOM      6  C   UNL     1       5.029   7.058  16.301  0.00  0.00    +0.000 A 
ATOM      7  C   UNL     1       5.913   6.067  16.202  0.00  0.00    +0.000 A 
ATOM      8  C   UNL     1       5.893   4.957  17.181  0.00  0.00    +0.000 A 
ATOM      9  O   UNL     1       6.719   4.057  17.043  0.00  0.00    +0.000 OA
ATOM     10  N   UNL     1       4.926   5.019  18.199  0.00  0.00    +0.000 N 
ATOM     11  C   UNL     1       3.056   8.203  17.306  0.00  0.00    +0.000 C 
ENDROOT
BRANCH   1  12
ATOM     12  N   UNL     1       0.883   9.068  18.205  0.00  0.00    +0.000 NA
ATOM     13  H   UNL     1       0.910   9.553  17.307  0.00  0.00    +0.000 HD
BRANCH  12  15
ATOM     14  C   UNL     1       1.627  11.404  18.763  0.00  0.00    +0.000 C 
ATOM     15  C   UNL     1       1.185  10.031  19.281  0.00  0.00    +0.000 C 
ATOM     16  C   UNL     1      -0.053  10.192  20.166  0.00  0.00    +0.000 C 
ENDBRANCH  12  15
ENDBRANCH   1  12
BRANCH  10  17
ATOM     17  C   UNL     1       4.986   3.942  19.197  0.00  0.00    +0.000 C 
BRANCH  17  18
ATOM     18  C   UNL     1       4.096   2.703  19.007  0.00  0.00    +0.000 C 
BRANCH  18  19
ATOM     19  N   UNL     1       2.859   2.581  19.766  0.00  0.00    +0.000 N 
ATOM     20  C   UNL     1       2.760   2.841  21.184  0.00  0.00    +0.000 C 
ATOM     21  C   UNL     1       1.273   2.693  21.456  0.00  0.00    +0.000 C 
ATOM     22  C   UNL     1       0.630   3.234  20.190  0.00  0.00    +0.000 C 
ATOM     23  C   UNL     1       1.656   2.917  19.131  0.00  0.00    +0.000 C 
ATOM     24  O   UNL     1       1.480   3.029  17.929  0.00  0.00    +0.000 OA
ENDBRANCH  18  19
ENDBRANCH  17  18
ENDBRANCH  10  17
TORSDOF 5
ENDMDL
MODEL 6
REMARK VINA RESULT:      -7.0      1.348      1.648
REMARK  Name = 
REMARK  7 active torsions:
REMARK  status: ('A' for Active; 'I' for Inactive)
REMARK    1  A    between atoms: C_1  and  C_2
REMARK    2  A    between atoms: C_2  and  C_3
REMARK    3  A    between atoms: C_2  and  N_4
REMARK    4  A    between atoms: N_4  and  C_5
REMARK    5  A    between atoms: N_14  and  C_15
REMARK    6  A    between atoms: C_15  and  C_16
REMARK    7  A    between atoms: C_16  and  N_17
REMARK                            x       y       z     vdW  Elec       q    Type
REMARK                         _______ _______ _______ _____ _____    ______ ____
ROOT
ATOM      1  C   UNL     1       1.743   7.561  20.777  0.00  0.00    +0.000 C 
ATOM      2  C   UNL     1       2.048   7.750  19.287  0.00  0.00    +0.000 C 
ATOM      3  C   UNL     1       3.019   6.644  18.835  0.00  0.00    +0.000 C 
ATOM      4  C   UNL     1       2.678   5.251  19.334  0.00  0.00    +0.000 A 
ATOM      5  C   UNL     1       1.707   5.085  20.257  0.00  0.00    +0.000 A 
ATOM      6  C   UNL     1       1.317   3.766  20.694  0.00  0.00    +0.000 A 
ATOM      7  C   UNL     1       1.931   2.683  20.221  0.00  0.00    +0.000 A 
ATOM      8  C   UNL     1       3.035   2.824  19.246  0.00  0.00    +0.000 A 
ATOM      9  O   UNL     1       3.581   1.797  18.846  0.00  0.00    +0.000 OA
ATOM     10  N   UNL     1       3.375   4.128  18.849  0.00  0.00    +0.000 N 
ATOM     11  C   UNL     1       0.995   6.226  20.937  0.00  0.00    +0.000 C 
ENDROOT
BRANCH   1  12
ATOM     12  N   UNL     1       0.997   8.700  21.335  0.00  0.00    +0.000 NA
ATOM     13  H   UNL     1       0.130   8.358  21.752  0.00  0.00    +0.000 HD
BRANCH  12  15
ATOM     14  C   UNL     1      -0.796   9.738  19.911  0.00  0.00    +0.000 C 
ATOM     15  C   UNL     1       0.674   9.742  20.341  0.00  0.00    +0.000 C 
ATOM     16  C   UNL     1       1.035  11.110  20.920  0.00  0.00    +0.000 C 
ENDBRANCH  12  15
ENDBRANCH   1  12
BRANCH  10  17
ATOM     17  C   UNL     1       4.422   4.226  17.822  0.00  0.00    +0.000 C 
BRANCH  17  18
ATOM     18  C   UNL     1       5.896   4.237  18.262  0.00  0.00    +0.000 C 
BRANCH  18  19
ATOM     19  N   UNL     1       6.736   5.380  17.934  0.00  0.00    +0.000 N 
ATOM     20  C   UNL     1       6.278   6.521  17.174  0.00  0.00    +0.000 C 
ATOM     21  C   UNL     1       7.470   7.460  17.213  0.00  0.00    +0.000 C 
ATOM     22  C   UNL     1       8.058   7.222  18.595  0.00  0.00    +0.000 C 
ATOM     23  C   UNL     1       7.702   5.781  18.866  0.00  0.00    +0.000 C 
ATOM     24  O   UNL     1       8.124   5.120  19.801  0.00  0.00    +0.000 OA
ENDBRANCH  18  19
ENDBRANCH  17  18
ENDBRANCH  10  17
TORSDOF 5
ENDMDL
MODEL 7
REMARK VINA RESULT:      -6.9      1.881      4.384
REMARK  Name = 
REMARK  7 active torsions:
REMARK  status: ('A' for Active; 'I' for Inactive)
REMARK    1  A    between atoms: C_1  and  C_2
REMARK    2  A    between atoms: C_2  and  C_3
REMARK    3  A    between atoms: C_2  and  N_4
REMARK    4  A    between atoms: N_4  and  C_5
REMARK    5  A    between atoms: N_14  and  C_15
REMARK    6  A    between atoms: C_15  and  C_16
REMARK    7  A    between atoms: C_16  and  N_17
REMARK                            x       y       z     vdW  Elec       q    Type
REMARK                         _______ _______ _______ _____ _____    ______ ____
ROOT
ATOM      1  C   UNL     1       2.405   8.135  17.922  0.00  0.00    +0.000 C 
ATOM      2  C   UNL     1       2.021   6.996  18.872  0.00  0.00    +0.000 C 
ATOM      3  C   UNL     1       2.278   5.652  18.165  0.00  0.00    +0.000 C 
ATOM      4  C   UNL     1       3.601   5.563  17.423  0.00  0.00    +0.000 A 
ATOM      5  C   UNL     1       4.359   6.669  17.264  0.00  0.00    +0.000 A 
ATOM      6  C   UNL     1       5.652   6.595  16.627  0.00  0.00    +0.000 A 
ATOM      7  C   UNL     1       6.111   5.440  16.149  0.00  0.00    +0.000 A 
ATOM      8  C   UNL     1       5.288   4.214  16.257  0.00  0.00    +0.000 A 
ATOM      9  O   UNL     1       5.747   3.173  15.791  0.00  0.00    +0.000 OA
ATOM     10  N   UNL     1       4.040   4.336  16.890  0.00  0.00    +0.000 N 
ATOM     11  C   UNL     1       3.923   8.050  17.678  0.00  0.00    +0.000 C 
ENDROOT
BRANCH   1  12
ATOM     12  N   UNL     1       1.987   9.447  18.439  0.00  0.00    +0.000 NA
ATOM     13  H   UNL     1       2.714   9.809  19.058  0.00  0.00    +0.000 HD
BRANCH  12  15
ATOM     14  C   UNL     1       0.794  10.015  20.579  0.00  0.00    +0.000 C 
ATOM     15  C   UNL     1       0.706   9.415  19.171  0.00  0.00    +0.000 C 
ATOM     16  C   UNL     1      -0.350  10.167  18.359  0.00  0.00    +0.000 C 
ENDBRANCH  12  15
ENDBRANCH   1  12
BRANCH  10  17
ATOM     17  C   UNL     1       3.285   3.085  17.050  0.00  0.00    +0.000 C 
BRANCH  17  18
ATOM     18  C   UNL     1       3.588   2.184  18.258  0.00  0.00    +0.000 C 
BRANCH  18  19
ATOM     19  N   UNL     1       2.815   2.336  19.482  0.00  0.00    +0.000 N 
ATOM     20  C   UNL     1       3.278   3.072  20.637  0.00  0.00    +0.000 C 
ATOM     21  C   UNL     1       2.081   3.030  21.571  0.00  0.00    +0.000 C 
ATOM     22  C   UNL     1       0.895   3.102  20.624  0.00  0.00    +0.000 C 
ATOM     23  C   UNL     1       1.422   2.434  19.378  0.00  0.00    +0.000 C 
ATOM     24  O   UNL     1       0.745   2.124  18.410  0.00  0.00    +0.000 OA
ENDBRANCH  18  19
ENDBRANCH  17  18
ENDBRANCH  10  17
TORSDOF 5
ENDMDL
MODEL 8
REMARK VINA RESULT:      -6.9      1.462      1.818
REMARK  Name = 
REMARK  7 active torsions:
REMARK  status: ('A' for Active; 'I' for Inactive)
REMARK    1  A    between atoms: C_1  and  C_2
REMARK    2  A    between atoms: C_2  and  C_3
REMARK    3  A    between atoms: C_2  and  N_4
REMARK    4  A    between atoms: N_4  and  C_5
REMARK    5  A    between atoms: N_14  and  C_15
REMARK    6  A    between atoms: C_15  and  C_16
REMARK    7  A    between atoms: C_16  and  N_17
REMARK                            x       y       z     vdW  Elec       q    Type
REMARK                         _______ _______ _______ _____ _____    ______ ____
ROOT
ATOM      1  C   UNL     1       1.869   8.672  20.007  0.00  0.00    +0.000 C 
ATOM      2  C   UNL     1       1.747   8.484  18.491  0.00  0.00    +0.000 C 
ATOM      3  C   UNL     1       2.705   7.361  18.052  0.00  0.00    +0.000 C 
ATOM      4  C   UNL     1       2.692   6.127  18.938  0.00  0.00    +0.000 A 
ATOM      5  C   UNL     1       2.025   6.149  20.112  0.00  0.00    +0.000 A 
ATOM      6  C   UNL     1       1.939   4.968  20.937  0.00  0.00    +0.000 A 
ATOM      7  C   UNL     1       2.545   3.839  20.576  0.00  0.00    +0.000 A 
ATOM      8  C   UNL     1       3.329   3.788  19.322  0.00  0.00    +0.000 A 
ATOM      9  O   UNL     1       3.883   2.728  19.035  0.00  0.00    +0.000 OA
ATOM     10  N   UNL     1       3.380   4.962  18.551  0.00  0.00    +0.000 N 
ATOM     11  C   UNL     1       1.370   7.381  20.681  0.00  0.00    +0.000 C 
ENDROOT
BRANCH   1  12
ATOM     12  N   UNL     1       1.151   9.869  20.472  0.00  0.00    +0.000 NA
ATOM     13  H   UNL     1       0.360   9.579  21.050  0.00  0.00    +0.000 HD
BRANCH  12  15
ATOM     14  C   UNL     1      -0.828  10.520  19.065  0.00  0.00    +0.000 C 
ATOM     15  C   UNL     1       0.657  10.727  19.378  0.00  0.00    +0.000 C 
ATOM     16  C   UNL     1       0.904  12.191  19.745  0.00  0.00    +0.000 C 
ENDBRANCH  12  15
ENDBRANCH   1  12
BRANCH  10  17
ATOM     17  C   UNL     1       4.101   4.852  17.275  0.00  0.00    +0.000 C 
BRANCH  17  18
ATOM     18  C   UNL     1       5.614   4.581  17.298  0.00  0.00    +0.000 C 
BRANCH  18  19
ATOM     19  N   UNL     1       6.546   5.699  17.352  0.00  0.00    +0.000 N 
ATOM     20  C   UNL     1       6.165   7.072  17.112  0.00  0.00    +0.000 C 
ATOM     21  C   UNL     1       7.445   7.837  17.400  0.00  0.00    +0.000 C 
ATOM     22  C   UNL     1       8.073   7.052  18.540  0.00  0.00    +0.000 C 
ATOM     23  C   UNL     1       7.591   5.646  18.283  0.00  0.00    +0.000 C 
ATOM     24  O   UNL     1       7.991   4.651  18.867  0.00  0.00    +0.000 OA
ENDBRANCH  18  19
ENDBRANCH  17  18
ENDBRANCH  10  17
TORSDOF 5
ENDMDL
MODEL 9
REMARK VINA RESULT:      -6.7      2.399      6.103
REMARK  Name = 
REMARK  7 active torsions:
REMARK  status: ('A' for Active; 'I' for Inactive)
REMARK    1  A    between atoms: C_1  and  C_2
REMARK    2  A    between atoms: C_2  and  C_3
REMARK    3  A    between atoms: C_2  and  N_4
REMARK    4  A    between atoms: N_4  and  C_5
REMARK    5  A    between atoms: N_14  and  C_15
REMARK    6  A    between atoms: C_15  and  C_16
REMARK    7  A    between atoms: C_16  and  N_17
REMARK                            x       y       z     vdW  Elec       q    Type
REMARK                         _______ _______ _______ _____ _____    ______ ____
ROOT
ATOM      1  C   UNL     1       5.562   4.134  16.837  0.00  0.00    +0.000 C 
ATOM      2  C   UNL     1       6.038   4.535  18.237  0.00  0.00    +0.000 C 
ATOM      3  C   UNL     1       4.821   4.993  19.063  0.00  0.00    +0.000 C 
ATOM      4  C   UNL     1       3.594   4.106  18.940  0.00  0.00    +0.000 A 
ATOM      5  C   UNL     1       3.564   3.123  18.015  0.00  0.00    +0.000 A 
ATOM      6  C   UNL     1       2.440   2.222  17.928  0.00  0.00    +0.000 A 
ATOM      7  C   UNL     1       1.390   2.363  18.734  0.00  0.00    +0.000 A 
ATOM      8  C   UNL     1       1.361   3.460  19.727  0.00  0.00    +0.000 A 
ATOM      9  O   UNL     1       0.365   3.559  20.442  0.00  0.00    +0.000 OA
ATOM     10  N   UNL     1       2.480   4.308  19.777  0.00  0.00    +0.000 N 
ATOM     11  C   UNL     1       4.644   2.908  16.986  0.00  0.00    +0.000 C 
ENDROOT
BRANCH   1  12
ATOM     12  N   UNL     1       6.687   3.892  15.922  0.00  0.00    +0.000 NA
ATOM     13  H   UNL     1       7.563   4.077  16.414  0.00  0.00    +0.000 HD
BRANCH  12  15
ATOM     14  C   UNL     1       6.338   3.902  13.432  0.00  0.00    +0.000 C 
ATOM     15  C   UNL     1       6.642   4.713  14.696  0.00  0.00    +0.000 C 
ATOM     16  C   UNL     1       5.588   5.807  14.869  0.00  0.00    +0.000 C 
ENDBRANCH  12  15
ENDBRANCH   1  12
BRANCH  10  17
ATOM     17  C   UNL     1       2.451   5.336  20.826  0.00  0.00    +0.000 C 
BRANCH  17  18
ATOM     18  C   UNL     1       1.539   6.560  20.642  0.00  0.00    +0.000 C 
BRANCH  18  19
ATOM     19  N   UNL     1       1.927   7.614  19.715  0.00  0.00    +0.000 N 
ATOM     20  C   UNL     1       2.234   7.385  18.322  0.00  0.00    +0.000 C 
ATOM     21  C   UNL     1       2.456   8.788  17.785  0.00  0.00    +0.000 C 
ATOM     22  C   UNL     1       1.457   9.624  18.568  0.00  0.00    +0.000 C 
ATOM     23  C   UNL     1       1.355   8.883  19.878  0.00  0.00    +0.000 C 
ATOM     24  O   UNL     1       0.783   9.296  20.874  0.00  0.00    +0.000 OA
ENDBRANCH  18  19
ENDBRANCH  17  18
ENDBRANCH  10  17
TORSDOF 5
ENDMDL
