MODEL 1
REMARK VINA RESULT:      -8.0      0.000      0.000
REMARK  Name = 
REMARK  10 active torsions:
REMARK  status: ('A' for Active; 'I' for Inactive)
REMARK    1  A    between atoms: C_8  and  O_9
REMARK    2  A    between atoms: C_11  and  C_12
REMARK    3  A    between atoms: C_12  and  O_13
REMARK    4  A    between atoms: C_12  and  C_14
REMARK    5  A    between atoms: C_14  and  N_15
REMARK    6  A    between atoms: N_15  and  C_16
REMARK    7  A    between atoms: C_16  and  C_17
REMARK    8  A    between atoms: C_17  and  C_18
REMARK    9  A    between atoms: C_18  and  C_19
REMARK   10  A    between atoms: C_19  and  C_20
REMARK                            x       y       z     vdW  Elec       q    Type
REMARK                         _______ _______ _______ _____ _____    ______ ____
ROOT
ATOM      1  C   UNL     1       3.896   2.894  17.413  0.00  0.00    +0.000 C 
ENDROOT
BRANCH   1  11
ATOM      2  O   UNL     1       7.877   5.339  13.046  0.00  0.00    +0.000 OA
ATOM      3  C   UNL     1       7.175   5.160  14.038  0.00  0.00    +0.000 C 
ATOM      4  C   UNL     1       5.747   4.634  13.988  0.00  0.00    +0.000 C 
ATOM      5  O   UNL     1       5.330   3.835  15.088  0.00  0.00    +0.000 OA
ATOM      6  C   UNL     1       5.743   4.312  16.308  0.00  0.00    +0.000 A 
ATOM      7  C   UNL     1       6.863   5.152  16.431  0.00  0.00    +0.000 A 
ATOM      8  C   UNL     1       7.302   5.578  17.683  0.00  0.00    +0.000 A 
ATOM      9  C   UNL     1       6.632   5.132  18.815  0.00  0.00    +0.000 A 
ATOM     10  C   UNL     1       5.539   4.278  18.711  0.00  0.00    +0.000 A 
ATOM     11  C   UNL     1       5.071   3.854  17.454  0.00  0.00    +0.000 A 
ATOM     12  N   UNL     1       7.596   5.508  15.295  0.00  0.00    +0.000 N 
ATOM     13  H   UNL     1       8.496   5.962  15.368  0.00  0.00    +0.000 HD
BRANCH   9  14
ATOM     14  O   UNL     1       7.026   5.496  20.069  0.00  0.00    +0.000 OA
ATOM     15  H   UNL     1       6.812   6.434  20.213  0.00  0.00    +0.000 HD
ENDBRANCH   9  14
ENDBRANCH   1  11
BRANCH   1  16
ATOM     16  O   UNL     1       4.077   1.777  18.281  0.00  0.00    +0.000 OA
ATOM     17  H   UNL     1       5.048   1.663  18.329  0.00  0.00    +0.000 HD
ENDBRANCH   1  16
BRANCH   1  18
ATOM     18  C   UNL     1       2.532   3.579  17.696  0.00  0.00    +0.000 C 
BRANCH  18  19
ATOM     19  N   UNL     1       1.465   2.674  18.170  0.00  0.00    +0.000 NA
ATOM     20  H   UNL     1       1.856   1.749  18.345  0.00  0.00    +0.000 HD
BRANCH  19  21
ATOM     21  C   UNL     1       0.882   3.213  19.405  0.00  0.00    +0.000 C 
BRANCH  21  22
ATOM     22  C   UNL     1       1.960   3.781  20.325  0.00  0.00    +0.000 C 
BRANCH  22  23
ATOM     23  C   UNL     1       1.677   5.257  20.632  0.00  0.00    +0.000 C 
BRANCH  23  24
ATOM     24  C   UNL     1       2.735   6.165  20.006  0.00  0.00    +0.000 C 
BRANCH  24  25
ATOM     25  C   UNL     1       2.151   7.475  19.542  0.00  0.00    +0.000 A 
ATOM     26  C   UNL     1       2.328   7.893  18.215  0.00  0.00    +0.000 A 
ATOM     27  C   UNL     1       1.790   9.103  17.778  0.00  0.00    +0.000 A 
ATOM     28  C   UNL     1       1.077   9.909  18.661  0.00  0.00    +0.000 A 
ATOM     29  C   UNL     1       0.902   9.511  19.986  0.00  0.00    +0.000 A 
ATOM     30  C   UNL     1       1.441   8.298  20.426  0.00  0.00    +0.000 A 
ENDBRANCH  24  25
ENDBRANCH  23  24
ENDBRANCH  22  23
ENDBRANCH  21  22
ENDBRANCH  19  21
ENDBRANCH  18  19
ENDBRANCH   1  18
TORSDOF 10
ENDMDL
MODEL 2
REMARK VINA RESULT:      -8.0      0.938      1.375
REMARK  Name = 
REMARK  10 active torsions:
REMARK  status: ('A' for Active; 'I' for Inactive)
REMARK    1  A    between atoms: C_8  and  O_9
REMARK    2  A    between atoms: C_11  and  C_12
REMARK    3  A    between atoms: C_12  and  O_13
REMARK    4  A    between atoms: C_12  and  C_14
REMARK    5  A    between atoms: C_14  and  N_15
REMARK    6  A    between atoms: N_15  and  C_16
REMARK    7  A    between atoms: C_16  and  C_17
REMARK    8  A    between atoms: C_17  and  C_18
REMARK    9  A    between atoms: C_18  and  C_19
REMARK   10  A    between atoms: C_19  and  C_20
REMARK                            x       y       z     vdW  Elec       q    Type
REMARK                         _______ _______ _______ _____ _____    ______ ____
ROOT
ATOM      1  C   UNL     1       4.251   3.054  18.443  0.00  0.00    +0.000 C 
ENDROOT
BRANCH   1  11
ATOM      2  O   UNL     1       7.467   5.238  13.366  0.00  0.00    +0.000 OA
ATOM      3  C   UNL     1       6.934   5.117  14.465  0.00  0.00    +0.000 C 
ATOM      4  C   UNL     1       5.521   4.589  14.672  0.00  0.00    +0.000 C 
ATOM      5  O   UNL     1       5.291   3.857  15.869  0.00  0.00    +0.000 OA
ATOM      6  C   UNL     1       5.887   4.405  16.979  0.00  0.00    +0.000 A 
ATOM      7  C   UNL     1       7.004   5.251  16.874  0.00  0.00    +0.000 A 
ATOM      8  C   UNL     1       7.630   5.750  18.013  0.00  0.00    +0.000 A 
ATOM      9  C   UNL     1       7.153   5.372  19.261  0.00  0.00    +0.000 A 
ATOM     10  C   UNL     1       6.065   4.513  19.381  0.00  0.00    +0.000 A 
ATOM     11  C   UNL     1       5.408   4.015  18.241  0.00  0.00    +0.000 A 
ATOM     12  N   UNL     1       7.544   5.539  15.617  0.00  0.00    +0.000 N 
ATOM     13  H   UNL     1       8.439   5.997  15.519  0.00  0.00    +0.000 HD
BRANCH   9  14
ATOM     14  O   UNL     1       7.736   5.810  20.413  0.00  0.00    +0.000 OA
ATOM     15  H   UNL     1       7.051   5.939  21.091  0.00  0.00    +0.000 HD
ENDBRANCH   9  14
ENDBRANCH   1  11
BRANCH   1  16
ATOM     16  O   UNL     1       4.301   1.949  17.543  0.00  0.00    +0.000 OA
ATOM     17  H   UNL     1       4.614   1.203  18.093  0.00  0.00    +0.000 HD
ENDBRANCH   1  16
BRANCH   1  18
ATOM     18  C   UNL     1       4.118   2.550  19.905  0.00  0.00    +0.000 C 
BRANCH  18  19
ATOM     19  N   UNL     1       2.788   2.748  20.516  0.00  0.00    +0.000 NA
ATOM     20  H   UNL     1       2.795   3.598  21.077  0.00  0.00    +0.000 HD
BRANCH  19  21
ATOM     21  C   UNL     1       1.778   2.855  19.457  0.00  0.00    +0.000 C 
BRANCH  21  22
ATOM     22  C   UNL     1       1.293   4.294  19.296  0.00  0.00    +0.000 C 
BRANCH  22  23
ATOM     23  C   UNL     1       1.711   5.137  20.507  0.00  0.00    +0.000 C 
BRANCH  23  24
ATOM     24  C   UNL     1       2.785   6.157  20.129  0.00  0.00    +0.000 C 
BRANCH  24  25
ATOM     25  C   UNL     1       2.187   7.435  19.599  0.00  0.00    +0.000 A 
ATOM     26  C   UNL     1       1.433   8.263  20.445  0.00  0.00    +0.000 A 
ATOM     27  C   UNL     1       0.878   9.448  19.963  0.00  0.00    +0.000 A 
ATOM     28  C   UNL     1       1.064   9.815  18.633  0.00  0.00    +0.000 A 
ATOM     29  C   UNL     1       1.803   8.998  17.778  0.00  0.00    +0.000 A 
ATOM     30  C   UNL     1       2.360   7.809  18.260  0.00  0.00    +0.000 A 
ENDBRANCH  24  25
ENDBRANCH  23  24
ENDBRANCH  22  23
ENDBRANCH  21  22
ENDBRANCH  19  21
ENDBRANCH  18  19
ENDBRANCH   1  18
TORSDOF 10
ENDMDL
MODEL 3
REMARK VINA RESULT:      -7.9      1.290      2.888
REMARK  Name = 
REMARK  10 active torsions:
REMARK  status: ('A' for Active; 'I' for Inactive)
REMARK    1  A    between atoms: C_8  and  O_9
REMARK    2  A    between atoms: C_11  and  C_12
REMARK    3  A    between atoms: C_12  and  O_13
REMARK    4  A    between atoms: C_12  and  C_14
REMARK    5  A    between atoms: C_14  and  N_15
REMARK    6  A    between atoms: N_15  and  C_16
REMARK    7  A    between atoms: C_16  and  C_17
REMARK    8  A    between atoms: C_17  and  C_18
REMARK    9  A    between atoms: C_18  and  C_19
REMARK   10  A    between atoms: C_19  and  C_20
REMARK                            x       y       z     vdW  Elec       q    Type
REMARK                         _______ _______ _______ _____ _____    ______ ____
ROOT
ATOM      1  C   UNL     1       4.407   2.809  17.541  0.00  0.00    +0.000 C 
ENDROOT
BRANCH   1  11
ATOM      2  O   UNL     1       8.016   8.056  18.123  0.00  0.00    +0.000 OA
ATOM      3  C   UNL     1       7.561   6.965  17.792  0.00  0.00    +0.000 C 
ATOM      4  C   UNL     1       7.046   5.923  18.776  0.00  0.00    +0.000 C 
ATOM      5  O   UNL     1       5.971   5.109  18.327  0.00  0.00    +0.000 OA
ATOM      6  C   UNL     1       6.102   4.682  17.028  0.00  0.00    +0.000 A 
ATOM      7  C   UNL     1       6.894   5.379  16.099  0.00  0.00    +0.000 A 
ATOM      8  C   UNL     1       6.968   4.965  14.771  0.00  0.00    +0.000 A 
ATOM      9  C   UNL     1       6.220   3.867  14.369  0.00  0.00    +0.000 A 
ATOM     10  C   UNL     1       5.409   3.183  15.270  0.00  0.00    +0.000 A 
ATOM     11  C   UNL     1       5.338   3.576  16.619  0.00  0.00    +0.000 A 
ATOM     12  N   UNL     1       7.559   6.546  16.488  0.00  0.00    +0.000 N 
ATOM     13  H   UNL     1       7.990   7.159  15.809  0.00  0.00    +0.000 HD
BRANCH   9  14
ATOM     14  O   UNL     1       6.233   3.426  13.079  0.00  0.00    +0.000 OA
ATOM     15  H   UNL     1       7.081   2.985  12.900  0.00  0.00    +0.000 HD
ENDBRANCH   9  14
ENDBRANCH   1  11
BRANCH   1  16
ATOM     16  O   UNL     1       4.760   2.958  18.915  0.00  0.00    +0.000 OA
ATOM     17  H   UNL     1       3.938   3.270  19.343  0.00  0.00    +0.000 HD
ENDBRANCH   1  16
BRANCH   1  18
ATOM     18  C   UNL     1       2.909   3.158  17.331  0.00  0.00    +0.000 C 
BRANCH  18  19
ATOM     19  N   UNL     1       1.960   2.088  17.700  0.00  0.00    +0.000 NA
ATOM     20  H   UNL     1       2.467   1.324  18.146  0.00  0.00    +0.000 HD
BRANCH  19  21
ATOM     21  C   UNL     1       0.955   2.627  18.623  0.00  0.00    +0.000 C 
BRANCH  21  22
ATOM     22  C   UNL     1       1.486   2.682  20.053  0.00  0.00    +0.000 C 
BRANCH  22  23
ATOM     23  C   UNL     1       1.053   3.986  20.735  0.00  0.00    +0.000 C 
BRANCH  23  24
ATOM     24  C   UNL     1       2.246   4.914  20.963  0.00  0.00    +0.000 C 
BRANCH  24  25
ATOM     25  C   UNL     1       2.156   6.164  20.125  0.00  0.00    +0.000 A 
ATOM     26  C   UNL     1       2.651   6.169  18.813  0.00  0.00    +0.000 A 
ATOM     27  C   UNL     1       2.571   7.321  18.031  0.00  0.00    +0.000 A 
ATOM     28  C   UNL     1       2.002   8.480  18.553  0.00  0.00    +0.000 A 
ATOM     29  C   UNL     1       1.515   8.493  19.859  0.00  0.00    +0.000 A 
ATOM     30  C   UNL     1       1.595   7.339  20.645  0.00  0.00    +0.000 A 
ENDBRANCH  24  25
ENDBRANCH  23  24
ENDBRANCH  22  23
ENDBRANCH  21  22
ENDBRANCH  19  21
ENDBRANCH  18  19
ENDBRANCH   1  18
TORSDOF 10
ENDMDL
MODEL 4
REMARK VINA RESULT:      -7.5      1.424      2.321
REMARK  Name = 
REMARK  10 active torsions:
REMARK  status: ('A' for Active; 'I' for Inactive)
REMARK    1  A    between atoms: C_8  and  O_9
REMARK    2  A    between atoms: C_11  and  C_12
REMARK    3  A    between atoms: C_12  and  O_13
REMARK    4  A    between atoms: C_12  and  C_14
REMARK    5  A    between atoms: C_14  and  N_15
REMARK    6  A    between atoms: N_15  and  C_16
REMARK    7  A    between atoms: C_16  and  C_17
REMARK    8  A    between atoms: C_17  and  C_18
REMARK    9  A    between atoms: C_18  and  C_19
REMARK   10  A    between atoms: C_19  and  C_20
REMARK                            x       y       z     vdW  Elec       q    Type
REMARK                         _______ _______ _______ _____ _____    ______ ____
ROOT
ATOM      1  C   UNL     1       3.836   3.452  18.154  0.00  0.00    +0.000 C 
ENDROOT
BRANCH   1  11
ATOM      2  O   UNL     1       7.566   5.147  13.245  0.00  0.00    +0.000 OA
ATOM      3  C   UNL     1       6.970   5.105  14.318  0.00  0.00    +0.000 C 
ATOM      4  C   UNL     1       5.488   4.788  14.457  0.00  0.00    +0.000 C 
ATOM      5  O   UNL     1       5.099   4.096  15.636  0.00  0.00    +0.000 OA
ATOM      6  C   UNL     1       5.716   4.551  16.776  0.00  0.00    +0.000 A 
ATOM      7  C   UNL     1       6.948   5.227  16.728  0.00  0.00    +0.000 A 
ATOM      8  C   UNL     1       7.587   5.629  17.899  0.00  0.00    +0.000 A 
ATOM      9  C   UNL     1       7.002   5.323  19.121  0.00  0.00    +0.000 A 
ATOM     10  C   UNL     1       5.797   4.631  19.185  0.00  0.00    +0.000 A 
ATOM     11  C   UNL     1       5.129   4.235  18.013  0.00  0.00    +0.000 A 
ATOM     12  N   UNL     1       7.582   5.433  15.499  0.00  0.00    +0.000 N 
ATOM     13  H   UNL     1       8.538   5.756  15.446  0.00  0.00    +0.000 HD
BRANCH   9  14
ATOM     14  O   UNL     1       7.590   5.671  20.301  0.00  0.00    +0.000 OA
ATOM     15  H   UNL     1       6.940   5.586  21.020  0.00  0.00    +0.000 HD
ENDBRANCH   9  14
ENDBRANCH   1  11
BRANCH   1  16
ATOM     16  O   UNL     1       4.035   2.047  18.014  0.00  0.00    +0.000 OA
ATOM     17  H   UNL     1       3.835   1.684  18.901  0.00  0.00    +0.000 HD
ENDBRANCH   1  16
BRANCH   1  18
ATOM     18  C   UNL     1       3.073   3.757  19.471  0.00  0.00    +0.000 C 
BRANCH  18  19
ATOM     19  N   UNL     1       1.961   4.720  19.340  0.00  0.00    +0.000 NA
ATOM     20  H   UNL     1       1.192   4.437  19.947  0.00  0.00    +0.000 HD
BRANCH  19  21
ATOM     21  C   UNL     1       2.429   6.059  19.718  0.00  0.00    +0.000 C 
BRANCH  21  22
ATOM     22  C   UNL     1       2.468   6.995  18.512  0.00  0.00    +0.000 C 
BRANCH  22  23
ATOM     23  C   UNL     1       2.038   8.409  18.920  0.00  0.00    +0.000 C 
BRANCH  23  24
ATOM     24  C   UNL     1       1.261   9.097  17.797  0.00  0.00    +0.000 C 
BRANCH  24  25
ATOM     25  C   UNL     1       0.161   9.978  18.330  0.00  0.00    +0.000 A 
ATOM     26  C   UNL     1      -1.072  10.046  17.664  0.00  0.00    +0.000 A 
ATOM     27  C   UNL     1      -2.095  10.859  18.152  0.00  0.00    +0.000 A 
ATOM     28  C   UNL     1      -1.896  11.616  19.303  0.00  0.00    +0.000 A 
ATOM     29  C   UNL     1      -0.672  11.567  19.969  0.00  0.00    +0.000 A 
ATOM     30  C   UNL     1       0.355  10.753  19.482  0.00  0.00    +0.000 A 
ENDBRANCH  24  25
ENDBRANCH  23  24
ENDBRANCH  22  23
ENDBRANCH  21  22
ENDBRANCH  19  21
ENDBRANCH  18  19
ENDBRANCH   1  18
TORSDOF 10
ENDMDL
MODEL 5
REMARK VINA RESULT:      -7.5      3.889      6.851
REMARK  Name = 
REMARK  10 active torsions:
REMARK  status: ('A' for Active; 'I' for Inactive)
REMARK    1  A    between atoms: C_8  and  O_9
REMARK    2  A    between atoms: C_11  and  C_12
REMARK    3  A    between atoms: C_12  and  O_13
REMARK    4  A    between atoms: C_12  and  C_14
REMARK    5  A    between atoms: C_14  and  N_15
REMARK    6  A    between atoms: N_15  and  C_16
REMARK    7  A    between atoms: C_16  and  C_17
REMARK    8  A    between atoms: C_17  and  C_18
REMARK    9  A    between atoms: C_18  and  C_19
REMARK   10  A    between atoms: C_19  and  C_20
REMARK                            x       y       z     vdW  Elec       q    Type
REMARK                         _______ _______ _______ _____ _____    ______ ____
ROOT
ATOM      1  C   UNL     1       5.246   4.005  17.367  0.00  0.00    +0.000 C 
ENDROOT
BRANCH   1  11
ATOM      2  O   UNL     1       1.342   2.529  22.212  0.00  0.00    +0.000 OA
ATOM      3  C   UNL     1       2.079   3.114  21.423  0.00  0.00    +0.000 C 
ATOM      4  C   UNL     1       3.415   2.568  20.941  0.00  0.00    +0.000 C 
ATOM      5  O   UNL     1       3.795   2.912  19.615  0.00  0.00    +0.000 OA
ATOM      6  C   UNL     1       3.536   4.220  19.284  0.00  0.00    +0.000 A 
ATOM      7  C   UNL     1       2.552   4.968  19.952  0.00  0.00    +0.000 A 
ATOM      8  C   UNL     1       2.262   6.274  19.564  0.00  0.00    +0.000 A 
ATOM      9  C   UNL     1       2.942   6.818  18.482  0.00  0.00    +0.000 A 
ATOM     10  C   UNL     1       3.899   6.080  17.793  0.00  0.00    +0.000 A 
ATOM     11  C   UNL     1       4.218   4.767  18.184  0.00  0.00    +0.000 A 
ATOM     12  N   UNL     1       1.797   4.376  20.969  0.00  0.00    +0.000 N 
ATOM     13  H   UNL     1       0.974   4.826  21.347  0.00  0.00    +0.000 HD
BRANCH   9  14
ATOM     14  O   UNL     1       2.688   8.083  18.040  0.00  0.00    +0.000 OA
ATOM     15  H   UNL     1       2.594   8.676  18.805  0.00  0.00    +0.000 HD
ENDBRANCH   9  14
ENDBRANCH   1  11
BRANCH   1  16
ATOM     16  O   UNL     1       4.732   2.776  16.858  0.00  0.00    +0.000 OA
ATOM     17  H   UNL     1       5.525   2.219  16.723  0.00  0.00    +0.000 HD
ENDBRANCH   1  16
BRANCH   1  18
ATOM     18  C   UNL     1       5.864   4.846  16.218  0.00  0.00    +0.000 C 
BRANCH  18  19
ATOM     19  N   UNL     1       7.265   5.262  16.431  0.00  0.00    +0.000 NA
ATOM     20  H   UNL     1       7.808   5.067  15.591  0.00  0.00    +0.000 HD
BRANCH  19  21
ATOM     21  C   UNL     1       7.306   6.697  16.733  0.00  0.00    +0.000 C 
BRANCH  21  22
ATOM     22  C   UNL     1       7.492   6.946  18.228  0.00  0.00    +0.000 C 
BRANCH  22  23
ATOM     23  C   UNL     1       8.548   8.033  18.461  0.00  0.00    +0.000 C 
BRANCH  23  24
ATOM     24  C   UNL     1       8.078   9.386  17.928  0.00  0.00    +0.000 C 
BRANCH  24  25
ATOM     25  C   UNL     1       8.880  10.527  18.499  0.00  0.00    +0.000 A 
ATOM     26  C   UNL     1       8.910  11.765  17.840  0.00  0.00    +0.000 A 
ATOM     27  C   UNL     1       9.649  12.826  18.362  0.00  0.00    +0.000 A 
ATOM     28  C   UNL     1      10.371  12.660  19.541  0.00  0.00    +0.000 A 
ATOM     29  C   UNL     1      10.358  11.432  20.202  0.00  0.00    +0.000 A 
ATOM     30  C   UNL     1       9.618  10.367  19.679  0.00  0.00    +0.000 A 
ENDBRANCH  24  25
ENDBRANCH  23  24
ENDBRANCH  22  23
ENDBRANCH  21  22
ENDBRANCH  19  21
ENDBRANCH  18  19
ENDBRANCH   1  18
TORSDOF 10
ENDMDL
MODEL 6
REMARK VINA RESULT:      -7.4      4.018      6.717
REMARK  Name = 
REMARK  10 active torsions:
REMARK  status: ('A' for Active; 'I' for Inactive)
REMARK    1  A    between atoms: C_8  and  O_9
REMARK    2  A    between atoms: C_11  and  C_12
REMARK    3  A    between atoms: C_12  and  O_13
REMARK    4  A    between atoms: C_12  and  C_14
REMARK    5  A    between atoms: C_14  and  N_15
REMARK    6  A    between atoms: N_15  and  C_16
REMARK    7  A    between atoms: C_16  and  C_17
REMARK    8  A    between atoms: C_17  and  C_18
REMARK    9  A    between atoms: C_18  and  C_19
REMARK   10  A    between atoms: C_19  and  C_20
REMARK                            x       y       z     vdW  Elec       q    Type
REMARK                         _______ _______ _______ _____ _____    ______ ____
ROOT
ATOM      1  C   UNL     1       5.678   4.809  16.005  0.00  0.00    +0.000 C 
ENDROOT
BRANCH   1  11
ATOM      2  O   UNL     1       1.914   8.000  20.073  0.00  0.00    +0.000 OA
ATOM      3  C   UNL     1       2.379   7.175  19.291  0.00  0.00    +0.000 C 
ATOM      4  C   UNL     1       3.055   7.534  17.975  0.00  0.00    +0.000 C 
ATOM      5  O   UNL     1       4.108   6.677  17.553  0.00  0.00    +0.000 OA
ATOM      6  C   UNL     1       3.846   5.342  17.738  0.00  0.00    +0.000 A 
ATOM      7  C   UNL     1       2.917   4.899  18.696  0.00  0.00    +0.000 A 
ATOM      8  C   UNL     1       2.708   3.538  18.911  0.00  0.00    +0.000 A 
ATOM      9  C   UNL     1       3.456   2.622  18.183  0.00  0.00    +0.000 A 
ATOM     10  C   UNL     1       4.398   3.045  17.252  0.00  0.00    +0.000 A 
ATOM     11  C   UNL     1       4.609   4.414  17.009  0.00  0.00    +0.000 A 
ATOM     12  N   UNL     1       2.248   5.827  19.499  0.00  0.00    +0.000 N 
ATOM     13  H   UNL     1       1.711   5.538  20.305  0.00  0.00    +0.000 HD
BRANCH   9  14
ATOM     14  O   UNL     1       3.312   1.278  18.363  0.00  0.00    +0.000 OA
ATOM     15  H   UNL     1       2.380   1.034  18.225  0.00  0.00    +0.000 HD
ENDBRANCH   9  14
ENDBRANCH   1  11
BRANCH   1  16
ATOM     16  O   UNL     1       5.258   5.874  15.156  0.00  0.00    +0.000 OA
ATOM     17  H   UNL     1       4.390   6.145  15.518  0.00  0.00    +0.000 HD
ENDBRANCH   1  16
BRANCH   1  18
ATOM     18  C   UNL     1       7.041   5.152  16.662  0.00  0.00    +0.000 C 
BRANCH  18  19
ATOM     19  N   UNL     1       6.982   5.442  18.109  0.00  0.00    +0.000 NA
ATOM     20  H   UNL     1       7.408   4.675  18.628  0.00  0.00    +0.000 HD
BRANCH  19  21
ATOM     21  C   UNL     1       7.701   6.692  18.384  0.00  0.00    +0.000 C 
BRANCH  21  22
ATOM     22  C   UNL     1       7.317   7.784  17.389  0.00  0.00    +0.000 C 
BRANCH  22  23
ATOM     23  C   UNL     1       8.232   9.004  17.555  0.00  0.00    +0.000 C 
BRANCH  23  24
ATOM     24  C   UNL     1       8.732   9.129  18.994  0.00  0.00    +0.000 C 
BRANCH  24  25
ATOM     25  C   UNL     1       9.471  10.423  19.223  0.00  0.00    +0.000 A 
ATOM     26  C   UNL     1       9.942  11.168  18.132  0.00  0.00    +0.000 A 
ATOM     27  C   UNL     1      10.625  12.366  18.335  0.00  0.00    +0.000 A 
ATOM     28  C   UNL     1      10.851  12.829  19.629  0.00  0.00    +0.000 A 
ATOM     29  C   UNL     1      10.398  12.094  20.724  0.00  0.00    +0.000 A 
ATOM     30  C   UNL     1       9.713  10.892  20.521  0.00  0.00    +0.000 A 
ENDBRANCH  24  25
ENDBRANCH  23  24
ENDBRANCH  22  23
ENDBRANCH  21  22
ENDBRANCH  19  21
ENDBRANCH  18  19
ENDBRANCH   1  18
TORSDOF 10
ENDMDL
MODEL 7
REMARK VINA RESULT:      -7.3      4.535      7.234
REMARK  Name = 
REMARK  10 active torsions:
REMARK  status: ('A' for Active; 'I' for Inactive)
REMARK    1  A    between atoms: C_8  and  O_9
REMARK    2  A    between atoms: C_11  and  C_12
REMARK    3  A    between atoms: C_12  and  O_13
REMARK    4  A    between atoms: C_12  and  C_14
REMARK    5  A    between atoms: C_14  and  N_15
REMARK    6  A    between atoms: N_15  and  C_16
REMARK    7  A    between atoms: C_16  and  C_17
REMARK    8  A    between atoms: C_17  and  C_18
REMARK    9  A    between atoms: C_18  and  C_19
REMARK   10  A    between atoms: C_19  and  C_20
REMARK                            x       y       z     vdW  Elec       q    Type
REMARK                         _______ _______ _______ _____ _____    ______ ____
ROOT
ATOM      1  C   UNL     1       6.011   4.466  18.087  0.00  0.00    +0.000 C 
ENDROOT
BRANCH   1  11
ATOM      2  O   UNL     1       0.191   1.849  18.495  0.00  0.00    +0.000 OA
ATOM      3  C   UNL     1       1.159   2.599  18.584  0.00  0.00    +0.000 C 
ATOM      4  C   UNL     1       2.552   2.146  19.001  0.00  0.00    +0.000 C 
ATOM      5  O   UNL     1       3.643   2.843  18.414  0.00  0.00    +0.000 OA
ATOM      6  C   UNL     1       3.460   4.202  18.341  0.00  0.00    +0.000 A 
ATOM      7  C   UNL     1       2.176   4.774  18.341  0.00  0.00    +0.000 A 
ATOM      8  C   UNL     1       2.008   6.151  18.206  0.00  0.00    +0.000 A 
ATOM      9  C   UNL     1       3.132   6.950  18.041  0.00  0.00    +0.000 A 
ATOM     10  C   UNL     1       4.407   6.396  18.011  0.00  0.00    +0.000 A 
ATOM     11  C   UNL     1       4.596   5.010  18.165  0.00  0.00    +0.000 A 
ATOM     12  N   UNL     1       1.047   3.952  18.398  0.00  0.00    +0.000 N 
ATOM     13  H   UNL     1       0.120   4.315  18.227  0.00  0.00    +0.000 HD
BRANCH   9  14
ATOM     14  O   UNL     1       3.031   8.301  17.883  0.00  0.00    +0.000 OA
ATOM     15  H   UNL     1       3.754   8.735  18.369  0.00  0.00    +0.000 HD
ENDBRANCH   9  14
ENDBRANCH   1  11
BRANCH   1  16
ATOM     16  O   UNL     1       6.294   3.867  16.825  0.00  0.00    +0.000 OA
ATOM     17  H   UNL     1       7.051   4.379  16.477  0.00  0.00    +0.000 HD
ENDBRANCH   1  16
BRANCH   1  18
ATOM     18  C   UNL     1       7.095   5.521  18.435  0.00  0.00    +0.000 C 
BRANCH  18  19
ATOM     19  N   UNL     1       7.751   6.151  17.271  0.00  0.00    +0.000 NA
ATOM     20  H   UNL     1       7.372   5.754  16.412  0.00  0.00    +0.000 HD
BRANCH  19  21
ATOM     21  C   UNL     1       7.511   7.599  17.302  0.00  0.00    +0.000 C 
BRANCH  21  22
ATOM     22  C   UNL     1       8.388   8.285  18.346  0.00  0.00    +0.000 C 
BRANCH  22  23
ATOM     23  C   UNL     1       8.385   9.804  18.132  0.00  0.00    +0.000 C 
BRANCH  23  24
ATOM     24  C   UNL     1       9.360  10.499  19.081  0.00  0.00    +0.000 C 
BRANCH  24  25
ATOM     25  C   UNL     1       9.980  11.723  18.456  0.00  0.00    +0.000 A 
ATOM     26  C   UNL     1      11.294  11.675  17.967  0.00  0.00    +0.000 A 
ATOM     27  C   UNL     1      11.874  12.803  17.387  0.00  0.00    +0.000 A 
ATOM     28  C   UNL     1      11.151  13.989  17.294  0.00  0.00    +0.000 A 
ATOM     29  C   UNL     1       9.848  14.054  17.784  0.00  0.00    +0.000 A 
ATOM     30  C   UNL     1       9.265  12.924  18.367  0.00  0.00    +0.000 A 
ENDBRANCH  24  25
ENDBRANCH  23  24
ENDBRANCH  22  23
ENDBRANCH  21  22
ENDBRANCH  19  21
ENDBRANCH  18  19
ENDBRANCH   1  18
TORSDOF 10
ENDMDL
MODEL 8
REMARK VINA RESULT:      -7.3      5.122      7.289
REMARK  Name = 
REMARK  10 active torsions:
REMARK  status: ('A' for Active; 'I' for Inactive)
REMARK    1  A    between atoms: C_8  and  O_9
REMARK    2  A    between atoms: C_11  and  C_12
REMARK    3  A    between atoms: C_12  and  O_13
REMARK    4  A    between atoms: C_12  and  C_14
REMARK    5  A    between atoms: C_14  and  N_15
REMARK    6  A    between atoms: N_15  and  C_16
REMARK    7  A    between atoms: C_16  and  C_17
REMARK    8  A    between atoms: C_17  and  C_18
REMARK    9  A    between atoms: C_18  and  C_19
REMARK   10  A    between atoms: C_19  and  C_20
REMARK                            x       y       z     vdW  Elec       q    Type
REMARK                         _______ _______ _______ _____ _____    ______ ____
ROOT
ATOM      1  C   UNL     1       5.880   5.608  16.383  0.00  0.00    +0.000 C 
ENDROOT
BRANCH   1  11
ATOM      2  O   UNL     1       1.495   8.439  20.077  0.00  0.00    +0.000 OA
ATOM      3  C   UNL     1       2.163   7.622  19.450  0.00  0.00    +0.000 C 
ATOM      4  C   UNL     1       2.616   7.818  18.009  0.00  0.00    +0.000 C 
ATOM      5  O   UNL     1       3.868   7.244  17.658  0.00  0.00    +0.000 OA
ATOM      6  C   UNL     1       4.066   5.987  18.175  0.00  0.00    +0.000 A 
ATOM      7  C   UNL     1       3.384   5.544  19.322  0.00  0.00    +0.000 A 
ATOM      8  C   UNL     1       3.643   4.288  19.866  0.00  0.00    +0.000 A 
ATOM      9  C   UNL     1       4.611   3.488  19.274  0.00  0.00    +0.000 A 
ATOM     10  C   UNL     1       5.314   3.923  18.155  0.00  0.00    +0.000 A 
ATOM     11  C   UNL     1       5.052   5.180  17.581  0.00  0.00    +0.000 A 
ATOM     12  N   UNL     1       2.491   6.399  19.974  0.00  0.00    +0.000 N 
ATOM     13  H   UNL     1       2.120   6.178  20.888  0.00  0.00    +0.000 HD
BRANCH   9  14
ATOM     14  O   UNL     1       4.924   2.258  19.772  0.00  0.00    +0.000 OA
ATOM     15  H   UNL     1       4.110   1.735  19.869  0.00  0.00    +0.000 HD
ENDBRANCH   9  14
ENDBRANCH   1  11
BRANCH   1  16
ATOM     16  O   UNL     1       5.145   6.435  15.483  0.00  0.00    +0.000 OA
ATOM     17  H   UNL     1       5.683   7.249  15.408  0.00  0.00    +0.000 HD
ENDBRANCH   1  16
BRANCH   1  18
ATOM     18  C   UNL     1       7.217   6.295  16.773  0.00  0.00    +0.000 C 
BRANCH  18  19
ATOM     19  N   UNL     1       7.103   7.721  17.139  0.00  0.00    +0.000 NA
ATOM     20  H   UNL     1       6.207   7.884  17.597  0.00  0.00    +0.000 HD
BRANCH  19  21
ATOM     21  C   UNL     1       8.200   8.080  18.045  0.00  0.00    +0.000 C 
BRANCH  21  22
ATOM     22  C   UNL     1       8.454   9.586  18.041  0.00  0.00    +0.000 C 
BRANCH  22  23
ATOM     23  C   UNL     1       9.101  10.022  19.361  0.00  0.00    +0.000 C 
BRANCH  23  24
ATOM     24  C   UNL     1      10.255  10.993  19.118  0.00  0.00    +0.000 C 
BRANCH  24  25
ATOM     25  C   UNL     1      10.182  12.196  20.024  0.00  0.00    +0.000 A 
ATOM     26  C   UNL     1      10.867  13.373  19.689  0.00  0.00    +0.000 A 
ATOM     27  C   UNL     1      10.804  14.490  20.522  0.00  0.00    +0.000 A 
ATOM     28  C   UNL     1      10.061  14.441  21.698  0.00  0.00    +0.000 A 
ATOM     29  C   UNL     1       9.382  13.274  22.049  0.00  0.00    +0.000 A 
ATOM     30  C   UNL     1       9.445  12.153  21.215  0.00  0.00    +0.000 A 
ENDBRANCH  24  25
ENDBRANCH  23  24
ENDBRANCH  22  23
ENDBRANCH  21  22
ENDBRANCH  19  21
ENDBRANCH  18  19
ENDBRANCH   1  18
TORSDOF 10
ENDMDL
MODEL 9
REMARK VINA RESULT:      -7.3      4.518      7.382
REMARK  Name = 
REMARK  10 active torsions:
REMARK  status: ('A' for Active; 'I' for Inactive)
REMARK    1  A    between atoms: C_8  and  O_9
REMARK    2  A    between atoms: C_11  and  C_12
REMARK    3  A    between atoms: C_12  and  O_13
REMARK    4  A    between atoms: C_12  and  C_14
REMARK    5  A    between atoms: C_14  and  N_15
REMARK    6  A    between atoms: N_15  and  C_16
REMARK    7  A    between atoms: C_16  and  C_17
REMARK    8  A    between atoms: C_17  and  C_18
REMARK    9  A    between atoms: C_18  and  C_19
REMARK   10  A    between atoms: C_19  and  C_20
REMARK                            x       y       z     vdW  Elec       q    Type
REMARK                         _______ _______ _______ _____ _____    ______ ____
ROOT
ATOM      1  C   UNL     1       5.381   4.990  16.791  0.00  0.00    +0.000 C 
ENDROOT
BRANCH   1  11
ATOM      2  O   UNL     1       2.131   2.305  21.599  0.00  0.00    +0.000 OA
ATOM      3  C   UNL     1       2.709   3.096  20.859  0.00  0.00    +0.000 C 
ATOM      4  C   UNL     1       4.070   2.834  20.229  0.00  0.00    +0.000 C 
ATOM      5  O   UNL     1       4.289   3.401  18.944  0.00  0.00    +0.000 OA
ATOM      6  C   UNL     1       3.814   4.684  18.815  0.00  0.00    +0.000 A 
ATOM      7  C   UNL     1       2.785   5.175  19.637  0.00  0.00    +0.000 A 
ATOM      8  C   UNL     1       2.276   6.459  19.452  0.00  0.00    +0.000 A 
ATOM      9  C   UNL     1       2.780   7.238  18.419  0.00  0.00    +0.000 A 
ATOM     10  C   UNL     1       3.779   6.755  17.580  0.00  0.00    +0.000 A 
ATOM     11  C   UNL     1       4.318   5.469  17.765  0.00  0.00    +0.000 A 
ATOM     12  N   UNL     1       2.209   4.345  20.603  0.00  0.00    +0.000 N 
ATOM     13  H   UNL     1       1.361   4.607  21.086  0.00  0.00    +0.000 HD
BRANCH   9  14
ATOM     14  O   UNL     1       2.308   8.493  18.175  0.00  0.00    +0.000 OA
ATOM     15  H   UNL     1       2.019   8.896  19.011  0.00  0.00    +0.000 HD
ENDBRANCH   9  14
ENDBRANCH   1  11
BRANCH   1  16
ATOM     16  O   UNL     1       5.184   5.506  15.477  0.00  0.00    +0.000 OA
ATOM     17  H   UNL     1       5.683   6.348  15.470  0.00  0.00    +0.000 HD
ENDBRANCH   1  16
BRANCH   1  18
ATOM     18  C   UNL     1       6.829   5.280  17.271  0.00  0.00    +0.000 C 
BRANCH  18  19
ATOM     19  N   UNL     1       7.494   6.416  16.601  0.00  0.00    +0.000 NA
ATOM     20  H   UNL     1       7.181   6.469  15.632  0.00  0.00    +0.000 HD
BRANCH  19  21
ATOM     21  C   UNL     1       7.158   7.659  17.304  0.00  0.00    +0.000 C 
BRANCH  21  22
ATOM     22  C   UNL     1       8.288   8.092  18.236  0.00  0.00    +0.000 C 
BRANCH  22  23
ATOM     23  C   UNL     1       8.511   9.606  18.137  0.00  0.00    +0.000 C 
BRANCH  23  24
ATOM     24  C   UNL     1       9.339  10.122  19.314  0.00  0.00    +0.000 C 
BRANCH  24  25
ATOM     25  C   UNL     1      10.038  11.417  18.988  0.00  0.00    +0.000 A 
ATOM     26  C   UNL     1       9.955  12.503  19.872  0.00  0.00    +0.000 A 
ATOM     27  C   UNL     1      10.599  13.705  19.578  0.00  0.00    +0.000 A 
ATOM     28  C   UNL     1      11.326  13.835  18.398  0.00  0.00    +0.000 A 
ATOM     29  C   UNL     1      11.409  12.767  17.505  0.00  0.00    +0.000 A 
ATOM     30  C   UNL     1      10.763  11.562  17.798  0.00  0.00    +0.000 A 
ENDBRANCH  24  25
ENDBRANCH  23  24
ENDBRANCH  22  23
ENDBRANCH  21  22
ENDBRANCH  19  21
ENDBRANCH  18  19
ENDBRANCH   1  18
TORSDOF 10
ENDMDL
