MODEL 1
REMARK VINA RESULT:      -7.4      0.000      0.000
REMARK  Name = 
REMARK  14 active torsions:
REMARK  status: ('A' for Active; 'I' for Inactive)
REMARK    1  A    between atoms: C_1  and  C_2
REMARK    2  A    between atoms: C_2  and  N_3
REMARK    3  A    between atoms: C_4  and  C_6
REMARK    4  A    between atoms: C_9  and  C_10
REMARK    5  A    between atoms: C_12  and  C_13
REMARK    6  A    between atoms: C_13  and  C_14
REMARK    7  A    between atoms: C_13  and  C_15
REMARK    8  A    between atoms: C_16  and  O_17
REMARK    9  A    between atoms: C_19  and  O_20
REMARK   10  A    between atoms: C_21  and  C_22
REMARK   11  A    between atoms: C_24  and  C_25
REMARK   12  A    between atoms: C_25  and  O_26
REMARK   13  A    between atoms: O_26  and  S_27
REMARK   14  A    between atoms: S_27  and  C_28
REMARK                            x       y       z     vdW  Elec       q    Type
REMARK                         _______ _______ _______ _____ _____    ______ ____
ROOT
ATOM      1  C   UNL     1       2.825   2.950  18.250  0.00  0.00    +0.000 A 
ATOM      2  N   UNL     1       3.305   1.801  17.746  0.00  0.00    +0.000 NA
ATOM      3  O   UNL     1       4.335   2.165  16.898  0.00  0.00    +0.000 OA
ATOM      4  C   UNL     1       4.462   3.526  16.855  0.00  0.00    +0.000 A 
ATOM      5  C   UNL     1       3.504   4.066  17.689  0.00  0.00    +0.000 A 
ENDROOT
BRANCH   4   6
ATOM      6  C   UNL     1       5.451   4.043  15.905  0.00  0.00    +0.000 A 
ATOM      7  C   UNL     1       5.364   3.697  14.538  0.00  0.00    +0.000 A 
ATOM      8  C   UNL     1       6.242   4.195  13.553  0.00  0.00    +0.000 A 
ATOM      9  C   UNL     1       7.291   5.008  14.002  0.00  0.00    +0.000 A 
ATOM     10  C   UNL     1       7.432   5.333  15.356  0.00  0.00    +0.000 A 
ATOM     11  C   UNL     1       6.511   4.868  16.293  0.00  0.00    +0.000 A 
BRANCH   8  12
ATOM     12  C   UNL     1       6.049   3.793  12.091  0.00  0.00    +0.000 C 
ATOM     13  C   UNL     1       7.021   2.674  11.708  0.00  0.00    +0.000 C 
ATOM     14  C   UNL     1       4.619   3.364  11.716  0.00  0.00    +0.000 C 
ENDBRANCH   8  12
BRANCH   9  15
ATOM     15  O   UNL     1       8.254   5.535  13.189  0.00  0.00    +0.000 OA
ATOM     16  H   UNL     1       9.121   5.469  13.615  0.00  0.00    +0.000 HD
ENDBRANCH   9  15
BRANCH  11  17
ATOM     17  O   UNL     1       6.649   5.239  17.604  0.00  0.00    +0.000 OA
ATOM     18  H   UNL     1       6.118   4.650  18.165  0.00  0.00    +0.000 HD
ENDBRANCH  11  17
ENDBRANCH   4   6
BRANCH   5  19
ATOM     19  C   UNL     1       3.245   5.510  17.896  0.00  0.00    +0.000 A 
ATOM     20  C   UNL     1       2.362   6.076  18.787  0.00  0.00    +0.000 A 
ATOM     21  C   UNL     1       2.493   7.465  18.601  0.00  0.00    +0.000 A 
ATOM     22  N   UNL     1       3.365   7.743  17.625  0.00  0.00    +0.000 NA
ATOM     23  O   UNL     1       3.828   6.518  17.182  0.00  0.00    +0.000 OA
BRANCH  21  24
ATOM     24  C   UNL     1       1.809   8.550  19.351  0.00  0.00    +0.000 C 
BRANCH  24  25
ATOM     25  O   UNL     1       1.360   8.103  20.619  0.00  0.00    +0.000 OA
BRANCH  25  26
ATOM     26  S   UNL     1       0.328   9.084  21.387  0.00  0.00    +0.000 S 
ATOM     27  C   UNL     1      -0.275   9.941  19.948  0.00  0.00    +0.000 C 
ATOM     28  O   UNL     1      -0.747   8.284  21.933  0.00  0.00    +0.000 OA
ATOM     29  O   UNL     1       1.084  10.013  22.201  0.00  0.00    +0.000 OA
ENDBRANCH  25  26
ENDBRANCH  24  25
ENDBRANCH  21  24
ENDBRANCH   5  19
BRANCH   1  31
ATOM     30  N   UNL     1       2.174   3.268  20.530  0.00  0.00    +0.000 N 
ATOM     31  C   UNL     1       1.760   2.944  19.257  0.00  0.00    +0.000 C 
ATOM     32  O   UNL     1       0.600   2.633  19.001  0.00  0.00    +0.000 OA
ATOM     33  H   UNL     1       3.131   3.591  20.644  0.00  0.00    +0.000 HD
BRANCH  30  35
ATOM     34  C   UNL     1       1.387   1.969  22.455  0.00  0.00    +0.000 C 
ATOM     35  C   UNL     1       1.270   3.253  21.657  0.00  0.00    +0.000 C 
ENDBRANCH  30  35
ENDBRANCH   1  31
TORSDOF 10
ENDMDL
MODEL 2
REMARK VINA RESULT:      -7.2      4.651      7.988
REMARK  Name = 
REMARK  14 active torsions:
REMARK  status: ('A' for Active; 'I' for Inactive)
REMARK    1  A    between atoms: C_1  and  C_2
REMARK    2  A    between atoms: C_2  and  N_3
REMARK    3  A    between atoms: C_4  and  C_6
REMARK    4  A    between atoms: C_9  and  C_10
REMARK    5  A    between atoms: C_12  and  C_13
REMARK    6  A    between atoms: C_13  and  C_14
REMARK    7  A    between atoms: C_13  and  C_15
REMARK    8  A    between atoms: C_16  and  O_17
REMARK    9  A    between atoms: C_19  and  O_20
REMARK   10  A    between atoms: C_21  and  C_22
REMARK   11  A    between atoms: C_24  and  C_25
REMARK   12  A    between atoms: C_25  and  O_26
REMARK   13  A    between atoms: O_26  and  S_27
REMARK   14  A    between atoms: S_27  and  C_28
REMARK                            x       y       z     vdW  Elec       q    Type
REMARK                         _______ _______ _______ _____ _____    ______ ____
ROOT
ATOM      1  C   UNL     1       0.016  10.468  21.983  0.00  0.00    +0.000 A 
ATOM      2  N   UNL     1       0.891   9.899  22.828  0.00  0.00    +0.000 NA
ATOM      3  O   UNL     1       1.589   8.970  22.077  0.00  0.00    +0.000 OA
ATOM      4  C   UNL     1       1.121   8.946  20.792  0.00  0.00    +0.000 A 
ATOM      5  C   UNL     1       0.103   9.873  20.695  0.00  0.00    +0.000 A 
ENDROOT
BRANCH   4   6
ATOM      6  C   UNL     1       1.708   7.923  19.921  0.00  0.00    +0.000 A 
ATOM      7  C   UNL     1       1.705   6.569  20.324  0.00  0.00    +0.000 A 
ATOM      8  C   UNL     1       2.199   5.518  19.522  0.00  0.00    +0.000 A 
ATOM      9  C   UNL     1       2.788   5.884  18.305  0.00  0.00    +0.000 A 
ATOM     10  C   UNL     1       2.848   7.221  17.897  0.00  0.00    +0.000 A 
ATOM     11  C   UNL     1       2.297   8.226  18.691  0.00  0.00    +0.000 A 
BRANCH   8  12
ATOM     12  C   UNL     1       2.122   4.078  20.026  0.00  0.00    +0.000 C 
ATOM     13  C   UNL     1       2.306   4.029  21.545  0.00  0.00    +0.000 C 
ATOM     14  C   UNL     1       0.834   3.323  19.653  0.00  0.00    +0.000 C 
ENDBRANCH   8  12
BRANCH   9  15
ATOM     15  O   UNL     1       3.355   5.000  17.431  0.00  0.00    +0.000 OA
ATOM     16  H   UNL     1       2.700   4.344  17.151  0.00  0.00    +0.000 HD
ENDBRANCH   9  15
BRANCH  11  17
ATOM     17  O   UNL     1       2.331   9.521  18.245  0.00  0.00    +0.000 OA
ATOM     18  H   UNL     1       1.436   9.799  17.991  0.00  0.00    +0.000 HD
ENDBRANCH  11  17
ENDBRANCH   4   6
BRANCH   5  19
ATOM     19  C   UNL     1      -0.724  10.133  19.493  0.00  0.00    +0.000 A 
ATOM     20  C   UNL     1      -1.877  10.883  19.426  0.00  0.00    +0.000 A 
ATOM     21  C   UNL     1      -2.272  10.826  18.076  0.00  0.00    +0.000 A 
ATOM     22  N   UNL     1      -1.446  10.053  17.362  0.00  0.00    +0.000 NA
ATOM     23  O   UNL     1      -0.485   9.616  18.253  0.00  0.00    +0.000 OA
BRANCH  21  24
ATOM     24  C   UNL     1      -3.426  11.512  17.439  0.00  0.00    +0.000 C 
BRANCH  24  25
ATOM     25  O   UNL     1      -4.624  10.773  17.599  0.00  0.00    +0.000 OA
BRANCH  25  26
ATOM     26  S   UNL     1      -5.826  11.537  18.363  0.00  0.00    +0.000 S 
ATOM     27  C   UNL     1      -6.060  12.836  17.167  0.00  0.00    +0.000 C 
ATOM     28  O   UNL     1      -6.995  10.684  18.353  0.00  0.00    +0.000 OA
ATOM     29  O   UNL     1      -5.310  12.117  19.586  0.00  0.00    +0.000 OA
ENDBRANCH  25  26
ENDBRANCH  24  25
ENDBRANCH  21  24
ENDBRANCH   5  19
BRANCH   1  31
ATOM     30  N   UNL     1      -0.487  12.806  21.948  0.00  0.00    +0.000 N 
ATOM     31  C   UNL     1      -0.851  11.565  22.422  0.00  0.00    +0.000 C 
ATOM     32  O   UNL     1      -1.798  11.404  23.186  0.00  0.00    +0.000 OA
ATOM     33  H   UNL     1       0.258  12.845  21.258  0.00  0.00    +0.000 HD
BRANCH  30  35
ATOM     34  C   UNL     1      -2.268  14.370  21.322  0.00  0.00    +0.000 C 
ATOM     35  C   UNL     1      -1.193  14.009  22.328  0.00  0.00    +0.000 C 
ENDBRANCH  30  35
ENDBRANCH   1  31
TORSDOF 10
ENDMDL
MODEL 3
REMARK VINA RESULT:      -7.2      3.689      7.555
REMARK  Name = 
REMARK  14 active torsions:
REMARK  status: ('A' for Active; 'I' for Inactive)
REMARK    1  A    between atoms: C_1  and  C_2
REMARK    2  A    between atoms: C_2  and  N_3
REMARK    3  A    between atoms: C_4  and  C_6
REMARK    4  A    between atoms: C_9  and  C_10
REMARK    5  A    between atoms: C_12  and  C_13
REMARK    6  A    between atoms: C_13  and  C_14
REMARK    7  A    between atoms: C_13  and  C_15
REMARK    8  A    between atoms: C_16  and  O_17
REMARK    9  A    between atoms: C_19  and  O_20
REMARK   10  A    between atoms: C_21  and  C_22
REMARK   11  A    between atoms: C_24  and  C_25
REMARK   12  A    between atoms: C_25  and  O_26
REMARK   13  A    between atoms: O_26  and  S_27
REMARK   14  A    between atoms: S_27  and  C_28
REMARK                            x       y       z     vdW  Elec       q    Type
REMARK                         _______ _______ _______ _____ _____    ______ ____
ROOT
ATOM      1  C   UNL     1       4.896   4.536  16.205  0.00  0.00    +0.000 A 
ATOM      2  N   UNL     1       3.698   3.929  16.184  0.00  0.00    +0.000 NA
ATOM      3  O   UNL     1       2.904   4.636  17.069  0.00  0.00    +0.000 OA
ATOM      4  C   UNL     1       3.619   5.645  17.653  0.00  0.00    +0.000 A 
ATOM      5  C   UNL     1       4.901   5.603  17.144  0.00  0.00    +0.000 A 
ENDROOT
BRANCH   4   6
ATOM      6  C   UNL     1       2.918   6.401  18.694  0.00  0.00    +0.000 A 
ATOM      7  C   UNL     1       2.475   7.716  18.432  0.00  0.00    +0.000 A 
ATOM      8  C   UNL     1       1.746   8.490  19.360  0.00  0.00    +0.000 A 
ATOM      9  C   UNL     1       1.541   7.923  20.624  0.00  0.00    +0.000 A 
ATOM     10  C   UNL     1       2.006   6.639  20.931  0.00  0.00    +0.000 A 
ATOM     11  C   UNL     1       2.673   5.882  19.969  0.00  0.00    +0.000 A 
BRANCH   8  12
ATOM     12  C   UNL     1       1.277   9.893  18.975  0.00  0.00    +0.000 C 
ATOM     13  C   UNL     1       2.164  10.473  17.870  0.00  0.00    +0.000 C 
ATOM     14  C   UNL     1      -0.196   9.991  18.538  0.00  0.00    +0.000 C 
ENDBRANCH   8  12
BRANCH   9  15
ATOM     15  O   UNL     1       0.896   8.552  21.651  0.00  0.00    +0.000 OA
ATOM     16  H   UNL     1       0.645   7.909  22.330  0.00  0.00    +0.000 HD
ENDBRANCH   9  15
BRANCH  11  17
ATOM     17  O   UNL     1       3.078   4.612  20.284  0.00  0.00    +0.000 OA
ATOM     18  H   UNL     1       2.655   4.334  21.112  0.00  0.00    +0.000 HD
ENDBRANCH  11  17
ENDBRANCH   4   6
BRANCH   5  19
ATOM     19  C   UNL     1       6.026   6.480  17.547  0.00  0.00    +0.000 A 
ATOM     20  C   UNL     1       6.237   7.786  17.168  0.00  0.00    +0.000 A 
ATOM     21  C   UNL     1       7.426   8.168  17.819  0.00  0.00    +0.000 A 
ATOM     22  N   UNL     1       7.944   7.152  18.518  0.00  0.00    +0.000 NA
ATOM     23  O   UNL     1       7.070   6.096  18.340  0.00  0.00    +0.000 OA
BRANCH  21  24
ATOM     24  C   UNL     1       8.081   9.502  17.803  0.00  0.00    +0.000 C 
BRANCH  24  25
ATOM     25  O   UNL     1       9.268   9.509  18.577  0.00  0.00    +0.000 OA
BRANCH  25  26
ATOM     26  S   UNL     1       9.666  10.927  19.243  0.00  0.00    +0.000 S 
ATOM     27  C   UNL     1       8.867  11.969  18.040  0.00  0.00    +0.000 C 
ATOM     28  O   UNL     1       8.967  11.056  20.504  0.00  0.00    +0.000 OA
ATOM     29  O   UNL     1      11.099  11.108  19.138  0.00  0.00    +0.000 OA
ENDBRANCH  25  26
ENDBRANCH  24  25
ENDBRANCH  21  24
ENDBRANCH   5  19
BRANCH   1  31
ATOM     30  N   UNL     1       5.657   4.092  13.981  0.00  0.00    +0.000 N 
ATOM     31  C   UNL     1       5.979   4.095  15.320  0.00  0.00    +0.000 C 
ATOM     32  O   UNL     1       7.069   3.717  15.736  0.00  0.00    +0.000 OA
ATOM     33  H   UNL     1       4.764   4.495  13.712  0.00  0.00    +0.000 HD
BRANCH  30  35
ATOM     34  C   UNL     1       5.877   2.871  11.866  0.00  0.00    +0.000 C 
ATOM     35  C   UNL     1       6.583   3.631  12.972  0.00  0.00    +0.000 C 
ENDBRANCH  30  35
ENDBRANCH   1  31
TORSDOF 10
ENDMDL
MODEL 4
REMARK VINA RESULT:      -7.2      4.688      7.897
REMARK  Name = 
REMARK  14 active torsions:
REMARK  status: ('A' for Active; 'I' for Inactive)
REMARK    1  A    between atoms: C_1  and  C_2
REMARK    2  A    between atoms: C_2  and  N_3
REMARK    3  A    between atoms: C_4  and  C_6
REMARK    4  A    between atoms: C_9  and  C_10
REMARK    5  A    between atoms: C_12  and  C_13
REMARK    6  A    between atoms: C_13  and  C_14
REMARK    7  A    between atoms: C_13  and  C_15
REMARK    8  A    between atoms: C_16  and  O_17
REMARK    9  A    between atoms: C_19  and  O_20
REMARK   10  A    between atoms: C_21  and  C_22
REMARK   11  A    between atoms: C_24  and  C_25
REMARK   12  A    between atoms: C_25  and  O_26
REMARK   13  A    between atoms: O_26  and  S_27
REMARK   14  A    between atoms: S_27  and  C_28
REMARK                            x       y       z     vdW  Elec       q    Type
REMARK                         _______ _______ _______ _____ _____    ______ ____
ROOT
ATOM      1  C   UNL     1       0.214  10.582  21.585  0.00  0.00    +0.000 A 
ATOM      2  N   UNL     1       1.040  10.101  22.529  0.00  0.00    +0.000 NA
ATOM      3  O   UNL     1       1.642   8.988  21.970  0.00  0.00    +0.000 OA
ATOM      4  C   UNL     1       1.163   8.769  20.707  0.00  0.00    +0.000 A 
ATOM      5  C   UNL     1       0.235   9.753  20.431  0.00  0.00    +0.000 A 
ENDROOT
BRANCH   4   6
ATOM      6  C   UNL     1       1.645   7.553  20.047  0.00  0.00    +0.000 A 
ATOM      7  C   UNL     1       1.389   6.289  20.624  0.00  0.00    +0.000 A 
ATOM      8  C   UNL     1       1.769   5.069  20.025  0.00  0.00    +0.000 A 
ATOM      9  C   UNL     1       2.509   5.159  18.839  0.00  0.00    +0.000 A 
ATOM     10  C   UNL     1       2.819   6.397  18.265  0.00  0.00    +0.000 A 
ATOM     11  C   UNL     1       2.376   7.579  18.856  0.00  0.00    +0.000 A 
BRANCH   8  12
ATOM     12  C   UNL     1       1.418   3.748  20.706  0.00  0.00    +0.000 C 
ATOM     13  C   UNL     1       0.701   2.813  19.729  0.00  0.00    +0.000 C 
ATOM     14  C   UNL     1       2.609   3.000  21.333  0.00  0.00    +0.000 C 
ENDBRANCH   8  12
BRANCH   9  15
ATOM     15  O   UNL     1       2.994   4.080  18.154  0.00  0.00    +0.000 OA
ATOM     16  H   UNL     1       3.632   4.370  17.486  0.00  0.00    +0.000 HD
ENDBRANCH   9  15
BRANCH  11  17
ATOM     17  O   UNL     1       2.656   8.774  18.247  0.00  0.00    +0.000 OA
ATOM     18  H   UNL     1       2.241   8.795  17.370  0.00  0.00    +0.000 HD
ENDBRANCH  11  17
ENDBRANCH   4   6
BRANCH   5  19
ATOM     19  C   UNL     1      -0.574   9.861  19.195  0.00  0.00    +0.000 A 
ATOM     20  C   UNL     1      -1.938  10.029  19.108  0.00  0.00    +0.000 A 
ATOM     21  C   UNL     1      -2.214  10.078  17.728  0.00  0.00    +0.000 A 
ATOM     22  N   UNL     1      -1.101   9.904  17.006  0.00  0.00    +0.000 NA
ATOM     23  O   UNL     1      -0.080   9.762  17.926  0.00  0.00    +0.000 OA
BRANCH  21  24
ATOM     24  C   UNL     1      -3.528  10.305  17.073  0.00  0.00    +0.000 C 
BRANCH  24  25
ATOM     25  O   UNL     1      -3.981  11.634  17.261  0.00  0.00    +0.000 OA
BRANCH  25  26
ATOM     26  S   UNL     1      -5.217  11.818  18.287  0.00  0.00    +0.000 S 
ATOM     27  C   UNL     1      -6.222  12.852  17.242  0.00  0.00    +0.000 C 
ATOM     28  O   UNL     1      -5.878  10.541  18.447  0.00  0.00    +0.000 OA
ATOM     29  O   UNL     1      -4.770  12.599  19.423  0.00  0.00    +0.000 OA
ENDBRANCH  25  26
ENDBRANCH  24  25
ENDBRANCH  21  24
ENDBRANCH   5  19
BRANCH   1  31
ATOM     30  N   UNL     1      -1.338  11.807  22.930  0.00  0.00    +0.000 N 
ATOM     31  C   UNL     1      -0.543  11.817  21.806  0.00  0.00    +0.000 C 
ATOM     32  O   UNL     1      -0.509  12.769  21.032  0.00  0.00    +0.000 OA
ATOM     33  H   UNL     1      -1.249  11.016  23.561  0.00  0.00    +0.000 HD
BRANCH  30  35
ATOM     34  C   UNL     1      -1.415  14.073  23.864  0.00  0.00    +0.000 C 
ATOM     35  C   UNL     1      -2.198  12.918  23.271  0.00  0.00    +0.000 C 
ENDBRANCH  30  35
ENDBRANCH   1  31
TORSDOF 10
ENDMDL
MODEL 5
REMARK VINA RESULT:      -7.2      2.211      7.298
REMARK  Name = 
REMARK  14 active torsions:
REMARK  status: ('A' for Active; 'I' for Inactive)
REMARK    1  A    between atoms: C_1  and  C_2
REMARK    2  A    between atoms: C_2  and  N_3
REMARK    3  A    between atoms: C_4  and  C_6
REMARK    4  A    between atoms: C_9  and  C_10
REMARK    5  A    between atoms: C_12  and  C_13
REMARK    6  A    between atoms: C_13  and  C_14
REMARK    7  A    between atoms: C_13  and  C_15
REMARK    8  A    between atoms: C_16  and  O_17
REMARK    9  A    between atoms: C_19  and  O_20
REMARK   10  A    between atoms: C_21  and  C_22
REMARK   11  A    between atoms: C_24  and  C_25
REMARK   12  A    between atoms: C_25  and  O_26
REMARK   13  A    between atoms: O_26  and  S_27
REMARK   14  A    between atoms: S_27  and  C_28
REMARK                            x       y       z     vdW  Elec       q    Type
REMARK                         _______ _______ _______ _____ _____    ______ ____
ROOT
ATOM      1  C   UNL     1       5.297   5.709  15.970  0.00  0.00    +0.000 A 
ATOM      2  N   UNL     1       5.625   7.002  15.813  0.00  0.00    +0.000 NA
ATOM      3  O   UNL     1       4.830   7.702  16.704  0.00  0.00    +0.000 OA
ATOM      4  C   UNL     1       3.999   6.848  17.375  0.00  0.00    +0.000 A 
ATOM      5  C   UNL     1       4.251   5.569  16.922  0.00  0.00    +0.000 A 
ENDROOT
BRANCH   4   6
ATOM      6  C   UNL     1       3.028   7.481  18.272  0.00  0.00    +0.000 A 
ATOM      7  C   UNL     1       2.265   8.581  17.822  0.00  0.00    +0.000 A 
ATOM      8  C   UNL     1       1.273   9.211  18.603  0.00  0.00    +0.000 A 
ATOM      9  C   UNL     1       1.121   8.745  19.915  0.00  0.00    +0.000 A 
ATOM     10  C   UNL     1       1.893   7.687  20.407  0.00  0.00    +0.000 A 
ATOM     11  C   UNL     1       2.824   7.052  19.586  0.00  0.00    +0.000 A 
BRANCH   8  12
ATOM     12  C   UNL     1       0.472  10.374  18.019  0.00  0.00    +0.000 C 
ATOM     13  C   UNL     1      -1.003   9.992  17.874  0.00  0.00    +0.000 C 
ATOM     14  C   UNL     1       0.573  11.694  18.803  0.00  0.00    +0.000 C 
ENDBRANCH   8  12
BRANCH   9  15
ATOM     15  O   UNL     1       0.241   9.272  20.818  0.00  0.00    +0.000 OA
ATOM     16  H   UNL     1      -0.083   8.577  21.411  0.00  0.00    +0.000 HD
ENDBRANCH   9  15
BRANCH  11  17
ATOM     17  O   UNL     1       3.533   5.990  20.081  0.00  0.00    +0.000 OA
ATOM     18  H   UNL     1       3.392   5.925  21.039  0.00  0.00    +0.000 HD
ENDBRANCH  11  17
ENDBRANCH   4   6
BRANCH   5  19
ATOM     19  C   UNL     1       3.532   4.342  17.337  0.00  0.00    +0.000 A 
ATOM     20  C   UNL     1       2.321   4.270  17.989  0.00  0.00    +0.000 A 
ATOM     21  C   UNL     1       2.073   2.893  18.149  0.00  0.00    +0.000 A 
ATOM     22  N   UNL     1       3.085   2.160  17.672  0.00  0.00    +0.000 NA
ATOM     23  O   UNL     1       3.997   3.069  17.172  0.00  0.00    +0.000 OA
BRANCH  21  24
ATOM     24  C   UNL     1       0.871   2.251  18.742  0.00  0.00    +0.000 C 
BRANCH  24  25
ATOM     25  O   UNL     1       1.149   1.708  20.021  0.00  0.00    +0.000 OA
BRANCH  25  26
ATOM     26  S   UNL     1       1.445   2.782  21.193  0.00  0.00    +0.000 S 
ATOM     27  C   UNL     1       3.222   2.672  21.150  0.00  0.00    +0.000 C 
ATOM     28  O   UNL     1       1.051   4.094  20.726  0.00  0.00    +0.000 OA
ATOM     29  O   UNL     1       0.975   2.242  22.452  0.00  0.00    +0.000 OA
ENDBRANCH  25  26
ENDBRANCH  24  25
ENDBRANCH  21  24
ENDBRANCH   5  19
BRANCH   1  31
ATOM     30  N   UNL     1       5.530   4.443  13.954  0.00  0.00    +0.000 N 
ATOM     31  C   UNL     1       6.003   4.659  15.230  0.00  0.00    +0.000 C 
ATOM     32  O   UNL     1       6.911   3.993  15.717  0.00  0.00    +0.000 OA
ATOM     33  H   UNL     1       4.831   5.088  13.597  0.00  0.00    +0.000 HD
BRANCH  30  35
ATOM     34  C   UNL     1       7.000   3.971  12.049  0.00  0.00    +0.000 C 
ATOM     35  C   UNL     1       6.068   3.406  13.103  0.00  0.00    +0.000 C 
ENDBRANCH  30  35
ENDBRANCH   1  31
TORSDOF 10
ENDMDL
MODEL 6
REMARK VINA RESULT:      -7.1      1.208      1.267
REMARK  Name = 
REMARK  14 active torsions:
REMARK  status: ('A' for Active; 'I' for Inactive)
REMARK    1  A    between atoms: C_1  and  C_2
REMARK    2  A    between atoms: C_2  and  N_3
REMARK    3  A    between atoms: C_4  and  C_6
REMARK    4  A    between atoms: C_9  and  C_10
REMARK    5  A    between atoms: C_12  and  C_13
REMARK    6  A    between atoms: C_13  and  C_14
REMARK    7  A    between atoms: C_13  and  C_15
REMARK    8  A    between atoms: C_16  and  O_17
REMARK    9  A    between atoms: C_19  and  O_20
REMARK   10  A    between atoms: C_21  and  C_22
REMARK   11  A    between atoms: C_24  and  C_25
REMARK   12  A    between atoms: C_25  and  O_26
REMARK   13  A    between atoms: O_26  and  S_27
REMARK   14  A    between atoms: S_27  and  C_28
REMARK                            x       y       z     vdW  Elec       q    Type
REMARK                         _______ _______ _______ _____ _____    ______ ____
ROOT
ATOM      1  C   UNL     1       2.858   3.009  18.310  0.00  0.00    +0.000 A 
ATOM      2  N   UNL     1       3.329   1.848  17.826  0.00  0.00    +0.000 NA
ATOM      3  O   UNL     1       4.338   2.191  16.943  0.00  0.00    +0.000 OA
ATOM      4  C   UNL     1       4.459   3.551  16.860  0.00  0.00    +0.000 A 
ATOM      5  C   UNL     1       3.519   4.110  17.702  0.00  0.00    +0.000 A 
ENDROOT
BRANCH   4   6
ATOM      6  C   UNL     1       5.423   4.044  15.873  0.00  0.00    +0.000 A 
ATOM      7  C   UNL     1       5.304   3.659  14.518  0.00  0.00    +0.000 A 
ATOM      8  C   UNL     1       6.156   4.132  13.498  0.00  0.00    +0.000 A 
ATOM      9  C   UNL     1       7.212   4.961  13.900  0.00  0.00    +0.000 A 
ATOM     10  C   UNL     1       7.384   5.325  15.240  0.00  0.00    +0.000 A 
ATOM     11  C   UNL     1       6.487   4.884  16.211  0.00  0.00    +0.000 A 
BRANCH   8  12
ATOM     12  C   UNL     1       5.931   3.687  12.054  0.00  0.00    +0.000 C 
ATOM     13  C   UNL     1       6.846   2.511  11.704  0.00  0.00    +0.000 C 
ATOM     14  C   UNL     1       4.479   3.313  11.706  0.00  0.00    +0.000 C 
ENDBRANCH   8  12
BRANCH   9  15
ATOM     15  O   UNL     1       8.153   5.469  13.049  0.00  0.00    +0.000 OA
ATOM     16  H   UNL     1       8.215   4.919  12.255  0.00  0.00    +0.000 HD
ENDBRANCH   9  15
BRANCH  11  17
ATOM     17  O   UNL     1       6.655   5.293  17.508  0.00  0.00    +0.000 OA
ATOM     18  H   UNL     1       7.546   5.051  17.810  0.00  0.00    +0.000 HD
ENDBRANCH  11  17
ENDBRANCH   4   6
BRANCH   5  19
ATOM     19  C   UNL     1       3.261   5.559  17.876  0.00  0.00    +0.000 A 
ATOM     20  C   UNL     1       2.369   6.145  18.745  0.00  0.00    +0.000 A 
ATOM     21  C   UNL     1       2.504   7.530  18.531  0.00  0.00    +0.000 A 
ATOM     22  N   UNL     1       3.388   7.785  17.560  0.00  0.00    +0.000 NA
ATOM     23  O   UNL     1       3.853   6.551  17.148  0.00  0.00    +0.000 OA
BRANCH  21  24
ATOM     24  C   UNL     1       1.813   8.631  19.251  0.00  0.00    +0.000 C 
BRANCH  24  25
ATOM     25  O   UNL     1       1.317   9.608  18.353  0.00  0.00    +0.000 OA
BRANCH  25  26
ATOM     26  S   UNL     1      -0.135  10.222  18.712  0.00  0.00    +0.000 S 
ATOM     27  C   UNL     1       0.350  11.935  18.746  0.00  0.00    +0.000 C 
ATOM     28  O   UNL     1      -1.016  10.013  17.583  0.00  0.00    +0.000 OA
ATOM     29  O   UNL     1      -0.497   9.814  20.054  0.00  0.00    +0.000 OA
ENDBRANCH  25  26
ENDBRANCH  24  25
ENDBRANCH  21  24
ENDBRANCH   5  19
BRANCH   1  31
ATOM     30  N   UNL     1       2.271   3.338  20.605  0.00  0.00    +0.000 N 
ATOM     31  C   UNL     1       1.818   3.027  19.342  0.00  0.00    +0.000 C 
ATOM     32  O   UNL     1       0.645   2.745  19.114  0.00  0.00    +0.000 OA
ATOM     33  H   UNL     1       3.238   3.637  20.696  0.00  0.00    +0.000 HD
BRANCH  30  35
ATOM     34  C   UNL     1       1.323   1.981  22.414  0.00  0.00    +0.000 C 
ATOM     35  C   UNL     1       1.394   3.344  21.754  0.00  0.00    +0.000 C 
ENDBRANCH  30  35
ENDBRANCH   1  31
TORSDOF 10
ENDMDL
MODEL 7
REMARK VINA RESULT:      -7.0      3.736      7.602
REMARK  Name = 
REMARK  14 active torsions:
REMARK  status: ('A' for Active; 'I' for Inactive)
REMARK    1  A    between atoms: C_1  and  C_2
REMARK    2  A    between atoms: C_2  and  N_3
REMARK    3  A    between atoms: C_4  and  C_6
REMARK    4  A    between atoms: C_9  and  C_10
REMARK    5  A    between atoms: C_12  and  C_13
REMARK    6  A    between atoms: C_13  and  C_14
REMARK    7  A    between atoms: C_13  and  C_15
REMARK    8  A    between atoms: C_16  and  O_17
REMARK    9  A    between atoms: C_19  and  O_20
REMARK   10  A    between atoms: C_21  and  C_22
REMARK   11  A    between atoms: C_24  and  C_25
REMARK   12  A    between atoms: C_25  and  O_26
REMARK   13  A    between atoms: O_26  and  S_27
REMARK   14  A    between atoms: S_27  and  C_28
REMARK                            x       y       z     vdW  Elec       q    Type
REMARK                         _______ _______ _______ _____ _____    ______ ____
ROOT
ATOM      1  C   UNL     1       5.637   4.736  15.367  0.00  0.00    +0.000 A 
ATOM      2  N   UNL     1       4.533   3.999  15.166  0.00  0.00    +0.000 NA
ATOM      3  O   UNL     1       3.658   4.349  16.179  0.00  0.00    +0.000 OA
ATOM      4  C   UNL     1       4.235   5.266  17.013  0.00  0.00    +0.000 A 
ATOM      5  C   UNL     1       5.506   5.526  16.542  0.00  0.00    +0.000 A 
ENDROOT
BRANCH   4   6
ATOM      6  C   UNL     1       3.447   5.638  18.192  0.00  0.00    +0.000 A 
ATOM      7  C   UNL     1       2.987   4.637  19.076  0.00  0.00    +0.000 A 
ATOM      8  C   UNL     1       2.270   4.914  20.260  0.00  0.00    +0.000 A 
ATOM      9  C   UNL     1       1.947   6.257  20.495  0.00  0.00    +0.000 A 
ATOM     10  C   UNL     1       2.349   7.268  19.616  0.00  0.00    +0.000 A 
ATOM     11  C   UNL     1       3.105   6.961  18.485  0.00  0.00    +0.000 A 
BRANCH   8  12
ATOM     12  C   UNL     1       1.843   3.767  21.174  0.00  0.00    +0.000 C 
ATOM     13  C   UNL     1       0.643   3.025  20.582  0.00  0.00    +0.000 C 
ATOM     14  C   UNL     1       2.949   2.749  21.504  0.00  0.00    +0.000 C 
ENDBRANCH   8  12
BRANCH   9  15
ATOM     15  O   UNL     1       1.221   6.694  21.567  0.00  0.00    +0.000 OA
ATOM     16  H   UNL     1       1.721   6.557  22.385  0.00  0.00    +0.000 HD
ENDBRANCH   9  15
BRANCH  11  17
ATOM     17  O   UNL     1       3.522   7.977  17.666  0.00  0.00    +0.000 OA
ATOM     18  H   UNL     1       3.977   8.652  18.194  0.00  0.00    +0.000 HD
ENDBRANCH  11  17
ENDBRANCH   4   6
BRANCH   5  19
ATOM     19  C   UNL     1       6.504   6.416  17.179  0.00  0.00    +0.000 A 
ATOM     20  C   UNL     1       6.763   7.731  16.866  0.00  0.00    +0.000 A 
ATOM     21  C   UNL     1       7.783   8.125  17.753  0.00  0.00    +0.000 A 
ATOM     22  N   UNL     1       8.165   7.108  18.533  0.00  0.00    +0.000 NA
ATOM     23  O   UNL     1       7.369   6.040  18.167  0.00  0.00    +0.000 OA
BRANCH  21  24
ATOM     24  C   UNL     1       8.400   9.470  17.886  0.00  0.00    +0.000 C 
BRANCH  24  25
ATOM     25  O   UNL     1       9.054   9.622  19.134  0.00  0.00    +0.000 OA
BRANCH  25  26
ATOM     26  S   UNL     1       9.622  11.101  19.457  0.00  0.00    +0.000 S 
ATOM     27  C   UNL     1       8.829  11.943  18.103  0.00  0.00    +0.000 C 
ATOM     28  O   UNL     1       9.033  11.560  20.696  0.00  0.00    +0.000 OA
ATOM     29  O   UNL     1      11.054  11.110  19.237  0.00  0.00    +0.000 OA
ENDBRANCH  25  26
ENDBRANCH  24  25
ENDBRANCH  21  24
ENDBRANCH   5  19
BRANCH   1  31
ATOM     30  N   UNL     1       6.496   4.003  13.259  0.00  0.00    +0.000 N 
ATOM     31  C   UNL     1       6.762   4.679  14.429  0.00  0.00    +0.000 C 
ATOM     32  O   UNL     1       7.865   5.155  14.678  0.00  0.00    +0.000 OA
ATOM     33  H   UNL     1       5.537   3.710  13.094  0.00  0.00    +0.000 HD
BRANCH  30  35
ATOM     34  C   UNL     1       7.191   2.599  11.372  0.00  0.00    +0.000 C 
ATOM     35  C   UNL     1       7.506   3.798  12.246  0.00  0.00    +0.000 C 
ENDBRANCH  30  35
ENDBRANCH   1  31
TORSDOF 10
ENDMDL
MODEL 8
REMARK VINA RESULT:      -7.0      1.435      1.590
REMARK  Name = 
REMARK  14 active torsions:
REMARK  status: ('A' for Active; 'I' for Inactive)
REMARK    1  A    between atoms: C_1  and  C_2
REMARK    2  A    between atoms: C_2  and  N_3
REMARK    3  A    between atoms: C_4  and  C_6
REMARK    4  A    between atoms: C_9  and  C_10
REMARK    5  A    between atoms: C_12  and  C_13
REMARK    6  A    between atoms: C_13  and  C_14
REMARK    7  A    between atoms: C_13  and  C_15
REMARK    8  A    between atoms: C_16  and  O_17
REMARK    9  A    between atoms: C_19  and  O_20
REMARK   10  A    between atoms: C_21  and  C_22
REMARK   11  A    between atoms: C_24  and  C_25
REMARK   12  A    between atoms: C_25  and  O_26
REMARK   13  A    between atoms: O_26  and  S_27
REMARK   14  A    between atoms: S_27  and  C_28
REMARK                            x       y       z     vdW  Elec       q    Type
REMARK                         _______ _______ _______ _____ _____    ______ ____
ROOT
ATOM      1  C   UNL     1       3.691   3.551  18.399  0.00  0.00    +0.000 A 
ATOM      2  N   UNL     1       4.132   2.328  18.065  0.00  0.00    +0.000 NA
ATOM      3  O   UNL     1       4.944   2.510  16.959  0.00  0.00    +0.000 OA
ATOM      4  C   UNL     1       4.970   3.829  16.598  0.00  0.00    +0.000 A 
ATOM      5  C   UNL     1       4.168   4.525  17.480  0.00  0.00    +0.000 A 
ENDROOT
BRANCH   4   6
ATOM      6  C   UNL     1       5.711   4.138  15.371  0.00  0.00    +0.000 A 
ATOM      7  C   UNL     1       5.310   3.565  14.143  0.00  0.00    +0.000 A 
ATOM      8  C   UNL     1       5.934   3.853  12.911  0.00  0.00    +0.000 A 
ATOM      9  C   UNL     1       7.056   4.691  12.959  0.00  0.00    +0.000 A 
ATOM     10  C   UNL     1       7.506   5.239  14.165  0.00  0.00    +0.000 A 
ATOM     11  C   UNL     1       6.828   4.977  15.355  0.00  0.00    +0.000 A 
BRANCH   8  12
ATOM     12  C   UNL     1       5.409   3.213  11.627  0.00  0.00    +0.000 C 
ATOM     13  C   UNL     1       5.812   1.737  11.558  0.00  0.00    +0.000 C 
ATOM     14  C   UNL     1       3.889   3.327  11.415  0.00  0.00    +0.000 C 
ENDBRANCH   8  12
BRANCH   9  15
ATOM     15  O   UNL     1       7.803   5.034  11.867  0.00  0.00    +0.000 OA
ATOM     16  H   UNL     1       7.925   4.264  11.293  0.00  0.00    +0.000 HD
ENDBRANCH   9  15
BRANCH  11  17
ATOM     17  O   UNL     1       7.266   5.562  16.513  0.00  0.00    +0.000 OA
ATOM     18  H   UNL     1       7.909   6.257  16.301  0.00  0.00    +0.000 HD
ENDBRANCH  11  17
ENDBRANCH   4   6
BRANCH   5  19
ATOM     19  C   UNL     1       3.863   5.974  17.420  0.00  0.00    +0.000 A 
ATOM     20  C   UNL     1       2.749   6.609  17.920  0.00  0.00    +0.000 A 
ATOM     21  C   UNL     1       2.937   7.971  17.617  0.00  0.00    +0.000 A 
ATOM     22  N   UNL     1       4.070   8.162  16.931  0.00  0.00    +0.000 NA
ATOM     23  O   UNL     1       4.642   6.911  16.804  0.00  0.00    +0.000 OA
BRANCH  21  24
ATOM     24  C   UNL     1       2.057   9.112  17.982  0.00  0.00    +0.000 C 
BRANCH  24  25
ATOM     25  O   UNL     1       1.300   8.833  19.146  0.00  0.00    +0.000 OA
BRANCH  25  26
ATOM     26  S   UNL     1       0.361  10.036  19.681  0.00  0.00    +0.000 S 
ATOM     27  C   UNL     1      -0.046   9.315  21.258  0.00  0.00    +0.000 C 
ATOM     28  O   UNL     1       1.190  11.201  19.906  0.00  0.00    +0.000 OA
ATOM     29  O   UNL     1      -0.837  10.091  18.870  0.00  0.00    +0.000 OA
ENDBRANCH  25  26
ENDBRANCH  24  25
ENDBRANCH  21  24
ENDBRANCH   5  19
BRANCH   1  31
ATOM     30  N   UNL     1       1.742   2.942  19.644  0.00  0.00    +0.000 N 
ATOM     31  C   UNL     1       2.855   3.752  19.586  0.00  0.00    +0.000 C 
ATOM     32  O   UNL     1       3.097   4.600  20.439  0.00  0.00    +0.000 OA
ATOM     33  H   UNL     1       1.655   2.212  18.943  0.00  0.00    +0.000 HD
BRANCH  30  35
ATOM     34  C   UNL     1       1.308   2.468  22.010  0.00  0.00    +0.000 C 
ATOM     35  C   UNL     1       0.775   3.045  20.713  0.00  0.00    +0.000 C 
ENDBRANCH  30  35
ENDBRANCH   1  31
TORSDOF 10
ENDMDL
MODEL 9
REMARK VINA RESULT:      -7.0      3.814      7.670
REMARK  Name = 
REMARK  14 active torsions:
REMARK  status: ('A' for Active; 'I' for Inactive)
REMARK    1  A    between atoms: C_1  and  C_2
REMARK    2  A    between atoms: C_2  and  N_3
REMARK    3  A    between atoms: C_4  and  C_6
REMARK    4  A    between atoms: C_9  and  C_10
REMARK    5  A    between atoms: C_12  and  C_13
REMARK    6  A    between atoms: C_13  and  C_14
REMARK    7  A    between atoms: C_13  and  C_15
REMARK    8  A    between atoms: C_16  and  O_17
REMARK    9  A    between atoms: C_19  and  O_20
REMARK   10  A    between atoms: C_21  and  C_22
REMARK   11  A    between atoms: C_24  and  C_25
REMARK   12  A    between atoms: C_25  and  O_26
REMARK   13  A    between atoms: O_26  and  S_27
REMARK   14  A    between atoms: S_27  and  C_28
REMARK                            x       y       z     vdW  Elec       q    Type
REMARK                         _______ _______ _______ _____ _____    ______ ____
ROOT
ATOM      1  C   UNL     1       5.490   4.635  15.780  0.00  0.00    +0.000 A 
ATOM      2  N   UNL     1       4.356   3.925  15.665  0.00  0.00    +0.000 NA
ATOM      3  O   UNL     1       3.508   4.410  16.644  0.00  0.00    +0.000 OA
ATOM      4  C   UNL     1       4.129   5.384  17.376  0.00  0.00    +0.000 A 
ATOM      5  C   UNL     1       5.403   5.545  16.869  0.00  0.00    +0.000 A 
ENDROOT
BRANCH   4   6
ATOM      6  C   UNL     1       3.371   5.903  18.517  0.00  0.00    +0.000 A 
ATOM      7  C   UNL     1       2.873   7.225  18.490  0.00  0.00    +0.000 A 
ATOM      8  C   UNL     1       2.089   7.782  19.522  0.00  0.00    +0.000 A 
ATOM      9  C   UNL     1       1.882   6.980  20.652  0.00  0.00    +0.000 A 
ATOM     10  C   UNL     1       2.399   5.682  20.730  0.00  0.00    +0.000 A 
ATOM     11  C   UNL     1       3.122   5.146  19.665  0.00  0.00    +0.000 A 
BRANCH   8  12
ATOM     12  C   UNL     1       1.564   9.210  19.390  0.00  0.00    +0.000 C 
ATOM     13  C   UNL     1       1.345   9.569  17.918  0.00  0.00    +0.000 C 
ATOM     14  C   UNL     1       0.274   9.507  20.176  0.00  0.00    +0.000 C 
ENDBRANCH   8  12
BRANCH   9  15
ATOM     15  O   UNL     1       1.186   7.380  21.759  0.00  0.00    +0.000 OA
ATOM     16  H   UNL     1       0.746   8.225  21.587  0.00  0.00    +0.000 HD
ENDBRANCH   9  15
BRANCH  11  17
ATOM     17  O   UNL     1       3.578   3.857  19.752  0.00  0.00    +0.000 OA
ATOM     18  H   UNL     1       3.733   3.631  20.683  0.00  0.00    +0.000 HD
ENDBRANCH  11  17
ENDBRANCH   4   6
BRANCH   5  19
ATOM     19  C   UNL     1       6.442   6.456  17.404  0.00  0.00    +0.000 A 
ATOM     20  C   UNL     1       6.661   7.766  17.044  0.00  0.00    +0.000 A 
ATOM     21  C   UNL     1       7.747   8.187  17.835  0.00  0.00    +0.000 A 
ATOM     22  N   UNL     1       8.203   7.189  18.601  0.00  0.00    +0.000 NA
ATOM     23  O   UNL     1       7.390   6.107  18.323  0.00  0.00    +0.000 OA
BRANCH  21  24
ATOM     24  C   UNL     1       8.360   9.539  17.890  0.00  0.00    +0.000 C 
BRANCH  24  25
ATOM     25  O   UNL     1       8.932   9.800  19.160  0.00  0.00    +0.000 OA
BRANCH  25  26
ATOM     26  S   UNL     1       9.635  11.246  19.332  0.00  0.00    +0.000 S 
ATOM     27  C   UNL     1       9.295  11.453  21.067  0.00  0.00    +0.000 C 
ATOM     28  O   UNL     1      11.063  11.088  19.157  0.00  0.00    +0.000 OA
ATOM     29  O   UNL     1       8.874  12.228  18.587  0.00  0.00    +0.000 OA
ENDBRANCH  25  26
ENDBRANCH  24  25
ENDBRANCH  21  24
ENDBRANCH   5  19
BRANCH   1  31
ATOM     30  N   UNL     1       6.240   3.863  13.644  0.00  0.00    +0.000 N 
ATOM     31  C   UNL     1       6.599   4.440  14.842  0.00  0.00    +0.000 C 
ATOM     32  O   UNL     1       7.762   4.725  15.114  0.00  0.00    +0.000 OA
ATOM     33  H   UNL     1       5.249   3.732  13.465  0.00  0.00    +0.000 HD
BRANCH  30  35
ATOM     34  C   UNL     1       6.661   2.565  11.608  0.00  0.00    +0.000 C 
ATOM     35  C   UNL     1       7.214   3.543  12.625  0.00  0.00    +0.000 C 
ENDBRANCH  30  35
ENDBRANCH   1  31
TORSDOF 10
ENDMDL
