MODEL 1
REMARK VINA RESULT:      -8.6      0.000      0.000
REMARK  Name = 
REMARK  6 active torsions:
REMARK  status: ('A' for Active; 'I' for Inactive)
REMARK    1  A    between atoms: C_1  and  C_2
REMARK    2  A    between atoms: C_2  and  C_3
REMARK    3  A    between atoms: C_3  and  C_6
REMARK    4  A    between atoms: C_10  and  C_11
REMARK    5  A    between atoms: C_15  and  C_17
REMARK    6  A    between atoms: N_24  and  C_25
REMARK                            x       y       z     vdW  Elec       q    Type
REMARK                         _______ _______ _______ _____ _____    ______ ____
ROOT
ATOM      1  C   UNL     1       1.177   9.179  18.582  0.00  0.00    +0.000 A 
ATOM      2  C   UNL     1       1.867   8.471  17.605  0.00  0.00    +0.000 A 
ATOM      3  C   UNL     1       2.715   7.577  18.286  0.00  0.00    +0.000 A 
ATOM      4  N   UNL     1       3.581   6.690  17.666  0.00  0.00    +0.000 N 
ATOM      5  C   UNL     1       4.343   5.769  18.352  0.00  0.00    +0.000 C 
ATOM      6  O   UNL     1       4.340   5.579  19.568  0.00  0.00    +0.000 OA
ATOM      7  N   UNL     1       2.596   7.729  19.596  0.00  0.00    +0.000 NA
ATOM      8  N   UNL     1       1.557   8.573  19.784  0.00  0.00    +0.000 N 
ATOM      9  H   UNL     1       3.582   6.699  16.654  0.00  0.00    +0.000 HD
ENDROOT
BRANCH   5  10
ATOM     10  C   UNL     1       5.192   4.890  17.453  0.00  0.00    +0.000 C 
ATOM     11  C   UNL     1       6.554   4.638  18.091  0.00  0.00    +0.000 C 
ATOM     12  N   UNL     1       7.421   4.420  16.976  0.00  0.00    +0.000 N 
ATOM     13  C   UNL     1       6.944   5.030  15.838  0.00  0.00    +0.000 C 
ATOM     14  O   UNL     1       7.566   5.162  14.800  0.00  0.00    +0.000 OA
ATOM     15  C   UNL     1       5.545   5.527  16.107  0.00  0.00    +0.000 C 
ATOM     16  H   UNL     1       8.402   4.177  17.043  0.00  0.00    +0.000 HD
ENDBRANCH   5  10
BRANCH   1  21
ATOM     17  C   UNL     1      -1.856  11.274  17.712  0.00  0.00    +0.000 A 
ATOM     18  C   UNL     1      -1.400  12.562  18.020  0.00  0.00    +0.000 A 
ATOM     19  C   UNL     1      -0.103  12.755  18.483  0.00  0.00    +0.000 A 
ATOM     20  C   UNL     1       0.755  11.664  18.623  0.00  0.00    +0.000 A 
ATOM     21  C   UNL     1       0.307  10.353  18.404  0.00  0.00    +0.000 A 
ATOM     22  C   UNL     1      -1.002  10.180  17.935  0.00  0.00    +0.000 A 
BRANCH  17  23
ATOM     23  C   UNL     1      -3.222  11.052  17.098  0.00  0.00    +0.000 C 
ATOM     24  F   UNL     1      -4.173  11.881  17.628  0.00  0.00    +0.000 F 
ATOM     25  F   UNL     1      -3.672   9.789  17.368  0.00  0.00    +0.000 F 
BRANCH  23  27
ATOM     26  C   UNL     1      -2.937   9.948  14.819  0.00  0.00    +0.000 C 
ATOM     27  C   UNL     1      -3.251  11.227  15.580  0.00  0.00    +0.000 C 
ENDBRANCH  23  27
ENDBRANCH  17  23
ENDBRANCH   1  21
BRANCH   8  28
ATOM     28  C   UNL     1       1.030   8.731  21.098  0.00  0.00    +0.000 A 
ATOM     29  C   UNL     1       1.905   9.036  22.150  0.00  0.00    +0.000 A 
ATOM     30  C   UNL     1       1.397   9.315  23.421  0.00  0.00    +0.000 A 
ATOM     31  C   UNL     1       0.023   9.261  23.652  0.00  0.00    +0.000 A 
ATOM     32  C   UNL     1      -0.845   8.896  22.624  0.00  0.00    +0.000 A 
ATOM     33  C   UNL     1      -0.342   8.613  21.352  0.00  0.00    +0.000 A 
ENDBRANCH   8  28
TORSDOF 5
ENDMDL
MODEL 2
REMARK VINA RESULT:      -8.5      0.722      1.079
REMARK  Name = 
REMARK  6 active torsions:
REMARK  status: ('A' for Active; 'I' for Inactive)
REMARK    1  A    between atoms: C_1  and  C_2
REMARK    2  A    between atoms: C_2  and  C_3
REMARK    3  A    between atoms: C_3  and  C_6
REMARK    4  A    between atoms: C_10  and  C_11
REMARK    5  A    between atoms: C_15  and  C_17
REMARK    6  A    between atoms: N_24  and  C_25
REMARK                            x       y       z     vdW  Elec       q    Type
REMARK                         _______ _______ _______ _____ _____    ______ ____
ROOT
ATOM      1  C   UNL     1       1.110   9.071  18.511  0.00  0.00    +0.000 A 
ATOM      2  C   UNL     1       1.815   8.358  17.548  0.00  0.00    +0.000 A 
ATOM      3  C   UNL     1       2.713   7.529  18.245  0.00  0.00    +0.000 A 
ATOM      4  N   UNL     1       3.608   6.658  17.641  0.00  0.00    +0.000 N 
ATOM      5  C   UNL     1       4.423   5.799  18.347  0.00  0.00    +0.000 C 
ATOM      6  O   UNL     1       4.449   5.656  19.569  0.00  0.00    +0.000 OA
ATOM      7  N   UNL     1       2.611   7.726  19.551  0.00  0.00    +0.000 NA
ATOM      8  N   UNL     1       1.539   8.529  19.727  0.00  0.00    +0.000 N 
ATOM      9  H   UNL     1       3.591   6.629  16.630  0.00  0.00    +0.000 HD
ENDROOT
BRANCH   5  10
ATOM     10  C   UNL     1       5.294   4.925  17.465  0.00  0.00    +0.000 C 
ATOM     11  C   UNL     1       6.694   4.804  18.058  0.00  0.00    +0.000 C 
ATOM     12  N   UNL     1       7.530   4.576  16.921  0.00  0.00    +0.000 N 
ATOM     13  C   UNL     1       6.968   5.082  15.771  0.00  0.00    +0.000 C 
ATOM     14  O   UNL     1       7.539   5.191  14.702  0.00  0.00    +0.000 OA
ATOM     15  C   UNL     1       5.549   5.500  16.070  0.00  0.00    +0.000 C 
ATOM     16  H   UNL     1       8.527   4.402  16.960  0.00  0.00    +0.000 HD
ENDBRANCH   5  10
BRANCH   1  21
ATOM     17  C   UNL     1      -1.897  11.050  17.336  0.00  0.00    +0.000 A 
ATOM     18  C   UNL     1      -1.616  12.319  17.859  0.00  0.00    +0.000 A 
ATOM     19  C   UNL     1      -0.440  12.539  18.569  0.00  0.00    +0.000 A 
ATOM     20  C   UNL     1       0.473  11.500  18.743  0.00  0.00    +0.000 A 
ATOM     21  C   UNL     1       0.185  10.198  18.305  0.00  0.00    +0.000 A 
ATOM     22  C   UNL     1      -1.003   9.997  17.590  0.00  0.00    +0.000 A 
BRANCH  17  23
ATOM     23  C   UNL     1      -3.113  10.815  16.464  0.00  0.00    +0.000 C 
ATOM     24  F   UNL     1      -3.436   9.489  16.365  0.00  0.00    +0.000 F 
ATOM     25  F   UNL     1      -2.867  11.211  15.178  0.00  0.00    +0.000 F 
BRANCH  23  27
ATOM     26  C   UNL     1      -5.083  10.867  18.080  0.00  0.00    +0.000 C 
ATOM     27  C   UNL     1      -4.361  11.561  16.935  0.00  0.00    +0.000 C 
ENDBRANCH  23  27
ENDBRANCH  17  23
ENDBRANCH   1  21
BRANCH   8  28
ATOM     28  C   UNL     1       1.029   8.714  21.044  0.00  0.00    +0.000 A 
ATOM     29  C   UNL     1       1.919   9.023  22.082  0.00  0.00    +0.000 A 
ATOM     30  C   UNL     1       1.428   9.328  23.353  0.00  0.00    +0.000 A 
ATOM     31  C   UNL     1       0.056   9.295  23.601  0.00  0.00    +0.000 A 
ATOM     32  C   UNL     1      -0.827   8.926  22.588  0.00  0.00    +0.000 A 
ATOM     33  C   UNL     1      -0.342   8.618  21.315  0.00  0.00    +0.000 A 
ENDBRANCH   8  28
TORSDOF 5
ENDMDL
MODEL 3
REMARK VINA RESULT:      -8.5      4.509      8.682
REMARK  Name = 
REMARK  6 active torsions:
REMARK  status: ('A' for Active; 'I' for Inactive)
REMARK    1  A    between atoms: C_1  and  C_2
REMARK    2  A    between atoms: C_2  and  C_3
REMARK    3  A    between atoms: C_3  and  C_6
REMARK    4  A    between atoms: C_10  and  C_11
REMARK    5  A    between atoms: C_15  and  C_17
REMARK    6  A    between atoms: N_24  and  C_25
REMARK                            x       y       z     vdW  Elec       q    Type
REMARK                         _______ _______ _______ _____ _____    ______ ____
ROOT
ATOM      1  C   UNL     1       3.785   6.972  17.774  0.00  0.00    +0.000 A 
ATOM      2  C   UNL     1       3.696   8.353  17.649  0.00  0.00    +0.000 A 
ATOM      3  C   UNL     1       2.368   8.697  17.962  0.00  0.00    +0.000 A 
ATOM      4  N   UNL     1       1.868   9.990  17.948  0.00  0.00    +0.000 N 
ATOM      5  C   UNL     1       0.584  10.310  18.335  0.00  0.00    +0.000 C 
ATOM      6  O   UNL     1      -0.264   9.531  18.769  0.00  0.00    +0.000 OA
ATOM      7  N   UNL     1       1.658   7.612  18.232  0.00  0.00    +0.000 NA
ATOM      8  N   UNL     1       2.539   6.589  18.281  0.00  0.00    +0.000 N 
ATOM      9  H   UNL     1       2.522  10.721  17.700  0.00  0.00    +0.000 HD
ENDROOT
BRANCH   5  10
ATOM     10  C   UNL     1       0.278  11.794  18.260  0.00  0.00    +0.000 C 
ATOM     11  C   UNL     1       1.359  12.595  18.978  0.00  0.00    +0.000 C 
ATOM     12  N   UNL     1       0.682  13.778  19.407  0.00  0.00    +0.000 N 
ATOM     13  C   UNL     1      -0.669  13.563  19.552  0.00  0.00    +0.000 C 
ATOM     14  O   UNL     1      -1.450  14.335  20.077  0.00  0.00    +0.000 OA
ATOM     15  C   UNL     1      -1.006  12.206  18.981  0.00  0.00    +0.000 C 
ATOM     16  H   UNL     1       1.122  14.558  19.882  0.00  0.00    +0.000 HD
ENDBRANCH   5  10
BRANCH   1  21
ATOM     17  C   UNL     1       6.048   4.810  15.641  0.00  0.00    +0.000 A 
ATOM     18  C   UNL     1       7.009   4.406  16.577  0.00  0.00    +0.000 A 
ATOM     19  C   UNL     1       6.908   4.812  17.904  0.00  0.00    +0.000 A 
ATOM     20  C   UNL     1       5.836   5.606  18.309  0.00  0.00    +0.000 A 
ATOM     21  C   UNL     1       4.904   6.097  17.383  0.00  0.00    +0.000 A 
ATOM     22  C   UNL     1       5.020   5.675  16.052  0.00  0.00    +0.000 A 
BRANCH  17  23
ATOM     23  C   UNL     1       6.072   4.289  14.219  0.00  0.00    +0.000 C 
ATOM     24  F   UNL     1       4.872   4.450  13.583  0.00  0.00    +0.000 F 
ATOM     25  F   UNL     1       6.296   2.939  14.205  0.00  0.00    +0.000 F 
BRANCH  23  27
ATOM     26  C   UNL     1       7.241   4.326  11.955  0.00  0.00    +0.000 C 
ATOM     27  C   UNL     1       7.148   4.934  13.346  0.00  0.00    +0.000 C 
ENDBRANCH  23  27
ENDBRANCH  17  23
ENDBRANCH   1  21
BRANCH   8  28
ATOM     28  C   UNL     1       2.106   5.334  18.798  0.00  0.00    +0.000 A 
ATOM     29  C   UNL     1       1.981   5.176  20.186  0.00  0.00    +0.000 A 
ATOM     30  C   UNL     1       1.443   3.998  20.708  0.00  0.00    +0.000 A 
ATOM     31  C   UNL     1       1.057   2.966  19.853  0.00  0.00    +0.000 A 
ATOM     32  C   UNL     1       1.239   3.094  18.477  0.00  0.00    +0.000 A 
ATOM     33  C   UNL     1       1.779   4.269  17.949  0.00  0.00    +0.000 A 
ENDBRANCH   8  28
TORSDOF 5
ENDMDL
MODEL 4
REMARK VINA RESULT:      -8.2      5.227      7.653
REMARK  Name = 
REMARK  6 active torsions:
REMARK  status: ('A' for Active; 'I' for Inactive)
REMARK    1  A    between atoms: C_1  and  C_2
REMARK    2  A    between atoms: C_2  and  C_3
REMARK    3  A    between atoms: C_3  and  C_6
REMARK    4  A    between atoms: C_10  and  C_11
REMARK    5  A    between atoms: C_15  and  C_17
REMARK    6  A    between atoms: N_24  and  C_25
REMARK                            x       y       z     vdW  Elec       q    Type
REMARK                         _______ _______ _______ _____ _____    ______ ____
ROOT
ATOM      1  C   UNL     1       4.668   5.254  17.007  0.00  0.00    +0.000 A 
ATOM      2  C   UNL     1       4.405   4.366  15.971  0.00  0.00    +0.000 A 
ATOM      3  C   UNL     1       5.393   4.589  14.994  0.00  0.00    +0.000 A 
ATOM      4  N   UNL     1       5.478   3.902  13.792  0.00  0.00    +0.000 N 
ATOM      5  C   UNL     1       6.501   4.083  12.886  0.00  0.00    +0.000 C 
ATOM      6  O   UNL     1       7.473   4.825  13.022  0.00  0.00    +0.000 OA
ATOM      7  N   UNL     1       6.203   5.568  15.367  0.00  0.00    +0.000 NA
ATOM      8  N   UNL     1       5.874   5.862  16.644  0.00  0.00    +0.000 N 
ATOM      9  H   UNL     1       4.775   3.193  13.631  0.00  0.00    +0.000 HD
ENDROOT
BRANCH   5  10
ATOM     10  C   UNL     1       6.391   3.199  11.659  0.00  0.00    +0.000 C 
ATOM     11  C   UNL     1       4.931   2.856  11.383  0.00  0.00    +0.000 C 
ATOM     12  N   UNL     1       4.995   1.596  10.713  0.00  0.00    +0.000 N 
ATOM     13  C   UNL     1       6.143   0.908  11.037  0.00  0.00    +0.000 C 
ATOM     14  O   UNL     1       6.364  -0.256  10.760  0.00  0.00    +0.000 OA
ATOM     15  C   UNL     1       7.053   1.829  11.813  0.00  0.00    +0.000 C 
ATOM     16  H   UNL     1       4.196   1.094  10.342  0.00  0.00    +0.000 HD
ENDBRANCH   5  10
BRANCH   1  21
ATOM     17  C   UNL     1       2.721   4.764  20.217  0.00  0.00    +0.000 A 
ATOM     18  C   UNL     1       2.211   6.051  20.432  0.00  0.00    +0.000 A 
ATOM     19  C   UNL     1       2.476   7.070  19.523  0.00  0.00    +0.000 A 
ATOM     20  C   UNL     1       3.234   6.806  18.383  0.00  0.00    +0.000 A 
ATOM     21  C   UNL     1       3.829   5.552  18.180  0.00  0.00    +0.000 A 
ATOM     22  C   UNL     1       3.548   4.537  19.105  0.00  0.00    +0.000 A 
BRANCH  17  23
ATOM     23  C   UNL     1       2.352   3.613  21.130  0.00  0.00    +0.000 C 
ATOM     24  F   UNL     1       2.377   3.967  22.452  0.00  0.00    +0.000 F 
ATOM     25  F   UNL     1       3.265   2.601  21.023  0.00  0.00    +0.000 F 
BRANCH  23  27
ATOM     26  C   UNL     1       0.768   2.667  19.373  0.00  0.00    +0.000 C 
ATOM     27  C   UNL     1       0.976   3.013  20.839  0.00  0.00    +0.000 C 
ENDBRANCH  23  27
ENDBRANCH  17  23
ENDBRANCH   1  21
BRANCH   8  28
ATOM     28  C   UNL     1       6.739   6.707  17.398  0.00  0.00    +0.000 A 
ATOM     29  C   UNL     1       7.466   6.160  18.464  0.00  0.00    +0.000 A 
ATOM     30  C   UNL     1       8.409   6.940  19.137  0.00  0.00    +0.000 A 
ATOM     31  C   UNL     1       8.606   8.271  18.771  0.00  0.00    +0.000 A 
ATOM     32  C   UNL     1       7.839   8.837  17.754  0.00  0.00    +0.000 A 
ATOM     33  C   UNL     1       6.893   8.062  17.079  0.00  0.00    +0.000 A 
ENDBRANCH   8  28
TORSDOF 5
ENDMDL
MODEL 5
REMARK VINA RESULT:      -8.0      4.734      8.723
REMARK  Name = 
REMARK  6 active torsions:
REMARK  status: ('A' for Active; 'I' for Inactive)
REMARK    1  A    between atoms: C_1  and  C_2
REMARK    2  A    between atoms: C_2  and  C_3
REMARK    3  A    between atoms: C_3  and  C_6
REMARK    4  A    between atoms: C_10  and  C_11
REMARK    5  A    between atoms: C_15  and  C_17
REMARK    6  A    between atoms: N_24  and  C_25
REMARK                            x       y       z     vdW  Elec       q    Type
REMARK                         _______ _______ _______ _____ _____    ______ ____
ROOT
ATOM      1  C   UNL     1       3.824   6.897  17.758  0.00  0.00    +0.000 A 
ATOM      2  C   UNL     1       3.704   8.277  17.641  0.00  0.00    +0.000 A 
ATOM      3  C   UNL     1       2.361   8.585  17.929  0.00  0.00    +0.000 A 
ATOM      4  N   UNL     1       1.829   9.865  17.914  0.00  0.00    +0.000 N 
ATOM      5  C   UNL     1       0.530  10.151  18.276  0.00  0.00    +0.000 C 
ATOM      6  O   UNL     1      -0.307   9.348  18.687  0.00  0.00    +0.000 OA
ATOM      7  N   UNL     1       1.673   7.481  18.177  0.00  0.00    +0.000 NA
ATOM      8  N   UNL     1       2.578   6.479  18.237  0.00  0.00    +0.000 N 
ATOM      9  H   UNL     1       2.470  10.614  17.685  0.00  0.00    +0.000 HD
ENDROOT
BRANCH   5  10
ATOM     10  C   UNL     1       0.189  11.627  18.205  0.00  0.00    +0.000 C 
ATOM     11  C   UNL     1       1.282  12.456  18.870  0.00  0.00    +0.000 C 
ATOM     12  N   UNL     1       0.599  13.627  19.321  0.00  0.00    +0.000 N 
ATOM     13  C   UNL     1      -0.740  13.384  19.526  0.00  0.00    +0.000 C 
ATOM     14  O   UNL     1      -1.514  14.143  20.080  0.00  0.00    +0.000 OA
ATOM     15  C   UNL     1      -1.071  12.017  18.979  0.00  0.00    +0.000 C 
ATOM     16  H   UNL     1       1.041  14.420  19.771  0.00  0.00    +0.000 HD
ENDBRANCH   5  10
BRANCH   1  21
ATOM     17  C   UNL     1       6.237   4.889  15.640  0.00  0.00    +0.000 A 
ATOM     18  C   UNL     1       7.137   4.426  16.609  0.00  0.00    +0.000 A 
ATOM     19  C   UNL     1       6.947   4.741  17.950  0.00  0.00    +0.000 A 
ATOM     20  C   UNL     1       5.845   5.504  18.335  0.00  0.00    +0.000 A 
ATOM     21  C   UNL     1       4.972   6.054  17.385  0.00  0.00    +0.000 A 
ATOM     22  C   UNL     1       5.179   5.723  16.039  0.00  0.00    +0.000 A 
BRANCH  17  23
ATOM     23  C   UNL     1       6.359   4.465  14.192  0.00  0.00    +0.000 C 
ATOM     24  F   UNL     1       6.986   3.257  14.052  0.00  0.00    +0.000 F 
ATOM     25  F   UNL     1       7.141   5.346  13.496  0.00  0.00    +0.000 F 
BRANCH  23  27
ATOM     26  C   UNL     1       5.073   3.526  12.202  0.00  0.00    +0.000 C 
ATOM     27  C   UNL     1       5.019   4.376  13.462  0.00  0.00    +0.000 C 
ENDBRANCH  23  27
ENDBRANCH  17  23
ENDBRANCH   1  21
BRANCH   8  28
ATOM     28  C   UNL     1       2.166   5.211  18.736  0.00  0.00    +0.000 A 
ATOM     29  C   UNL     1       1.855   4.189  17.828  0.00  0.00    +0.000 A 
ATOM     30  C   UNL     1       1.568   2.905  18.295  0.00  0.00    +0.000 A 
ATOM     31  C   UNL     1       1.557   2.644  19.665  0.00  0.00    +0.000 A 
ATOM     32  C   UNL     1       1.802   3.672  20.573  0.00  0.00    +0.000 A 
ATOM     33  C   UNL     1       2.089   4.959  20.112  0.00  0.00    +0.000 A 
ENDBRANCH   8  28
TORSDOF 5
ENDMDL
MODEL 6
REMARK VINA RESULT:      -8.0      4.815      8.892
REMARK  Name = 
REMARK  6 active torsions:
REMARK  status: ('A' for Active; 'I' for Inactive)
REMARK    1  A    between atoms: C_1  and  C_2
REMARK    2  A    between atoms: C_2  and  C_3
REMARK    3  A    between atoms: C_3  and  C_6
REMARK    4  A    between atoms: C_10  and  C_11
REMARK    5  A    between atoms: C_15  and  C_17
REMARK    6  A    between atoms: N_24  and  C_25
REMARK                            x       y       z     vdW  Elec       q    Type
REMARK                         _______ _______ _______ _____ _____    ______ ____
ROOT
ATOM      1  C   UNL     1       2.761   6.525  19.163  0.00  0.00    +0.000 A 
ATOM      2  C   UNL     1       2.612   7.904  19.245  0.00  0.00    +0.000 A 
ATOM      3  C   UNL     1       1.540   8.138  20.126  0.00  0.00    +0.000 A 
ATOM      4  N   UNL     1       1.068   9.394  20.473  0.00  0.00    +0.000 N 
ATOM      5  C   UNL     1       0.068   9.600  21.399  0.00  0.00    +0.000 C 
ATOM      6  O   UNL     1      -0.506   8.733  22.058  0.00  0.00    +0.000 OA
ATOM      7  N   UNL     1       1.025   6.992  20.546  0.00  0.00    +0.000 NA
ATOM      8  N   UNL     1       1.854   6.022  20.101  0.00  0.00    +0.000 N 
ATOM      9  H   UNL     1       1.546  10.183  20.057  0.00  0.00    +0.000 HD
ENDROOT
BRANCH   5  10
ATOM     10  C   UNL     1      -0.257  11.063  21.629  0.00  0.00    +0.000 C 
ATOM     11  C   UNL     1      -1.066  11.231  22.911  0.00  0.00    +0.000 C 
ATOM     12  N   UNL     1      -1.831  12.415  22.682  0.00  0.00    +0.000 N 
ATOM     13  C   UNL     1      -2.024  12.641  21.338  0.00  0.00    +0.000 C 
ATOM     14  O   UNL     1      -2.787  13.464  20.868  0.00  0.00    +0.000 OA
ATOM     15  C   UNL     1      -1.159  11.680  20.559  0.00  0.00    +0.000 C 
ATOM     16  H   UNL     1      -2.451  12.846  23.359  0.00  0.00    +0.000 HD
ENDBRANCH   5  10
BRANCH   1  21
ATOM     17  C   UNL     1       5.849   5.312  17.337  0.00  0.00    +0.000 A 
ATOM     18  C   UNL     1       5.304   4.345  16.482  0.00  0.00    +0.000 A 
ATOM     19  C   UNL     1       3.934   4.107  16.477  0.00  0.00    +0.000 A 
ATOM     20  C   UNL     1       3.096   4.845  17.312  0.00  0.00    +0.000 A 
ATOM     21  C   UNL     1       3.616   5.760  18.240  0.00  0.00    +0.000 A 
ATOM     22  C   UNL     1       4.998   5.989  18.227  0.00  0.00    +0.000 A 
BRANCH  17  23
ATOM     23  C   UNL     1       7.319   5.669  17.279  0.00  0.00    +0.000 C 
ATOM     24  F   UNL     1       7.705   6.092  16.036  0.00  0.00    +0.000 F 
ATOM     25  F   UNL     1       8.093   4.569  17.528  0.00  0.00    +0.000 F 
BRANCH  23  27
ATOM     26  C   UNL     1       7.852   8.132  17.664  0.00  0.00    +0.000 C 
ATOM     27  C   UNL     1       7.731   6.747  18.281  0.00  0.00    +0.000 C 
ENDBRANCH  23  27
ENDBRANCH  17  23
ENDBRANCH   1  21
BRANCH   8  28
ATOM     28  C   UNL     1       1.696   4.699  20.606  0.00  0.00    +0.000 A 
ATOM     29  C   UNL     1       0.789   3.834  19.979  0.00  0.00    +0.000 A 
ATOM     30  C   UNL     1       0.708   2.499  20.380  0.00  0.00    +0.000 A 
ATOM     31  C   UNL     1       1.504   2.032  21.425  0.00  0.00    +0.000 A 
ATOM     32  C   UNL     1       2.361   2.905  22.094  0.00  0.00    +0.000 A 
ATOM     33  C   UNL     1       2.445   4.242  21.698  0.00  0.00    +0.000 A 
ENDBRANCH   8  28
TORSDOF 5
ENDMDL
MODEL 7
REMARK VINA RESULT:      -7.9      4.900      8.784
REMARK  Name = 
REMARK  6 active torsions:
REMARK  status: ('A' for Active; 'I' for Inactive)
REMARK    1  A    between atoms: C_1  and  C_2
REMARK    2  A    between atoms: C_2  and  C_3
REMARK    3  A    between atoms: C_3  and  C_6
REMARK    4  A    between atoms: C_10  and  C_11
REMARK    5  A    between atoms: C_15  and  C_17
REMARK    6  A    between atoms: N_24  and  C_25
REMARK                            x       y       z     vdW  Elec       q    Type
REMARK                         _______ _______ _______ _____ _____    ______ ____
ROOT
ATOM      1  C   UNL     1       2.777   6.573  18.908  0.00  0.00    +0.000 A 
ATOM      2  C   UNL     1       2.621   7.953  18.845  0.00  0.00    +0.000 A 
ATOM      3  C   UNL     1       1.528   8.268  19.673  0.00  0.00    +0.000 A 
ATOM      4  N   UNL     1       1.042   9.550  19.878  0.00  0.00    +0.000 N 
ATOM      5  C   UNL     1       0.020   9.843  20.755  0.00  0.00    +0.000 C 
ATOM      6  O   UNL     1      -0.565   9.046  21.487  0.00  0.00    +0.000 OA
ATOM      7  N   UNL     1       1.007   7.168  20.196  0.00  0.00    +0.000 NA
ATOM      8  N   UNL     1       1.850   6.163  19.872  0.00  0.00    +0.000 N 
ATOM      9  H   UNL     1       1.527  10.295  19.395  0.00  0.00    +0.000 HD
ENDROOT
BRANCH   5  10
ATOM     10  C   UNL     1      -0.316  11.321  20.827  0.00  0.00    +0.000 C 
ATOM     11  C   UNL     1       0.952  12.159  20.703  0.00  0.00    +0.000 C 
ATOM     12  N   UNL     1       0.641  13.360  21.411  0.00  0.00    +0.000 N 
ATOM     13  C   UNL     1      -0.333  13.149  22.361  0.00  0.00    +0.000 C 
ATOM     14  O   UNL     1      -0.654  13.944  23.224  0.00  0.00    +0.000 OA
ATOM     15  C   UNL     1      -0.904  11.765  22.167  0.00  0.00    +0.000 C 
ATOM     16  H   UNL     1       1.254  14.164  21.489  0.00  0.00    +0.000 HD
ENDBRANCH   5  10
BRANCH   1  21
ATOM     17  C   UNL     1       5.912   5.198  17.288  0.00  0.00    +0.000 A 
ATOM     18  C   UNL     1       5.390   4.147  16.523  0.00  0.00    +0.000 A 
ATOM     19  C   UNL     1       4.021   3.900  16.511  0.00  0.00    +0.000 A 
ATOM     20  C   UNL     1       3.162   4.715  17.247  0.00  0.00    +0.000 A 
ATOM     21  C   UNL     1       3.656   5.723  18.088  0.00  0.00    +0.000 A 
ATOM     22  C   UNL     1       5.038   5.958  18.084  0.00  0.00    +0.000 A 
BRANCH  17  23
ATOM     23  C   UNL     1       7.382   5.557  17.227  0.00  0.00    +0.000 C 
ATOM     24  F   UNL     1       7.766   5.976  15.982  0.00  0.00    +0.000 F 
ATOM     25  F   UNL     1       8.156   4.458  17.479  0.00  0.00    +0.000 F 
BRANCH  23  27
ATOM     26  C   UNL     1       7.857   8.030  17.616  0.00  0.00    +0.000 C 
ATOM     27  C   UNL     1       7.793   6.638  18.226  0.00  0.00    +0.000 C 
ENDBRANCH  23  27
ENDBRANCH  17  23
ENDBRANCH   1  21
BRANCH   8  28
ATOM     28  C   UNL     1       1.686   4.898  20.506  0.00  0.00    +0.000 A 
ATOM     29  C   UNL     1       0.741   3.997  19.995  0.00  0.00    +0.000 A 
ATOM     30  C   UNL     1       0.649   2.708  20.525  0.00  0.00    +0.000 A 
ATOM     31  C   UNL     1       1.473   2.325  21.582  0.00  0.00    +0.000 A 
ATOM     32  C   UNL     1       2.369   3.239  22.135  0.00  0.00    +0.000 A 
ATOM     33  C   UNL     1       2.464   4.530  21.611  0.00  0.00    +0.000 A 
ENDBRANCH   8  28
TORSDOF 5
ENDMDL
MODEL 8
REMARK VINA RESULT:      -7.9      2.161      3.204
REMARK  Name = 
REMARK  6 active torsions:
REMARK  status: ('A' for Active; 'I' for Inactive)
REMARK    1  A    between atoms: C_1  and  C_2
REMARK    2  A    between atoms: C_2  and  C_3
REMARK    3  A    between atoms: C_3  and  C_6
REMARK    4  A    between atoms: C_10  and  C_11
REMARK    5  A    between atoms: C_15  and  C_17
REMARK    6  A    between atoms: N_24  and  C_25
REMARK                            x       y       z     vdW  Elec       q    Type
REMARK                         _______ _______ _______ _____ _____    ______ ____
ROOT
ATOM      1  C   UNL     1       1.399   9.601  18.595  0.00  0.00    +0.000 A 
ATOM      2  C   UNL     1       2.069   8.918  17.587  0.00  0.00    +0.000 A 
ATOM      3  C   UNL     1       2.723   7.836  18.206  0.00  0.00    +0.000 A 
ATOM      4  N   UNL     1       3.510   6.910  17.540  0.00  0.00    +0.000 N 
ATOM      5  C   UNL     1       4.076   5.814  18.155  0.00  0.00    +0.000 C 
ATOM      6  O   UNL     1       3.941   5.487  19.334  0.00  0.00    +0.000 OA
ATOM      7  N   UNL     1       2.512   7.852  19.513  0.00  0.00    +0.000 NA
ATOM      8  N   UNL     1       1.587   8.812  19.733  0.00  0.00    +0.000 N 
ATOM      9  H   UNL     1       3.601   7.035  16.540  0.00  0.00    +0.000 HD
ENDROOT
BRANCH   5  10
ATOM     10  C   UNL     1       4.872   4.930  17.213  0.00  0.00    +0.000 C 
ATOM     11  C   UNL     1       6.150   4.448  17.892  0.00  0.00    +0.000 C 
ATOM     12  N   UNL     1       7.055   4.236  16.807  0.00  0.00    +0.000 N 
ATOM     13  C   UNL     1       6.729   5.010  15.717  0.00  0.00    +0.000 C 
ATOM     14  O   UNL     1       7.429   5.166  14.734  0.00  0.00    +0.000 OA
ATOM     15  C   UNL     1       5.384   5.648  15.964  0.00  0.00    +0.000 C 
ATOM     16  H   UNL     1       7.995   3.866  16.899  0.00  0.00    +0.000 HD
ENDBRANCH   5  10
BRANCH   1  21
ATOM     17  C   UNL     1       0.836  13.346  18.659  0.00  0.00    +0.000 A 
ATOM     18  C   UNL     1      -0.533  13.425  18.372  0.00  0.00    +0.000 A 
ATOM     19  C   UNL     1      -1.278  12.266  18.185  0.00  0.00    +0.000 A 
ATOM     20  C   UNL     1      -0.666  11.019  18.304  0.00  0.00    +0.000 A 
ATOM     21  C   UNL     1       0.717  10.903  18.506  0.00  0.00    +0.000 A 
ATOM     22  C   UNL     1       1.450  12.082  18.695  0.00  0.00    +0.000 A 
BRANCH  17  23
ATOM     23  C   UNL     1       1.642  14.587  18.979  0.00  0.00    +0.000 C 
ATOM     24  F   UNL     1       1.586  14.919  20.305  0.00  0.00    +0.000 F 
ATOM     25  F   UNL     1       1.131  15.675  18.326  0.00  0.00    +0.000 F 
BRANCH  23  27
ATOM     26  C   UNL     1       3.523  15.443  17.487  0.00  0.00    +0.000 C 
ATOM     27  C   UNL     1       3.117  14.479  18.592  0.00  0.00    +0.000 C 
ENDBRANCH  23  27
ENDBRANCH  17  23
ENDBRANCH   1  21
BRANCH   8  28
ATOM     28  C   UNL     1       0.974   8.892  21.017  0.00  0.00    +0.000 A 
ATOM     29  C   UNL     1       1.772   9.169  22.136  0.00  0.00    +0.000 A 
ATOM     30  C   UNL     1       1.177   9.373  23.383  0.00  0.00    +0.000 A 
ATOM     31  C   UNL     1      -0.207   9.272  23.523  0.00  0.00    +0.000 A 
ATOM     32  C   UNL     1      -0.997   8.933  22.426  0.00  0.00    +0.000 A 
ATOM     33  C   UNL     1      -0.407   8.726  21.177  0.00  0.00    +0.000 A 
ENDBRANCH   8  28
TORSDOF 5
ENDMDL
MODEL 9
REMARK VINA RESULT:      -7.9      4.671      8.610
REMARK  Name = 
REMARK  6 active torsions:
REMARK  status: ('A' for Active; 'I' for Inactive)
REMARK    1  A    between atoms: C_1  and  C_2
REMARK    2  A    between atoms: C_2  and  C_3
REMARK    3  A    between atoms: C_3  and  C_6
REMARK    4  A    between atoms: C_10  and  C_11
REMARK    5  A    between atoms: C_15  and  C_17
REMARK    6  A    between atoms: N_24  and  C_25
REMARK                            x       y       z     vdW  Elec       q    Type
REMARK                         _______ _______ _______ _____ _____    ______ ____
ROOT
ATOM      1  C   UNL     1       2.797   6.569  18.780  0.00  0.00    +0.000 A 
ATOM      2  C   UNL     1       2.646   7.947  18.667  0.00  0.00    +0.000 A 
ATOM      3  C   UNL     1       1.549   8.295  19.476  0.00  0.00    +0.000 A 
ATOM      4  N   UNL     1       1.067   9.586  19.632  0.00  0.00    +0.000 N 
ATOM      5  C   UNL     1       0.040   9.913  20.492  0.00  0.00    +0.000 C 
ATOM      6  O   UNL     1      -0.552   9.144  21.248  0.00  0.00    +0.000 OA
ATOM      7  N   UNL     1       1.022   7.216  20.035  0.00  0.00    +0.000 NA
ATOM      8  N   UNL     1       1.863   6.197  19.753  0.00  0.00    +0.000 N 
ATOM      9  H   UNL     1       1.557  10.311  19.125  0.00  0.00    +0.000 HD
ENDROOT
BRANCH   5  10
ATOM     10  C   UNL     1      -0.291  11.393  20.508  0.00  0.00    +0.000 C 
ATOM     11  C   UNL     1      -1.556  11.661  19.700  0.00  0.00    +0.000 C 
ATOM     12  N   UNL     1      -1.395  13.006  19.246  0.00  0.00    +0.000 N 
ATOM     13  C   UNL     1      -0.066  13.361  19.177  0.00  0.00    +0.000 C 
ATOM     14  O   UNL     1       0.363  14.372  18.653  0.00  0.00    +0.000 OA
ATOM     15  C   UNL     1       0.756  12.277  19.830  0.00  0.00    +0.000 C 
ATOM     16  H   UNL     1      -2.082  13.525  18.712  0.00  0.00    +0.000 HD
ENDBRANCH   5  10
BRANCH   1  21
ATOM     17  C   UNL     1       5.936   5.127  17.230  0.00  0.00    +0.000 A 
ATOM     18  C   UNL     1       5.416   4.051  16.500  0.00  0.00    +0.000 A 
ATOM     19  C   UNL     1       4.046   3.809  16.488  0.00  0.00    +0.000 A 
ATOM     20  C   UNL     1       3.185   4.653  17.188  0.00  0.00    +0.000 A 
ATOM     21  C   UNL     1       3.678   5.688  17.997  0.00  0.00    +0.000 A 
ATOM     22  C   UNL     1       5.061   5.917  17.994  0.00  0.00    +0.000 A 
BRANCH  17  23
ATOM     23  C   UNL     1       7.408   5.478  17.166  0.00  0.00    +0.000 C 
ATOM     24  F   UNL     1       7.791   5.901  15.923  0.00  0.00    +0.000 F 
ATOM     25  F   UNL     1       8.177   4.373  17.411  0.00  0.00    +0.000 F 
BRANCH  23  27
ATOM     26  C   UNL     1       7.819   7.957  17.588  0.00  0.00    +0.000 C 
ATOM     27  C   UNL     1       7.829   6.552  18.169  0.00  0.00    +0.000 C 
ENDBRANCH  23  27
ENDBRANCH  17  23
ENDBRANCH   1  21
BRANCH   8  28
ATOM     28  C   UNL     1       1.691   4.957  20.432  0.00  0.00    +0.000 A 
ATOM     29  C   UNL     1       0.741   4.044  19.951  0.00  0.00    +0.000 A 
ATOM     30  C   UNL     1       0.642   2.775  20.526  0.00  0.00    +0.000 A 
ATOM     31  C   UNL     1       1.463   2.425  21.597  0.00  0.00    +0.000 A 
ATOM     32  C   UNL     1       2.363   3.353  22.119  0.00  0.00    +0.000 A 
ATOM     33  C   UNL     1       2.466   4.624  21.549  0.00  0.00    +0.000 A 
ENDBRANCH   8  28
TORSDOF 5
ENDMDL
