MODEL 1
REMARK VINA RESULT:      -7.6      0.000      0.000
REMARK  Name = 
REMARK  9 active torsions:
REMARK  status: ('A' for Active; 'I' for Inactive)
REMARK    1  A    between atoms: C_1  and  C_2
REMARK    2  A    between atoms: C_2  and  C_3
REMARK    3  A    between atoms: C_3  and  C_5
REMARK    4  A    between atoms: C_9  and  C_10
REMARK    5  A    between atoms: C_10  and  C_11
REMARK    6  A    between atoms: N_15  and  C_16
REMARK    7  A    between atoms: C_16  and  C_17
REMARK    8  A    between atoms: C_17  and  O_18
REMARK    9  A    between atoms: O_18  and  C_19
REMARK                            x       y       z     vdW  Elec       q    Type
REMARK                         _______ _______ _______ _____ _____    ______ ____
ROOT
ATOM      1  C   UNL     1       3.686   6.832  17.900  0.00  0.00    +0.000 C 
ENDROOT
BRANCH   1   6
ATOM      2  C   UNL     1       6.426   5.157  15.824  0.00  0.00    +0.000 A 
ATOM      3  C   UNL     1       7.288   4.707  16.826  0.00  0.00    +0.000 A 
ATOM      4  C   UNL     1       6.978   4.909  18.168  0.00  0.00    +0.000 A 
ATOM      5  C   UNL     1       5.799   5.570  18.514  0.00  0.00    +0.000 A 
ATOM      6  C   UNL     1       4.935   6.070  17.524  0.00  0.00    +0.000 A 
ATOM      7  C   UNL     1       5.258   5.851  16.174  0.00  0.00    +0.000 A 
BRANCH   2   8
ATOM      8  C   UNL     1       6.793   4.850  14.410  0.00  0.00    +0.000 C 
ATOM      9  O   UNL     1       7.766   5.407  13.915  0.00  0.00    +0.000 OA
BRANCH   8  11
ATOM     10  C   UNL     1       6.545   3.587  12.262  0.00  0.00    +0.000 C 
ATOM     11  C   UNL     1       5.953   3.849  13.635  0.00  0.00    +0.000 C 
ENDBRANCH   8  11
ENDBRANCH   2   8
ENDBRANCH   1   6
BRANCH   1  12
ATOM     12  C   UNL     1       2.494   5.947  18.261  0.00  0.00    +0.000 C 
ATOM     13  C   UNL     1       2.406   4.613  17.511  0.00  0.00    +0.000 C 
ATOM     14  C   UNL     1       1.553   3.776  18.439  0.00  0.00    +0.000 C 
ATOM     15  O   UNL     1       0.959   2.756  18.135  0.00  0.00    +0.000 OA
ATOM     16  N   UNL     1       1.620   4.356  19.698  0.00  0.00    +0.000 N 
ATOM     17  C   UNL     1       2.517   5.485  19.718  0.00  0.00    +0.000 C 
BRANCH  16  18
ATOM     18  C   UNL     1       1.108   3.741  20.915  0.00  0.00    +0.000 C 
BRANCH  18  19
ATOM     19  C   UNL     1       1.757   2.398  21.263  0.00  0.00    +0.000 C 
BRANCH  19  20
ATOM     20  O   UNL     1       3.117   2.574  21.678  0.00  0.00    +0.000 OA
ATOM     21  C   UNL     1       4.014   2.153  20.656  0.00  0.00    +0.000 C 
ENDBRANCH  19  20
ENDBRANCH  18  19
ENDBRANCH  16  18
ENDBRANCH   1  12
TORSDOF 7
ENDMDL
MODEL 2
REMARK VINA RESULT:      -7.4      2.098      3.594
REMARK  Name = 
REMARK  9 active torsions:
REMARK  status: ('A' for Active; 'I' for Inactive)
REMARK    1  A    between atoms: C_1  and  C_2
REMARK    2  A    between atoms: C_2  and  C_3
REMARK    3  A    between atoms: C_3  and  C_5
REMARK    4  A    between atoms: C_9  and  C_10
REMARK    5  A    between atoms: C_10  and  C_11
REMARK    6  A    between atoms: N_15  and  C_16
REMARK    7  A    between atoms: C_16  and  C_17
REMARK    8  A    between atoms: C_17  and  O_18
REMARK    9  A    between atoms: O_18  and  C_19
REMARK                            x       y       z     vdW  Elec       q    Type
REMARK                         _______ _______ _______ _____ _____    ______ ____
ROOT
ATOM      1  C   UNL     1       5.366   5.186  16.100  0.00  0.00    +0.000 C 
ENDROOT
BRANCH   1   6
ATOM      2  C   UNL     1       5.764   3.643  12.624  0.00  0.00    +0.000 A 
ATOM      3  C   UNL     1       7.001   4.163  12.237  0.00  0.00    +0.000 A 
ATOM      4  C   UNL     1       7.724   4.981  13.100  0.00  0.00    +0.000 A 
ATOM      5  C   UNL     1       7.208   5.287  14.360  0.00  0.00    +0.000 A 
ATOM      6  C   UNL     1       5.946   4.811  14.757  0.00  0.00    +0.000 A 
ATOM      7  C   UNL     1       5.231   3.980  13.878  0.00  0.00    +0.000 A 
BRANCH   2   8
ATOM      8  C   UNL     1       5.073   2.725  11.671  0.00  0.00    +0.000 C 
ATOM      9  O   UNL     1       5.682   1.754  11.235  0.00  0.00    +0.000 OA
BRANCH   8  11
ATOM     10  C   UNL     1       3.568   3.883  10.039  0.00  0.00    +0.000 C 
ATOM     11  C   UNL     1       3.634   3.017  11.284  0.00  0.00    +0.000 C 
ENDBRANCH   8  11
ENDBRANCH   2   8
ENDBRANCH   1   6
BRANCH   1  12
ATOM     12  C   UNL     1       5.052   3.996  17.006  0.00  0.00    +0.000 C 
ATOM     13  C   UNL     1       5.552   4.111  18.450  0.00  0.00    +0.000 C 
ATOM     14  C   UNL     1       4.641   3.153  19.186  0.00  0.00    +0.000 C 
ATOM     15  O   UNL     1       4.849   2.677  20.289  0.00  0.00    +0.000 OA
ATOM     16  N   UNL     1       3.514   2.968  18.399  0.00  0.00    +0.000 N 
ATOM     17  C   UNL     1       3.551   3.788  17.213  0.00  0.00    +0.000 C 
BRANCH  16  18
ATOM     18  C   UNL     1       2.306   2.283  18.839  0.00  0.00    +0.000 C 
BRANCH  18  19
ATOM     19  C   UNL     1       1.118   3.212  19.107  0.00  0.00    +0.000 C 
BRANCH  19  20
ATOM     20  O   UNL     1       1.134   3.693  20.457  0.00  0.00    +0.000 OA
ATOM     21  C   UNL     1       1.476   2.648  21.361  0.00  0.00    +0.000 C 
ENDBRANCH  19  20
ENDBRANCH  18  19
ENDBRANCH  16  18
ENDBRANCH   1  12
TORSDOF 7
ENDMDL
MODEL 3
REMARK VINA RESULT:      -7.1      1.931      6.338
REMARK  Name = 
REMARK  9 active torsions:
REMARK  status: ('A' for Active; 'I' for Inactive)
REMARK    1  A    between atoms: C_1  and  C_2
REMARK    2  A    between atoms: C_2  and  C_3
REMARK    3  A    between atoms: C_3  and  C_5
REMARK    4  A    between atoms: C_9  and  C_10
REMARK    5  A    between atoms: C_10  and  C_11
REMARK    6  A    between atoms: N_15  and  C_16
REMARK    7  A    between atoms: C_16  and  C_17
REMARK    8  A    between atoms: C_17  and  O_18
REMARK    9  A    between atoms: O_18  and  C_19
REMARK                            x       y       z     vdW  Elec       q    Type
REMARK                         _______ _______ _______ _____ _____    ______ ____
ROOT
ATOM      1  C   UNL     1       3.603   7.239  17.683  0.00  0.00    +0.000 C 
ENDROOT
BRANCH   1   6
ATOM      2  C   UNL     1       1.770   4.103  18.877  0.00  0.00    +0.000 A 
ATOM      3  C   UNL     1       1.396   4.483  20.168  0.00  0.00    +0.000 A 
ATOM      4  C   UNL     1       1.701   5.754  20.646  0.00  0.00    +0.000 A 
ATOM      5  C   UNL     1       2.389   6.654  19.831  0.00  0.00    +0.000 A 
ATOM      6  C   UNL     1       2.813   6.282  18.543  0.00  0.00    +0.000 A 
ATOM      7  C   UNL     1       2.491   4.998  18.072  0.00  0.00    +0.000 A 
BRANCH   2   8
ATOM      8  C   UNL     1       1.356   2.747  18.410  0.00  0.00    +0.000 C 
ATOM      9  O   UNL     1       0.186   2.405  18.542  0.00  0.00    +0.000 OA
BRANCH   8  11
ATOM     10  C   UNL     1       3.592   1.656  18.691  0.00  0.00    +0.000 C 
ATOM     11  C   UNL     1       2.396   1.841  17.775  0.00  0.00    +0.000 C 
ENDBRANCH   8  11
ENDBRANCH   2   8
ENDBRANCH   1   6
BRANCH   1  12
ATOM     12  C   UNL     1       5.014   6.762  17.340  0.00  0.00    +0.000 C 
ATOM     13  C   UNL     1       5.678   5.852  18.380  0.00  0.00    +0.000 C 
ATOM     14  C   UNL     1       6.713   5.119  17.555  0.00  0.00    +0.000 C 
ATOM     15  O   UNL     1       7.682   4.522  17.993  0.00  0.00    +0.000 OA
ATOM     16  N   UNL     1       6.322   5.208  16.227  0.00  0.00    +0.000 N 
ATOM     17  C   UNL     1       5.055   5.884  16.089  0.00  0.00    +0.000 C 
BRANCH  16  18
ATOM     18  C   UNL     1       6.933   4.460  15.137  0.00  0.00    +0.000 C 
BRANCH  18  19
ATOM     19  C   UNL     1       6.190   4.572  13.802  0.00  0.00    +0.000 C 
BRANCH  19  20
ATOM     20  O   UNL     1       6.847   3.811  12.781  0.00  0.00    +0.000 OA
ATOM     21  C   UNL     1       5.918   2.978  12.096  0.00  0.00    +0.000 C 
ENDBRANCH  19  20
ENDBRANCH  18  19
ENDBRANCH  16  18
ENDBRANCH   1  12
TORSDOF 7
ENDMDL
MODEL 4
REMARK VINA RESULT:      -7.1      2.155      3.565
REMARK  Name = 
REMARK  9 active torsions:
REMARK  status: ('A' for Active; 'I' for Inactive)
REMARK    1  A    between atoms: C_1  and  C_2
REMARK    2  A    between atoms: C_2  and  C_3
REMARK    3  A    between atoms: C_3  and  C_5
REMARK    4  A    between atoms: C_9  and  C_10
REMARK    5  A    between atoms: C_10  and  C_11
REMARK    6  A    between atoms: N_15  and  C_16
REMARK    7  A    between atoms: C_16  and  C_17
REMARK    8  A    between atoms: C_17  and  O_18
REMARK    9  A    between atoms: O_18  and  C_19
REMARK                            x       y       z     vdW  Elec       q    Type
REMARK                         _______ _______ _______ _____ _____    ______ ____
ROOT
ATOM      1  C   UNL     1       4.847   4.985  15.934  0.00  0.00    +0.000 C 
ENDROOT
BRANCH   1   6
ATOM      2  C   UNL     1       6.005   3.464  12.622  0.00  0.00    +0.000 A 
ATOM      3  C   UNL     1       7.215   4.132  12.425  0.00  0.00    +0.000 A 
ATOM      4  C   UNL     1       7.678   5.045  13.368  0.00  0.00    +0.000 A 
ATOM      5  C   UNL     1       6.926   5.298  14.516  0.00  0.00    +0.000 A 
ATOM      6  C   UNL     1       5.684   4.670  14.717  0.00  0.00    +0.000 A 
ATOM      7  C   UNL     1       5.234   3.745  13.761  0.00  0.00    +0.000 A 
BRANCH   2   8
ATOM      8  C   UNL     1       5.601   2.453  11.600  0.00  0.00    +0.000 C 
ATOM      9  O   UNL     1       4.451   2.463  11.177  0.00  0.00    +0.000 OA
BRANCH   8  11
ATOM     10  C   UNL     1       6.114   0.032  11.220  0.00  0.00    +0.000 C 
ATOM     11  C   UNL     1       6.634   1.454  11.110  0.00  0.00    +0.000 C 
ENDBRANCH   8  11
ENDBRANCH   2   8
ENDBRANCH   1   6
BRANCH   1  12
ATOM     12  C   UNL     1       4.627   3.798  16.871  0.00  0.00    +0.000 C 
ATOM     13  C   UNL     1       5.289   3.909  18.250  0.00  0.00    +0.000 C 
ATOM     14  C   UNL     1       4.459   2.960  19.085  0.00  0.00    +0.000 C 
ATOM     15  O   UNL     1       4.786   2.482  20.158  0.00  0.00    +0.000 OA
ATOM     16  N   UNL     1       3.248   2.786  18.432  0.00  0.00    +0.000 N 
ATOM     17  C   UNL     1       3.158   3.605  17.248  0.00  0.00    +0.000 C 
BRANCH  16  18
ATOM     18  C   UNL     1       2.091   2.113  19.008  0.00  0.00    +0.000 C 
BRANCH  18  19
ATOM     19  C   UNL     1       1.058   3.058  19.629  0.00  0.00    +0.000 C 
BRANCH  19  20
ATOM     20  O   UNL     1       1.571   3.674  20.817  0.00  0.00    +0.000 OA
ATOM     21  C   UNL     1       1.633   5.088  20.665  0.00  0.00    +0.000 C 
ENDBRANCH  19  20
ENDBRANCH  18  19
ENDBRANCH  16  18
ENDBRANCH   1  12
TORSDOF 7
ENDMDL
MODEL 5
REMARK VINA RESULT:      -7.0      3.207      3.910
REMARK  Name = 
REMARK  9 active torsions:
REMARK  status: ('A' for Active; 'I' for Inactive)
REMARK    1  A    between atoms: C_1  and  C_2
REMARK    2  A    between atoms: C_2  and  C_3
REMARK    3  A    between atoms: C_3  and  C_5
REMARK    4  A    between atoms: C_9  and  C_10
REMARK    5  A    between atoms: C_10  and  C_11
REMARK    6  A    between atoms: N_15  and  C_16
REMARK    7  A    between atoms: C_16  and  C_17
REMARK    8  A    between atoms: C_17  and  O_18
REMARK    9  A    between atoms: O_18  and  C_19
REMARK                            x       y       z     vdW  Elec       q    Type
REMARK                         _______ _______ _______ _____ _____    ______ ____
ROOT
ATOM      1  C   UNL     1       3.473   5.076  18.322  0.00  0.00    +0.000 C 
ENDROOT
BRANCH   1   6
ATOM      2  C   UNL     1       6.390   4.807  15.864  0.00  0.00    +0.000 A 
ATOM      3  C   UNL     1       7.477   4.753  16.739  0.00  0.00    +0.000 A 
ATOM      4  C   UNL     1       7.276   4.768  18.116  0.00  0.00    +0.000 A 
ATOM      5  C   UNL     1       5.980   4.843  18.627  0.00  0.00    +0.000 A 
ATOM      6  C   UNL     1       4.871   4.942  17.767  0.00  0.00    +0.000 A 
ATOM      7  C   UNL     1       5.089   4.916  16.380  0.00  0.00    +0.000 A 
BRANCH   2   8
ATOM      8  C   UNL     1       6.677   4.724  14.402  0.00  0.00    +0.000 C 
ATOM      9  O   UNL     1       7.633   5.342  13.948  0.00  0.00    +0.000 OA
BRANCH   8  11
ATOM     10  C   UNL     1       6.472   3.503  12.225  0.00  0.00    +0.000 C 
ATOM     11  C   UNL     1       5.780   3.866  13.526  0.00  0.00    +0.000 C 
ENDBRANCH   8  11
ENDBRANCH   2   8
ENDBRANCH   1   6
BRANCH   1  12
ATOM     12  C   UNL     1       3.169   6.438  18.945  0.00  0.00    +0.000 C 
ATOM     13  C   UNL     1       2.644   7.507  17.980  0.00  0.00    +0.000 C 
ATOM     14  C   UNL     1       1.922   8.456  18.911  0.00  0.00    +0.000 C 
ATOM     15  O   UNL     1       1.610   9.607  18.654  0.00  0.00    +0.000 OA
ATOM     16  N   UNL     1       1.641   7.758  20.076  0.00  0.00    +0.000 N 
ATOM     17  C   UNL     1       2.048   6.378  19.983  0.00  0.00    +0.000 C 
BRANCH  16  18
ATOM     18  C   UNL     1       0.774   8.248  21.140  0.00  0.00    +0.000 C 
BRANCH  18  19
ATOM     19  C   UNL     1       1.472   9.165  22.149  0.00  0.00    +0.000 C 
BRANCH  19  20
ATOM     20  O   UNL     1       0.692  10.340  22.404  0.00  0.00    +0.000 OA
ATOM     21  C   UNL     1      -0.494  10.011  23.120  0.00  0.00    +0.000 C 
ENDBRANCH  19  20
ENDBRANCH  18  19
ENDBRANCH  16  18
ENDBRANCH   1  12
TORSDOF 7
ENDMDL
MODEL 6
REMARK VINA RESULT:      -6.8      3.685      4.399
REMARK  Name = 
REMARK  9 active torsions:
REMARK  status: ('A' for Active; 'I' for Inactive)
REMARK    1  A    between atoms: C_1  and  C_2
REMARK    2  A    between atoms: C_2  and  C_3
REMARK    3  A    between atoms: C_3  and  C_5
REMARK    4  A    between atoms: C_9  and  C_10
REMARK    5  A    between atoms: C_10  and  C_11
REMARK    6  A    between atoms: N_15  and  C_16
REMARK    7  A    between atoms: C_16  and  C_17
REMARK    8  A    between atoms: C_17  and  O_18
REMARK    9  A    between atoms: O_18  and  C_19
REMARK                            x       y       z     vdW  Elec       q    Type
REMARK                         _______ _______ _______ _____ _____    ______ ____
ROOT
ATOM      1  C   UNL     1       2.722   6.232  18.072  0.00  0.00    +0.000 C 
ENDROOT
BRANCH   1   6
ATOM      2  C   UNL     1       6.072   5.162  16.572  0.00  0.00    +0.000 A 
ATOM      3  C   UNL     1       6.850   5.016  17.722  0.00  0.00    +0.000 A 
ATOM      4  C   UNL     1       6.295   5.228  18.981  0.00  0.00    +0.000 A 
ATOM      5  C   UNL     1       4.953   5.593  19.094  0.00  0.00    +0.000 A 
ATOM      6  C   UNL     1       4.160   5.787  17.950  0.00  0.00    +0.000 A 
ATOM      7  C   UNL     1       4.731   5.561  16.687  0.00  0.00    +0.000 A 
BRANCH   2   8
ATOM      8  C   UNL     1       6.717   4.858  15.260  0.00  0.00    +0.000 C 
ATOM      9  O   UNL     1       7.667   5.541  14.894  0.00  0.00    +0.000 OA
BRANCH   8  11
ATOM     10  C   UNL     1       6.392   3.956  12.947  0.00  0.00    +0.000 C 
ATOM     11  C   UNL     1       6.182   3.705  14.429  0.00  0.00    +0.000 C 
ENDBRANCH   8  11
ENDBRANCH   2   8
ENDBRANCH   1   6
BRANCH   1  12
ATOM     12  C   UNL     1       2.544   7.647  18.622  0.00  0.00    +0.000 C 
ATOM     13  C   UNL     1       1.623   8.564  17.810  0.00  0.00    +0.000 C 
ATOM     14  C   UNL     1       1.200   9.590  18.837  0.00  0.00    +0.000 C 
ATOM     15  O   UNL     1       0.721  10.685  18.596  0.00  0.00    +0.000 OA
ATOM     16  N   UNL     1       1.410   9.032  20.090  0.00  0.00    +0.000 N 
ATOM     17  C   UNL     1       1.873   7.669  19.995  0.00  0.00    +0.000 C 
BRANCH  16  18
ATOM     18  C   UNL     1       0.938   9.613  21.340  0.00  0.00    +0.000 C 
BRANCH  18  19
ATOM     19  C   UNL     1      -0.275   8.901  21.947  0.00  0.00    +0.000 C 
BRANCH  19  20
ATOM     20  O   UNL     1      -0.648   9.495  23.197  0.00  0.00    +0.000 OA
ATOM     21  C   UNL     1      -1.012  10.859  23.018  0.00  0.00    +0.000 C 
ENDBRANCH  19  20
ENDBRANCH  18  19
ENDBRANCH  16  18
ENDBRANCH   1  12
TORSDOF 7
ENDMDL
MODEL 7
REMARK VINA RESULT:      -6.7      2.739      6.619
REMARK  Name = 
REMARK  9 active torsions:
REMARK  status: ('A' for Active; 'I' for Inactive)
REMARK    1  A    between atoms: C_1  and  C_2
REMARK    2  A    between atoms: C_2  and  C_3
REMARK    3  A    between atoms: C_3  and  C_5
REMARK    4  A    between atoms: C_9  and  C_10
REMARK    5  A    between atoms: C_10  and  C_11
REMARK    6  A    between atoms: N_15  and  C_16
REMARK    7  A    between atoms: C_16  and  C_17
REMARK    8  A    between atoms: C_17  and  O_18
REMARK    9  A    between atoms: O_18  and  C_19
REMARK                            x       y       z     vdW  Elec       q    Type
REMARK                         _______ _______ _______ _____ _____    ______ ____
ROOT
ATOM      1  C   UNL     1       3.127   3.592  17.067  0.00  0.00    +0.000 C 
ENDROOT
BRANCH   1   6
ATOM      2  C   UNL     1       2.077   6.181  19.677  0.00  0.00    +0.000 A 
ATOM      3  C   UNL     1       1.789   5.362  20.771  0.00  0.00    +0.000 A 
ATOM      4  C   UNL     1       1.962   3.984  20.685  0.00  0.00    +0.000 A 
ATOM      5  C   UNL     1       2.423   3.416  19.497  0.00  0.00    +0.000 A 
ATOM      6  C   UNL     1       2.679   4.214  18.368  0.00  0.00    +0.000 A 
ATOM      7  C   UNL     1       2.507   5.604  18.472  0.00  0.00    +0.000 A 
BRANCH   2   8
ATOM      8  C   UNL     1       1.926   7.655  19.860  0.00  0.00    +0.000 C 
ATOM      9  O   UNL     1       2.122   8.396  18.904  0.00  0.00    +0.000 OA
BRANCH   8  11
ATOM     10  C   UNL     1       0.142   8.816  21.180  0.00  0.00    +0.000 C 
ATOM     11  C   UNL     1       1.523   8.187  21.225  0.00  0.00    +0.000 C 
ENDBRANCH   8  11
ENDBRANCH   2   8
ENDBRANCH   1   6
BRANCH   1  12
ATOM     12  C   UNL     1       4.638   3.628  16.838  0.00  0.00    +0.000 C 
ATOM     13  C   UNL     1       5.111   4.498  15.668  0.00  0.00    +0.000 C 
ATOM     14  C   UNL     1       6.546   4.793  16.045  0.00  0.00    +0.000 C 
ATOM     15  O   UNL     1       7.416   5.187  15.286  0.00  0.00    +0.000 OA
ATOM     16  N   UNL     1       6.666   4.585  17.411  0.00  0.00    +0.000 N 
ATOM     17  C   UNL     1       5.401   4.242  18.012  0.00  0.00    +0.000 C 
BRANCH  16  18
ATOM     18  C   UNL     1       7.832   4.958  18.201  0.00  0.00    +0.000 C 
BRANCH  18  19
ATOM     19  C   UNL     1       7.804   6.398  18.724  0.00  0.00    +0.000 C 
BRANCH  19  20
ATOM     20  O   UNL     1       7.197   7.280  17.771  0.00  0.00    +0.000 OA
ATOM     21  C   UNL     1       7.905   8.513  17.703  0.00  0.00    +0.000 C 
ENDBRANCH  19  20
ENDBRANCH  18  19
ENDBRANCH  16  18
ENDBRANCH   1  12
TORSDOF 7
ENDMDL
MODEL 8
REMARK VINA RESULT:      -6.7      1.974      3.393
REMARK  Name = 
REMARK  9 active torsions:
REMARK  status: ('A' for Active; 'I' for Inactive)
REMARK    1  A    between atoms: C_1  and  C_2
REMARK    2  A    between atoms: C_2  and  C_3
REMARK    3  A    between atoms: C_3  and  C_5
REMARK    4  A    between atoms: C_9  and  C_10
REMARK    5  A    between atoms: C_10  and  C_11
REMARK    6  A    between atoms: N_15  and  C_16
REMARK    7  A    between atoms: C_16  and  C_17
REMARK    8  A    between atoms: C_17  and  O_18
REMARK    9  A    between atoms: O_18  and  C_19
REMARK                            x       y       z     vdW  Elec       q    Type
REMARK                         _______ _______ _______ _____ _____    ______ ____
ROOT
ATOM      1  C   UNL     1       6.178   4.811  16.288  0.00  0.00    +0.000 C 
ENDROOT
BRANCH   1   6
ATOM      2  C   UNL     1       5.919   3.778  12.616  0.00  0.00    +0.000 A 
ATOM      3  C   UNL     1       7.071   4.366  12.087  0.00  0.00    +0.000 A 
ATOM      4  C   UNL     1       7.948   5.065  12.911  0.00  0.00    +0.000 A 
ATOM      5  C   UNL     1       7.673   5.183  14.274  0.00  0.00    +0.000 A 
ATOM      6  C   UNL     1       6.500   4.637  14.823  0.00  0.00    +0.000 A 
ATOM      7  C   UNL     1       5.628   3.927  13.981  0.00  0.00    +0.000 A 
BRANCH   2   8
ATOM      8  C   UNL     1       5.057   2.992  11.685  0.00  0.00    +0.000 C 
ATOM      9  O   UNL     1       5.394   1.852  11.384  0.00  0.00    +0.000 OA
BRANCH   8  11
ATOM     10  C   UNL     1       3.146   2.756  10.085  0.00  0.00    +0.000 C 
ATOM     11  C   UNL     1       3.785   3.626  11.152  0.00  0.00    +0.000 C 
ENDBRANCH   8  11
ENDBRANCH   2   8
ENDBRANCH   1   6
BRANCH   1  12
ATOM     12  C   UNL     1       4.684   4.899  16.600  0.00  0.00    +0.000 C 
ATOM     13  C   UNL     1       3.952   3.557  16.725  0.00  0.00    +0.000 C 
ATOM     14  C   UNL     1       2.748   3.923  17.564  0.00  0.00    +0.000 C 
ATOM     15  O   UNL     1       1.726   3.266  17.668  0.00  0.00    +0.000 OA
ATOM     16  N   UNL     1       3.048   5.105  18.225  0.00  0.00    +0.000 N 
ATOM     17  C   UNL     1       4.398   5.536  17.960  0.00  0.00    +0.000 C 
BRANCH  16  18
ATOM     18  C   UNL     1       2.237   5.682  19.289  0.00  0.00    +0.000 C 
BRANCH  18  19
ATOM     19  C   UNL     1       2.312   4.925  20.619  0.00  0.00    +0.000 C 
BRANCH  19  20
ATOM     20  O   UNL     1       1.150   4.109  20.814  0.00  0.00    +0.000 OA
ATOM     21  C   UNL     1       1.504   2.861  21.400  0.00  0.00    +0.000 C 
ENDBRANCH  19  20
ENDBRANCH  18  19
ENDBRANCH  16  18
ENDBRANCH   1  12
TORSDOF 7
ENDMDL
MODEL 9
REMARK VINA RESULT:      -6.7      4.256      6.868
REMARK  Name = 
REMARK  9 active torsions:
REMARK  status: ('A' for Active; 'I' for Inactive)
REMARK    1  A    between atoms: C_1  and  C_2
REMARK    2  A    between atoms: C_2  and  C_3
REMARK    3  A    between atoms: C_3  and  C_5
REMARK    4  A    between atoms: C_9  and  C_10
REMARK    5  A    between atoms: C_10  and  C_11
REMARK    6  A    between atoms: N_15  and  C_16
REMARK    7  A    between atoms: C_16  and  C_17
REMARK    8  A    between atoms: C_17  and  O_18
REMARK    9  A    between atoms: O_18  and  C_19
REMARK                            x       y       z     vdW  Elec       q    Type
REMARK                         _______ _______ _______ _____ _____    ______ ____
ROOT
ATOM      1  C   UNL     1       3.231   7.314  17.837  0.00  0.00    +0.000 C 
ENDROOT
BRANCH   1   6
ATOM      2  C   UNL     1       2.078   3.712  18.402  0.00  0.00    +0.000 A 
ATOM      3  C   UNL     1       3.012   3.006  17.641  0.00  0.00    +0.000 A 
ATOM      4  C   UNL     1       4.031   3.679  16.973  0.00  0.00    +0.000 A 
ATOM      5  C   UNL     1       4.118   5.069  17.061  0.00  0.00    +0.000 A 
ATOM      6  C   UNL     1       3.165   5.806  17.786  0.00  0.00    +0.000 A 
ATOM      7  C   UNL     1       2.148   5.113  18.462  0.00  0.00    +0.000 A 
BRANCH   2   8
ATOM      8  C   UNL     1       1.050   2.921  19.141  0.00  0.00    +0.000 C 
ATOM      9  O   UNL     1       0.310   2.174  18.511  0.00  0.00    +0.000 OA
BRANCH   8  11
ATOM     10  C   UNL     1       2.302   2.755  21.304  0.00  0.00    +0.000 C 
ATOM     11  C   UNL     1       0.965   3.058  20.651  0.00  0.00    +0.000 C 
ENDBRANCH   8  11
ENDBRANCH   2   8
ENDBRANCH   1   6
BRANCH   1  12
ATOM     12  C   UNL     1       1.982   7.980  18.414  0.00  0.00    +0.000 C 
ATOM     13  C   UNL     1       1.946   8.114  19.941  0.00  0.00    +0.000 C 
ATOM     14  C   UNL     1       0.971   9.253  20.143  0.00  0.00    +0.000 C 
ATOM     15  O   UNL     1       0.389   9.518  21.181  0.00  0.00    +0.000 OA
ATOM     16  N   UNL     1       0.910   9.961  18.951  0.00  0.00    +0.000 N 
ATOM     17  C   UNL     1       1.828   9.436  17.971  0.00  0.00    +0.000 C 
BRANCH  16  18
ATOM     18  C   UNL     1       0.247  11.249  18.791  0.00  0.00    +0.000 C 
BRANCH  18  19
ATOM     19  C   UNL     1      -1.282  11.171  18.764  0.00  0.00    +0.000 C 
BRANCH  19  20
ATOM     20  O   UNL     1      -1.847  11.697  19.972  0.00  0.00    +0.000 OA
ATOM     21  C   UNL     1      -3.050  12.406  19.698  0.00  0.00    +0.000 C 
ENDBRANCH  19  20
ENDBRANCH  18  19
ENDBRANCH  16  18
ENDBRANCH   1  12
TORSDOF 7
ENDMDL
