MODEL 1
REMARK VINA RESULT:      -7.1      0.000      0.000
REMARK  Name = 
REMARK  9 active torsions:
REMARK  status: ('A' for Active; 'I' for Inactive)
REMARK    1  A    between atoms: C_1  and  C_2
REMARK    2  A    between atoms: C_2  and  C_3
REMARK    3  A    between atoms: N_5  and  C_6
REMARK    4  A    between atoms: N_5  and  C_14
REMARK    5  A    between atoms: C_9  and  O_10
REMARK    6  A    between atoms: O_10  and  C_11
REMARK    7  A    between atoms: C_18  and  N_19
REMARK    8  A    between atoms: N_19  and  C_20
REMARK    9  A    between atoms: N_19  and  C_21
REMARK                            x       y       z     vdW  Elec       q    Type
REMARK                         _______ _______ _______ _____ _____    ______ ____
ROOT
ATOM      1  C   UNL     1       5.039   5.297  19.102  0.00  0.00    +0.000 C 
ATOM      2  O   UNL     1       5.784   4.350  19.370  0.00  0.00    +0.000 OA
ATOM      3  N   UNL     1       3.710   5.378  19.575  0.00  0.00    +0.000 N 
ENDROOT
BRANCH   3   4
ATOM      4  C   UNL     1       2.888   6.521  19.268  0.00  0.00    +0.000 A 
ATOM      5  C   UNL     1       2.788   7.026  17.967  0.00  0.00    +0.000 A 
ATOM      6  C   UNL     1       2.146   8.245  17.719  0.00  0.00    +0.000 A 
ATOM      7  C   UNL     1       1.541   8.956  18.751  0.00  0.00    +0.000 A 
ATOM      8  C   UNL     1       1.568   8.433  20.040  0.00  0.00    +0.000 A 
ATOM      9  C   UNL     1       2.228   7.219  20.293  0.00  0.00    +0.000 A 
BRANCH   7  10
ATOM     10  O   UNL     1       1.013  10.163  18.391  0.00  0.00    +0.000 OA
ATOM     11  C   UNL     1      -0.401  10.282  18.498  0.00  0.00    +0.000 C 
ENDBRANCH   7  10
ENDBRANCH   3   4
BRANCH   3  12
ATOM     12  C   UNL     1       3.022   4.102  19.955  0.00  0.00    +0.000 C 
ATOM     13  C   UNL     1       2.253   4.288  21.276  0.00  0.00    +0.000 C 
ATOM     14  C   UNL     1       1.345   3.087  21.372  0.00  0.00    +0.000 C 
ATOM     15  C   UNL     1       0.961   2.752  19.943  0.00  0.00    +0.000 C 
ATOM     16  C   UNL     1       1.930   3.498  18.983  0.00  0.00    +0.000 C 
BRANCH  16  17
ATOM     17  N   UNL     1       2.362   2.544  17.923  0.00  0.00    +0.000 NA
ATOM     18  C   UNL     1       2.928   3.258  16.764  0.00  0.00    +0.000 C 
ATOM     19  C   UNL     1       3.354   1.575  18.394  0.00  0.00    +0.000 C 
ENDBRANCH  16  17
ENDBRANCH   3  12
BRANCH   1  21
ATOM     20  C   UNL     1       7.029   6.255  17.843  0.00  0.00    +0.000 C 
ATOM     21  C   UNL     1       5.542   6.387  18.147  0.00  0.00    +0.000 C 
ENDBRANCH   1  21
TORSDOF 5
ENDMDL
MODEL 2
REMARK VINA RESULT:      -6.8      0.387      1.115
REMARK  Name = 
REMARK  9 active torsions:
REMARK  status: ('A' for Active; 'I' for Inactive)
REMARK    1  A    between atoms: C_1  and  C_2
REMARK    2  A    between atoms: C_2  and  C_3
REMARK    3  A    between atoms: N_5  and  C_6
REMARK    4  A    between atoms: N_5  and  C_14
REMARK    5  A    between atoms: C_9  and  O_10
REMARK    6  A    between atoms: O_10  and  C_11
REMARK    7  A    between atoms: C_18  and  N_19
REMARK    8  A    between atoms: N_19  and  C_20
REMARK    9  A    between atoms: N_19  and  C_21
REMARK                            x       y       z     vdW  Elec       q    Type
REMARK                         _______ _______ _______ _____ _____    ______ ____
ROOT
ATOM      1  C   UNL     1       5.165   5.183  19.173  0.00  0.00    +0.000 C 
ATOM      2  O   UNL     1       5.799   4.155  19.426  0.00  0.00    +0.000 OA
ATOM      3  N   UNL     1       3.817   5.361  19.564  0.00  0.00    +0.000 N 
ENDROOT
BRANCH   3   4
ATOM      4  C   UNL     1       3.126   6.593  19.281  0.00  0.00    +0.000 A 
ATOM      5  C   UNL     1       2.373   7.254  20.257  0.00  0.00    +0.000 A 
ATOM      6  C   UNL     1       1.554   8.338  19.918  0.00  0.00    +0.000 A 
ATOM      7  C   UNL     1       1.514   8.821  18.613  0.00  0.00    +0.000 A 
ATOM      8  C   UNL     1       2.312   8.221  17.643  0.00  0.00    +0.000 A 
ATOM      9  C   UNL     1       3.120   7.122  17.980  0.00  0.00    +0.000 A 
BRANCH   7  10
ATOM     10  O   UNL     1       0.622   9.834  18.397  0.00  0.00    +0.000 OA
ATOM     11  C   UNL     1      -0.266  10.122  19.471  0.00  0.00    +0.000 C 
ENDBRANCH   7  10
ENDBRANCH   3   4
BRANCH   3  12
ATOM     12  C   UNL     1       2.992   4.136  19.813  0.00  0.00    +0.000 C 
ATOM     13  C   UNL     1       2.248   4.262  21.155  0.00  0.00    +0.000 C 
ATOM     14  C   UNL     1       1.213   3.165  21.133  0.00  0.00    +0.000 C 
ATOM     15  C   UNL     1       0.793   3.032  19.682  0.00  0.00    +0.000 C 
ATOM     16  C   UNL     1       1.839   3.765  18.795  0.00  0.00    +0.000 C 
BRANCH  16  17
ATOM     17  N   UNL     1       2.163   2.888  17.634  0.00  0.00    +0.000 NA
ATOM     18  C   UNL     1       2.921   3.626  16.606  0.00  0.00    +0.000 C 
ATOM     19  C   UNL     1       2.934   1.701  18.009  0.00  0.00    +0.000 C 
ENDBRANCH  16  17
ENDBRANCH   3  12
BRANCH   1  21
ATOM     20  C   UNL     1       7.322   6.035  18.135  0.00  0.00    +0.000 C 
ATOM     21  C   UNL     1       5.830   6.275  18.327  0.00  0.00    +0.000 C 
ENDBRANCH   1  21
TORSDOF 5
ENDMDL
MODEL 3
REMARK VINA RESULT:      -6.6      1.935      3.980
REMARK  Name = 
REMARK  9 active torsions:
REMARK  status: ('A' for Active; 'I' for Inactive)
REMARK    1  A    between atoms: C_1  and  C_2
REMARK    2  A    between atoms: C_2  and  C_3
REMARK    3  A    between atoms: N_5  and  C_6
REMARK    4  A    between atoms: N_5  and  C_14
REMARK    5  A    between atoms: C_9  and  O_10
REMARK    6  A    between atoms: O_10  and  C_11
REMARK    7  A    between atoms: C_18  and  N_19
REMARK    8  A    between atoms: N_19  and  C_20
REMARK    9  A    between atoms: N_19  and  C_21
REMARK                            x       y       z     vdW  Elec       q    Type
REMARK                         _______ _______ _______ _____ _____    ______ ____
ROOT
ATOM      1  C   UNL     1       3.236   4.260  17.882  0.00  0.00    +0.000 C 
ATOM      2  O   UNL     1       3.928   3.327  17.461  0.00  0.00    +0.000 OA
ATOM      3  N   UNL     1       3.710   5.591  17.942  0.00  0.00    +0.000 N 
ENDROOT
BRANCH   3   4
ATOM      4  C   UNL     1       2.856   6.655  18.406  0.00  0.00    +0.000 A 
ATOM      5  C   UNL     1       2.492   7.720  17.575  0.00  0.00    +0.000 A 
ATOM      6  C   UNL     1       1.826   8.837  18.092  0.00  0.00    +0.000 A 
ATOM      7  C   UNL     1       1.460   8.891  19.434  0.00  0.00    +0.000 A 
ATOM      8  C   UNL     1       1.750   7.809  20.260  0.00  0.00    +0.000 A 
ATOM      9  C   UNL     1       2.433   6.696  19.745  0.00  0.00    +0.000 A 
BRANCH   7  10
ATOM     10  O   UNL     1       0.882  10.064  19.830  0.00  0.00    +0.000 OA
ATOM     11  C   UNL     1       0.047   9.992  20.980  0.00  0.00    +0.000 C 
ENDBRANCH   7  10
ENDBRANCH   3   4
BRANCH   3  12
ATOM     12  C   UNL     1       5.191   5.806  18.000  0.00  0.00    +0.000 C 
ATOM     13  C   UNL     1       5.741   5.340  19.361  0.00  0.00    +0.000 C 
ATOM     14  C   UNL     1       7.237   5.281  19.179  0.00  0.00    +0.000 C 
ATOM     15  C   UNL     1       7.455   4.868  17.735  0.00  0.00    +0.000 C 
ATOM     16  C   UNL     1       6.120   5.057  16.961  0.00  0.00    +0.000 C 
BRANCH  16  17
ATOM     17  N   UNL     1       6.424   5.722  15.662  0.00  0.00    +0.000 NA
ATOM     18  C   UNL     1       6.745   4.729  14.620  0.00  0.00    +0.000 C 
ATOM     19  C   UNL     1       5.325   6.559  15.176  0.00  0.00    +0.000 C 
ENDBRANCH  16  17
ENDBRANCH   3  12
BRANCH   1  21
ATOM     20  C   UNL     1       1.695   2.502  18.880  0.00  0.00    +0.000 C 
ATOM     21  C   UNL     1       1.843   3.954  18.444  0.00  0.00    +0.000 C 
ENDBRANCH   1  21
TORSDOF 5
ENDMDL
MODEL 4
REMARK VINA RESULT:      -6.6      1.796      3.852
REMARK  Name = 
REMARK  9 active torsions:
REMARK  status: ('A' for Active; 'I' for Inactive)
REMARK    1  A    between atoms: C_1  and  C_2
REMARK    2  A    between atoms: C_2  and  C_3
REMARK    3  A    between atoms: N_5  and  C_6
REMARK    4  A    between atoms: N_5  and  C_14
REMARK    5  A    between atoms: C_9  and  O_10
REMARK    6  A    between atoms: O_10  and  C_11
REMARK    7  A    between atoms: C_18  and  N_19
REMARK    8  A    between atoms: N_19  and  C_20
REMARK    9  A    between atoms: N_19  and  C_21
REMARK                            x       y       z     vdW  Elec       q    Type
REMARK                         _______ _______ _______ _____ _____    ______ ____
ROOT
ATOM      1  C   UNL     1       3.180   4.017  18.773  0.00  0.00    +0.000 C 
ATOM      2  O   UNL     1       3.826   3.013  18.458  0.00  0.00    +0.000 OA
ATOM      3  N   UNL     1       3.564   5.321  18.385  0.00  0.00    +0.000 N 
ENDROOT
BRANCH   3   4
ATOM      4  C   UNL     1       2.759   6.461  18.744  0.00  0.00    +0.000 A 
ATOM      5  C   UNL     1       2.456   7.467  17.818  0.00  0.00    +0.000 A 
ATOM      6  C   UNL     1       1.842   8.656  18.229  0.00  0.00    +0.000 A 
ATOM      7  C   UNL     1       1.465   8.844  19.556  0.00  0.00    +0.000 A 
ATOM      8  C   UNL     1       1.693   7.825  20.475  0.00  0.00    +0.000 A 
ATOM      9  C   UNL     1       2.325   6.639  20.068  0.00  0.00    +0.000 A 
BRANCH   7  10
ATOM     10  O   UNL     1       0.943  10.074  19.841  0.00  0.00    +0.000 OA
ATOM     11  C   UNL     1       1.075  11.059  18.822  0.00  0.00    +0.000 C 
ENDBRANCH   7  10
ENDBRANCH   3   4
BRANCH   3  12
ATOM     12  C   UNL     1       5.004   5.558  18.052  0.00  0.00    +0.000 C 
ATOM     13  C   UNL     1       5.875   5.385  19.310  0.00  0.00    +0.000 C 
ATOM     14  C   UNL     1       7.291   5.303  18.798  0.00  0.00    +0.000 C 
ATOM     15  C   UNL     1       7.198   4.608  17.454  0.00  0.00    +0.000 C 
ATOM     16  C   UNL     1       5.714   4.622  16.992  0.00  0.00    +0.000 C 
BRANCH  16  17
ATOM     17  N   UNL     1       5.676   5.011  15.553  0.00  0.00    +0.000 NA
ATOM     18  C   UNL     1       5.277   6.422  15.395  0.00  0.00    +0.000 C 
ATOM     19  C   UNL     1       6.959   4.818  14.874  0.00  0.00    +0.000 C 
ENDBRANCH  16  17
ENDBRANCH   3  12
BRANCH   1  21
ATOM     20  C   UNL     1       0.957   2.846  19.158  0.00  0.00    +0.000 C 
ATOM     21  C   UNL     1       1.963   3.856  19.693  0.00  0.00    +0.000 C 
ENDBRANCH   1  21
TORSDOF 5
ENDMDL
MODEL 5
REMARK VINA RESULT:      -6.5      1.925      4.042
REMARK  Name = 
REMARK  9 active torsions:
REMARK  status: ('A' for Active; 'I' for Inactive)
REMARK    1  A    between atoms: C_1  and  C_2
REMARK    2  A    between atoms: C_2  and  C_3
REMARK    3  A    between atoms: N_5  and  C_6
REMARK    4  A    between atoms: N_5  and  C_14
REMARK    5  A    between atoms: C_9  and  O_10
REMARK    6  A    between atoms: O_10  and  C_11
REMARK    7  A    between atoms: C_18  and  N_19
REMARK    8  A    between atoms: N_19  and  C_20
REMARK    9  A    between atoms: N_19  and  C_21
REMARK                            x       y       z     vdW  Elec       q    Type
REMARK                         _______ _______ _______ _____ _____    ______ ____
ROOT
ATOM      1  C   UNL     1       3.098   4.525  17.862  0.00  0.00    +0.000 C 
ATOM      2  O   UNL     1       3.684   3.555  17.373  0.00  0.00    +0.000 OA
ATOM      3  N   UNL     1       3.695   5.803  17.960  0.00  0.00    +0.000 N 
ENDROOT
BRANCH   3   4
ATOM      4  C   UNL     1       2.961   6.918  18.504  0.00  0.00    +0.000 A 
ATOM      5  C   UNL     1       2.534   6.935  19.837  0.00  0.00    +0.000 A 
ATOM      6  C   UNL     1       1.660   7.928  20.295  0.00  0.00    +0.000 A 
ATOM      7  C   UNL     1       1.242   8.955  19.454  0.00  0.00    +0.000 A 
ATOM      8  C   UNL     1       1.715   8.994  18.146  0.00  0.00    +0.000 A 
ATOM      9  C   UNL     1       2.577   7.988  17.680  0.00  0.00    +0.000 A 
BRANCH   7  10
ATOM     10  O   UNL     1       0.334   9.818  20.000  0.00  0.00    +0.000 OA
ATOM     11  C   UNL     1      -0.059  10.911  19.179  0.00  0.00    +0.000 C 
ENDBRANCH   7  10
ENDBRANCH   3   4
BRANCH   3  12
ATOM     12  C   UNL     1       5.191   5.880  17.965  0.00  0.00    +0.000 C 
ATOM     13  C   UNL     1       5.744   5.358  19.304  0.00  0.00    +0.000 C 
ATOM     14  C   UNL     1       7.221   5.161  19.068  0.00  0.00    +0.000 C 
ATOM     15  C   UNL     1       7.347   4.739  17.616  0.00  0.00    +0.000 C 
ATOM     16  C   UNL     1       6.008   5.055  16.891  0.00  0.00    +0.000 C 
BRANCH  16  17
ATOM     17  N   UNL     1       6.326   5.696  15.584  0.00  0.00    +0.000 NA
ATOM     18  C   UNL     1       6.549   4.683  14.535  0.00  0.00    +0.000 C 
ATOM     19  C   UNL     1       5.278   6.610  15.124  0.00  0.00    +0.000 C 
ENDBRANCH  16  17
ENDBRANCH   3  12
BRANCH   1  21
ATOM     20  C   UNL     1       1.659   3.153  19.445  0.00  0.00    +0.000 C 
ATOM     21  C   UNL     1       1.705   4.322  18.468  0.00  0.00    +0.000 C 
ENDBRANCH   1  21
TORSDOF 5
ENDMDL
MODEL 6
REMARK VINA RESULT:      -6.5      1.845      4.431
REMARK  Name = 
REMARK  9 active torsions:
REMARK  status: ('A' for Active; 'I' for Inactive)
REMARK    1  A    between atoms: C_1  and  C_2
REMARK    2  A    between atoms: C_2  and  C_3
REMARK    3  A    between atoms: N_5  and  C_6
REMARK    4  A    between atoms: N_5  and  C_14
REMARK    5  A    between atoms: C_9  and  O_10
REMARK    6  A    between atoms: O_10  and  C_11
REMARK    7  A    between atoms: C_18  and  N_19
REMARK    8  A    between atoms: N_19  and  C_20
REMARK    9  A    between atoms: N_19  and  C_21
REMARK                            x       y       z     vdW  Elec       q    Type
REMARK                         _______ _______ _______ _____ _____    ______ ____
ROOT
ATOM      1  C   UNL     1       2.488   4.102  17.536  0.00  0.00    +0.000 C 
ATOM      2  O   UNL     1       2.836   3.091  16.918  0.00  0.00    +0.000 OA
ATOM      3  N   UNL     1       3.268   5.281  17.567  0.00  0.00    +0.000 N 
ENDROOT
BRANCH   3   4
ATOM      4  C   UNL     1       2.805   6.450  18.270  0.00  0.00    +0.000 A 
ATOM      5  C   UNL     1       2.579   6.435  19.651  0.00  0.00    +0.000 A 
ATOM      6  C   UNL     1       1.948   7.513  20.285  0.00  0.00    +0.000 A 
ATOM      7  C   UNL     1       1.583   8.648  19.567  0.00  0.00    +0.000 A 
ATOM      8  C   UNL     1       1.866   8.710  18.206  0.00  0.00    +0.000 A 
ATOM      9  C   UNL     1       2.483   7.622  17.567  0.00  0.00    +0.000 A 
BRANCH   7  10
ATOM     10  O   UNL     1       0.911   9.596  20.286  0.00  0.00    +0.000 OA
ATOM     11  C   UNL     1      -0.040   9.109  21.226  0.00  0.00    +0.000 C 
ENDBRANCH   7  10
ENDBRANCH   3   4
BRANCH   3  12
ATOM     12  C   UNL     1       4.738   5.155  17.309  0.00  0.00    +0.000 C 
ATOM     13  C   UNL     1       5.052   5.521  15.846  0.00  0.00    +0.000 C 
ATOM     14  C   UNL     1       6.550   5.693  15.798  0.00  0.00    +0.000 C 
ATOM     15  C   UNL     1       6.938   6.255  17.152  0.00  0.00    +0.000 C 
ATOM     16  C   UNL     1       5.745   6.057  18.130  0.00  0.00    +0.000 C 
BRANCH  16  17
ATOM     17  N   UNL     1       6.281   5.542  19.421  0.00  0.00    +0.000 NA
ATOM     18  C   UNL     1       5.848   4.151  19.659  0.00  0.00    +0.000 C 
ATOM     19  C   UNL     1       7.743   5.586  19.494  0.00  0.00    +0.000 C 
ENDBRANCH  16  17
ENDBRANCH   3  12
BRANCH   1  21
ATOM     20  C   UNL     1       1.201   2.901  19.369  0.00  0.00    +0.000 C 
ATOM     21  C   UNL     1       1.204   4.053  18.373  0.00  0.00    +0.000 C 
ENDBRANCH   1  21
TORSDOF 5
ENDMDL
MODEL 7
REMARK VINA RESULT:      -6.5      1.924      3.944
REMARK  Name = 
REMARK  9 active torsions:
REMARK  status: ('A' for Active; 'I' for Inactive)
REMARK    1  A    between atoms: C_1  and  C_2
REMARK    2  A    between atoms: C_2  and  C_3
REMARK    3  A    between atoms: N_5  and  C_6
REMARK    4  A    between atoms: N_5  and  C_14
REMARK    5  A    between atoms: C_9  and  O_10
REMARK    6  A    between atoms: O_10  and  C_11
REMARK    7  A    between atoms: C_18  and  N_19
REMARK    8  A    between atoms: N_19  and  C_20
REMARK    9  A    between atoms: N_19  and  C_21
REMARK                            x       y       z     vdW  Elec       q    Type
REMARK                         _______ _______ _______ _____ _____    ______ ____
ROOT
ATOM      1  C   UNL     1       2.637   4.453  18.409  0.00  0.00    +0.000 C 
ATOM      2  O   UNL     1       3.125   3.409  17.965  0.00  0.00    +0.000 OA
ATOM      3  N   UNL     1       3.256   5.713  18.241  0.00  0.00    +0.000 N 
ENDROOT
BRANCH   3   4
ATOM      4  C   UNL     1       2.633   6.911  18.744  0.00  0.00    +0.000 A 
ATOM      5  C   UNL     1       2.272   7.042  20.089  0.00  0.00    +0.000 A 
ATOM      6  C   UNL     1       1.497   8.125  20.521  0.00  0.00    +0.000 A 
ATOM      7  C   UNL     1       1.115   9.127  19.634  0.00  0.00    +0.000 A 
ATOM      8  C   UNL     1       1.526   9.050  18.307  0.00  0.00    +0.000 A 
ATOM      9  C   UNL     1       2.289   7.955  17.870  0.00  0.00    +0.000 A 
BRANCH   7  10
ATOM     10  O   UNL     1       0.301  10.089  20.162  0.00  0.00    +0.000 OA
ATOM     11  C   UNL     1      -0.158   9.857  21.489  0.00  0.00    +0.000 C 
ENDBRANCH   7  10
ENDBRANCH   3   4
BRANCH   3  12
ATOM     12  C   UNL     1       4.734   5.742  17.997  0.00  0.00    +0.000 C 
ATOM     13  C   UNL     1       5.492   5.411  19.296  0.00  0.00    +0.000 C 
ATOM     14  C   UNL     1       6.909   5.133  18.862  0.00  0.00    +0.000 C 
ATOM     15  C   UNL     1       6.797   4.492  17.492  0.00  0.00    +0.000 C 
ATOM     16  C   UNL     1       5.361   4.737  16.948  0.00  0.00    +0.000 C 
BRANCH  16  17
ATOM     17  N   UNL     1       5.468   5.162  15.524  0.00  0.00    +0.000 NA
ATOM     18  C   UNL     1       5.224   6.610  15.381  0.00  0.00    +0.000 C 
ATOM     19  C   UNL     1       6.772   4.856  14.931  0.00  0.00    +0.000 C 
ENDBRANCH  16  17
ENDBRANCH   3  12
BRANCH   1  21
ATOM     20  C   UNL     1       1.490   3.408  20.422  0.00  0.00    +0.000 C 
ATOM     21  C   UNL     1       1.359   4.374  19.251  0.00  0.00    +0.000 C 
ENDBRANCH   1  21
TORSDOF 5
ENDMDL
MODEL 8
REMARK VINA RESULT:      -6.3      1.242      2.392
REMARK  Name = 
REMARK  9 active torsions:
REMARK  status: ('A' for Active; 'I' for Inactive)
REMARK    1  A    between atoms: C_1  and  C_2
REMARK    2  A    between atoms: C_2  and  C_3
REMARK    3  A    between atoms: N_5  and  C_6
REMARK    4  A    between atoms: N_5  and  C_14
REMARK    5  A    between atoms: C_9  and  O_10
REMARK    6  A    between atoms: O_10  and  C_11
REMARK    7  A    between atoms: C_18  and  N_19
REMARK    8  A    between atoms: N_19  and  C_20
REMARK    9  A    between atoms: N_19  and  C_21
REMARK                            x       y       z     vdW  Elec       q    Type
REMARK                         _______ _______ _______ _____ _____    ______ ____
ROOT
ATOM      1  C   UNL     1       4.990   5.673  17.939  0.00  0.00    +0.000 C 
ATOM      2  O   UNL     1       5.636   4.628  17.813  0.00  0.00    +0.000 OA
ATOM      3  N   UNL     1       3.699   5.704  18.515  0.00  0.00    +0.000 N 
ENDROOT
BRANCH   3   4
ATOM      4  C   UNL     1       2.996   6.952  18.677  0.00  0.00    +0.000 A 
ATOM      5  C   UNL     1       2.365   7.289  19.879  0.00  0.00    +0.000 A 
ATOM      6  C   UNL     1       1.527   8.408  19.959  0.00  0.00    +0.000 A 
ATOM      7  C   UNL     1       1.347   9.244  18.861  0.00  0.00    +0.000 A 
ATOM      8  C   UNL     1       2.024   8.965  17.678  0.00  0.00    +0.000 A 
ATOM      9  C   UNL     1       2.850   7.832  17.592  0.00  0.00    +0.000 A 
BRANCH   7  10
ATOM     10  O   UNL     1       0.450  10.258  19.047  0.00  0.00    +0.000 OA
ATOM     11  C   UNL     1      -0.161  10.323  20.330  0.00  0.00    +0.000 C 
ENDBRANCH   7  10
ENDBRANCH   3   4
BRANCH   3  12
ATOM     12  C   UNL     1       2.891   4.443  18.495  0.00  0.00    +0.000 C 
ATOM     13  C   UNL     1       3.265   3.594  17.265  0.00  0.00    +0.000 C 
ATOM     14  C   UNL     1       2.665   2.236  17.530  0.00  0.00    +0.000 C 
ATOM     15  C   UNL     1       2.745   2.043  19.032  0.00  0.00    +0.000 C 
ATOM     16  C   UNL     1       3.029   3.420  19.694  0.00  0.00    +0.000 C 
BRANCH  16  17
ATOM     17  N   UNL     1       2.126   3.569  20.870  0.00  0.00    +0.000 NA
ATOM     18  C   UNL     1       0.803   4.078  20.463  0.00  0.00    +0.000 C 
ATOM     19  C   UNL     1       1.930   2.317  21.604  0.00  0.00    +0.000 C 
ENDBRANCH  16  17
ENDBRANCH   3  12
BRANCH   1  21
ATOM     20  C   UNL     1       7.091   6.999  17.403  0.00  0.00    +0.000 C 
ATOM     21  C   UNL     1       5.568   6.975  17.371  0.00  0.00    +0.000 C 
ENDBRANCH   1  21
TORSDOF 5
ENDMDL
MODEL 9
REMARK VINA RESULT:      -6.3      2.952      5.084
REMARK  Name = 
REMARK  9 active torsions:
REMARK  status: ('A' for Active; 'I' for Inactive)
REMARK    1  A    between atoms: C_1  and  C_2
REMARK    2  A    between atoms: C_2  and  C_3
REMARK    3  A    between atoms: N_5  and  C_6
REMARK    4  A    between atoms: N_5  and  C_14
REMARK    5  A    between atoms: C_9  and  O_10
REMARK    6  A    between atoms: O_10  and  C_11
REMARK    7  A    between atoms: C_18  and  N_19
REMARK    8  A    between atoms: N_19  and  C_20
REMARK    9  A    between atoms: N_19  and  C_21
REMARK                            x       y       z     vdW  Elec       q    Type
REMARK                         _______ _______ _______ _____ _____    ______ ____
ROOT
ATOM      1  C   UNL     1       5.654   5.233  19.052  0.00  0.00    +0.000 C 
ATOM      2  O   UNL     1       5.364   5.458  20.231  0.00  0.00    +0.000 OA
ATOM      3  N   UNL     1       4.676   4.982  18.062  0.00  0.00    +0.000 N 
ENDROOT
BRANCH   3   4
ATOM      4  C   UNL     1       5.058   4.760  16.691  0.00  0.00    +0.000 A 
ATOM      5  C   UNL     1       5.394   3.486  16.219  0.00  0.00    +0.000 A 
ATOM      6  C   UNL     1       5.947   3.318  14.943  0.00  0.00    +0.000 A 
ATOM      7  C   UNL     1       6.124   4.406  14.093  0.00  0.00    +0.000 A 
ATOM      8  C   UNL     1       5.728   5.671  14.519  0.00  0.00    +0.000 A 
ATOM      9  C   UNL     1       5.190   5.842  15.805  0.00  0.00    +0.000 A 
BRANCH   7  10
ATOM     10  O   UNL     1       6.739   4.120  12.907  0.00  0.00    +0.000 OA
ATOM     11  C   UNL     1       6.066   3.194  12.062  0.00  0.00    +0.000 C 
ENDBRANCH   7  10
ENDBRANCH   3   4
BRANCH   3  12
ATOM     12  C   UNL     1       3.342   4.469  18.509  0.00  0.00    +0.000 C 
ATOM     13  C   UNL     1       2.246   4.914  17.524  0.00  0.00    +0.000 C 
ATOM     14  C   UNL     1       1.042   4.074  17.871  0.00  0.00    +0.000 C 
ATOM     15  C   UNL     1       1.597   2.738  18.329  0.00  0.00    +0.000 C 
ATOM     16  C   UNL     1       3.115   2.907  18.620  0.00  0.00    +0.000 C 
BRANCH  16  17
ATOM     17  N   UNL     1       3.420   2.228  19.911  0.00  0.00    +0.000 NA
ATOM     18  C   UNL     1       4.871   2.010  20.067  0.00  0.00    +0.000 C 
ATOM     19  C   UNL     1       2.940   2.971  21.078  0.00  0.00    +0.000 C 
ENDBRANCH  16  17
ENDBRANCH   3  12
BRANCH   1  21
ATOM     20  C   UNL     1       7.793   6.499  18.521  0.00  0.00    +0.000 C 
ATOM     21  C   UNL     1       7.133   5.133  18.660  0.00  0.00    +0.000 C 
ENDBRANCH   1  21
TORSDOF 5
ENDMDL
