MODEL 1
REMARK VINA RESULT:      -6.5      0.000      0.000
REMARK  Name = 
REMARK  10 active torsions:
REMARK  status: ('A' for Active; 'I' for Inactive)
REMARK    1  A    between atoms: C_1  and  C_2
REMARK    2  A    between atoms: N_6  and  C_7
REMARK    3  A    between atoms: C_7  and  C_8
REMARK    4  A    between atoms: C_7  and  C_9
REMARK    5  A    between atoms: N_11  and  C_12
REMARK    6  A    between atoms: N_11  and  C_13
REMARK    7  A    between atoms: C_13  and  C_14
REMARK    8  A    between atoms: C_14  and  C_15
REMARK    9  A    between atoms: C_15  and  C_16
REMARK   10  A    between atoms: C_16  and  N_17
REMARK                            x       y       z     vdW  Elec       q    Type
REMARK                         _______ _______ _______ _____ _____    ______ ____
ROOT
ATOM      1  C   UNL     1       5.155   5.656  18.452  0.00  0.00    +0.000 C 
ATOM      2  O   UNL     1       5.645   5.369  19.547  0.00  0.00    +0.000 OA
ATOM      3  N   UNL     1       5.889   6.420  17.529  0.00  0.00    +0.000 N 
ATOM      4  C   UNL     1       5.546   6.599  16.119  0.00  0.00    +0.000 C 
ENDROOT
BRANCH   1   5
ATOM      5  C   UNL     1       3.724   5.241  18.098  0.00  0.00    +0.000 C 
ATOM      6  C   UNL     1       2.725   6.367  18.347  0.00  0.00    +0.000 C 
BRANCH   5  12
ATOM      7  C   UNL     1       2.293   4.638  20.935  0.00  0.00    +0.000 C 
ATOM      8  C   UNL     1       2.658   3.672  19.867  0.00  0.00    +0.000 A 
ATOM      9  N   UNL     1       2.385   2.379  19.941  0.00  0.00    +0.000 NA
ATOM     10  C   UNL     1       2.910   1.808  18.821  0.00  0.00    +0.000 A 
ATOM     11  C   UNL     1       3.500   2.758  18.029  0.00  0.00    +0.000 A 
ATOM     12  N   UNL     1       3.317   3.957  18.687  0.00  0.00    +0.000 N 
ENDBRANCH   5  12
ENDBRANCH   1   5
BRANCH   3  13
ATOM     13  C   UNL     1       7.261   6.763  17.930  0.00  0.00    +0.000 C 
BRANCH  13  14
ATOM     14  C   UNL     1       7.792   8.088  17.386  0.00  0.00    +0.000 C 
BRANCH  14  15
ATOM     15  C   UNL     1       8.457   8.904  18.499  0.00  0.00    +0.000 C 
BRANCH  15  16
ATOM     16  C   UNL     1       8.868  10.283  17.973  0.00  0.00    +0.000 C 
BRANCH  16  17
ATOM     17  N   UNL     1       9.168  11.274  19.020  0.00  0.00    +0.000 NA
ATOM     18  C   UNL     1       8.943  12.647  18.503  0.00  0.00    +0.000 C 
ATOM     19  C   UNL     1      10.004  13.104  17.482  0.00  0.00    +0.000 C 
ATOM     20  O   UNL     1      11.334  12.989  18.006  0.00  0.00    +0.000 OA
ATOM     21  C   UNL     1      11.600  11.660  18.475  0.00  0.00    +0.000 C 
ATOM     22  C   UNL     1      10.560  11.223  19.519  0.00  0.00    +0.000 C 
ENDBRANCH  16  17
ENDBRANCH  15  16
ENDBRANCH  14  15
ENDBRANCH  13  14
ENDBRANCH   3  13
TORSDOF 7
ENDMDL
MODEL 2
REMARK VINA RESULT:      -6.4      1.722      2.592
REMARK  Name = 
REMARK  10 active torsions:
REMARK  status: ('A' for Active; 'I' for Inactive)
REMARK    1  A    between atoms: C_1  and  C_2
REMARK    2  A    between atoms: N_6  and  C_7
REMARK    3  A    between atoms: C_7  and  C_8
REMARK    4  A    between atoms: C_7  and  C_9
REMARK    5  A    between atoms: N_11  and  C_12
REMARK    6  A    between atoms: N_11  and  C_13
REMARK    7  A    between atoms: C_13  and  C_14
REMARK    8  A    between atoms: C_14  and  C_15
REMARK    9  A    between atoms: C_15  and  C_16
REMARK   10  A    between atoms: C_16  and  N_17
REMARK                            x       y       z     vdW  Elec       q    Type
REMARK                         _______ _______ _______ _____ _____    ______ ____
ROOT
ATOM      1  C   UNL     1       6.101   6.340  17.059  0.00  0.00    +0.000 C 
ATOM      2  O   UNL     1       5.773   7.062  16.115  0.00  0.00    +0.000 OA
ATOM      3  N   UNL     1       7.236   6.654  17.827  0.00  0.00    +0.000 N 
ATOM      4  C   UNL     1       7.577   6.052  19.114  0.00  0.00    +0.000 C 
ENDROOT
BRANCH   1   5
ATOM      5  C   UNL     1       5.322   5.061  17.378  0.00  0.00    +0.000 C 
ATOM      6  C   UNL     1       4.775   4.397  16.117  0.00  0.00    +0.000 C 
BRANCH   5  12
ATOM      7  C   UNL     1       3.166   7.433  17.810  0.00  0.00    +0.000 C 
ATOM      8  C   UNL     1       3.347   6.198  18.616  0.00  0.00    +0.000 A 
ATOM      9  N   UNL     1       2.572   5.888  19.643  0.00  0.00    +0.000 NA
ATOM     10  C   UNL     1       3.065   4.730  20.164  0.00  0.00    +0.000 A 
ATOM     11  C   UNL     1       4.148   4.302  19.442  0.00  0.00    +0.000 A 
ATOM     12  N   UNL     1       4.314   5.228  18.435  0.00  0.00    +0.000 N 
ENDBRANCH   5  12
ENDBRANCH   1   5
BRANCH   3  13
ATOM     13  C   UNL     1       7.919   7.907  17.475  0.00  0.00    +0.000 C 
BRANCH  13  14
ATOM     14  C   UNL     1       8.557   8.657  18.644  0.00  0.00    +0.000 C 
BRANCH  14  15
ATOM     15  C   UNL     1       8.600  10.163  18.364  0.00  0.00    +0.000 C 
BRANCH  15  16
ATOM     16  C   UNL     1       9.507  10.866  19.379  0.00  0.00    +0.000 C 
BRANCH  16  17
ATOM     17  N   UNL     1      10.851  11.193  18.877  0.00  0.00    +0.000 NA
ATOM     18  C   UNL     1      11.621  11.923  19.916  0.00  0.00    +0.000 C 
ATOM     19  C   UNL     1      11.133  13.368  20.146  0.00  0.00    +0.000 C 
ATOM     20  O   UNL     1      11.114  14.125  18.928  0.00  0.00    +0.000 OA
ATOM     21  C   UNL     1      10.340  13.468  17.914  0.00  0.00    +0.000 C 
ATOM     22  C   UNL     1      10.853  12.041  17.664  0.00  0.00    +0.000 C 
ENDBRANCH  16  17
ENDBRANCH  15  16
ENDBRANCH  14  15
ENDBRANCH  13  14
ENDBRANCH   3  13
TORSDOF 7
ENDMDL
MODEL 3
REMARK VINA RESULT:      -6.4      1.555      2.315
REMARK  Name = 
REMARK  10 active torsions:
REMARK  status: ('A' for Active; 'I' for Inactive)
REMARK    1  A    between atoms: C_1  and  C_2
REMARK    2  A    between atoms: N_6  and  C_7
REMARK    3  A    between atoms: C_7  and  C_8
REMARK    4  A    between atoms: C_7  and  C_9
REMARK    5  A    between atoms: N_11  and  C_12
REMARK    6  A    between atoms: N_11  and  C_13
REMARK    7  A    between atoms: C_13  and  C_14
REMARK    8  A    between atoms: C_14  and  C_15
REMARK    9  A    between atoms: C_15  and  C_16
REMARK   10  A    between atoms: C_16  and  N_17
REMARK                            x       y       z     vdW  Elec       q    Type
REMARK                         _______ _______ _______ _____ _____    ______ ____
ROOT
ATOM      1  C   UNL     1       6.080   6.109  16.949  0.00  0.00    +0.000 C 
ATOM      2  O   UNL     1       5.685   6.760  15.978  0.00  0.00    +0.000 OA
ATOM      3  N   UNL     1       7.222   6.521  17.656  0.00  0.00    +0.000 N 
ATOM      4  C   UNL     1       7.636   6.010  18.961  0.00  0.00    +0.000 C 
ENDROOT
BRANCH   1   5
ATOM      5  C   UNL     1       5.376   4.815  17.366  0.00  0.00    +0.000 C 
ATOM      6  C   UNL     1       4.915   4.001  16.160  0.00  0.00    +0.000 C 
BRANCH   5  12
ATOM      7  C   UNL     1       4.357   2.810  19.690  0.00  0.00    +0.000 C 
ATOM      8  C   UNL     1       3.906   4.198  19.412  0.00  0.00    +0.000 A 
ATOM      9  N   UNL     1       3.009   4.827  20.154  0.00  0.00    +0.000 NA
ATOM     10  C   UNL     1       2.808   6.042  19.572  0.00  0.00    +0.000 A 
ATOM     11  C   UNL     1       3.604   6.181  18.466  0.00  0.00    +0.000 A 
ATOM     12  N   UNL     1       4.326   5.010  18.376  0.00  0.00    +0.000 N 
ENDBRANCH   5  12
ENDBRANCH   1   5
BRANCH   3  13
ATOM     13  C   UNL     1       7.830   7.783  17.210  0.00  0.00    +0.000 C 
BRANCH  13  14
ATOM     14  C   UNL     1       7.701   8.953  18.184  0.00  0.00    +0.000 C 
BRANCH  14  15
ATOM     15  C   UNL     1       8.842   9.956  17.981  0.00  0.00    +0.000 C 
BRANCH  15  16
ATOM     16  C   UNL     1       9.449  10.350  19.331  0.00  0.00    +0.000 C 
BRANCH  16  17
ATOM     17  N   UNL     1       9.575  11.800  19.547  0.00  0.00    +0.000 NA
ATOM     18  C   UNL     1       9.826  12.489  18.256  0.00  0.00    +0.000 C 
ATOM     19  C   UNL     1      11.240  12.244  17.690  0.00  0.00    +0.000 C 
ATOM     20  O   UNL     1      12.261  12.589  18.636  0.00  0.00    +0.000 OA
ATOM     21  C   UNL     1      12.073  11.905  19.883  0.00  0.00    +0.000 C 
ATOM     22  C   UNL     1      10.676  12.181  20.460  0.00  0.00    +0.000 C 
ENDBRANCH  16  17
ENDBRANCH  15  16
ENDBRANCH  14  15
ENDBRANCH  13  14
ENDBRANCH   3  13
TORSDOF 7
ENDMDL
MODEL 4
REMARK VINA RESULT:      -6.3      1.090      1.884
REMARK  Name = 
REMARK  10 active torsions:
REMARK  status: ('A' for Active; 'I' for Inactive)
REMARK    1  A    between atoms: C_1  and  C_2
REMARK    2  A    between atoms: N_6  and  C_7
REMARK    3  A    between atoms: C_7  and  C_8
REMARK    4  A    between atoms: C_7  and  C_9
REMARK    5  A    between atoms: N_11  and  C_12
REMARK    6  A    between atoms: N_11  and  C_13
REMARK    7  A    between atoms: C_13  and  C_14
REMARK    8  A    between atoms: C_14  and  C_15
REMARK    9  A    between atoms: C_15  and  C_16
REMARK   10  A    between atoms: C_16  and  N_17
REMARK                            x       y       z     vdW  Elec       q    Type
REMARK                         _______ _______ _______ _____ _____    ______ ____
ROOT
ATOM      1  C   UNL     1       5.185   5.707  18.728  0.00  0.00    +0.000 C 
ATOM      2  O   UNL     1       5.834   5.312  19.700  0.00  0.00    +0.000 OA
ATOM      3  N   UNL     1       5.807   6.479  17.732  0.00  0.00    +0.000 N 
ATOM      4  C   UNL     1       5.240   6.778  16.419  0.00  0.00    +0.000 C 
ENDROOT
BRANCH   1   5
ATOM      5  C   UNL     1       3.686   5.419  18.614  0.00  0.00    +0.000 C 
ATOM      6  C   UNL     1       2.886   6.113  19.714  0.00  0.00    +0.000 C 
BRANCH   5  12
ATOM      7  C   UNL     1       4.713   3.293  16.405  0.00  0.00    +0.000 C 
ATOM      8  C   UNL     1       3.827   3.048  17.573  0.00  0.00    +0.000 A 
ATOM      9  N   UNL     1       3.361   1.850  17.886  0.00  0.00    +0.000 NA
ATOM     10  C   UNL     1       2.552   2.020  18.968  0.00  0.00    +0.000 A 
ATOM     11  C   UNL     1       2.528   3.336  19.348  0.00  0.00    +0.000 A 
ATOM     12  N   UNL     1       3.365   3.992  18.470  0.00  0.00    +0.000 N 
ENDBRANCH   5  12
ENDBRANCH   1   5
BRANCH   3  13
ATOM     13  C   UNL     1       7.252   6.695  17.899  0.00  0.00    +0.000 C 
BRANCH  13  14
ATOM     14  C   UNL     1       7.769   8.057  17.437  0.00  0.00    +0.000 C 
BRANCH  14  15
ATOM     15  C   UNL     1       8.579   8.735  18.547  0.00  0.00    +0.000 C 
BRANCH  15  16
ATOM     16  C   UNL     1       8.749  10.226  18.244  0.00  0.00    +0.000 C 
BRANCH  16  17
ATOM     17  N   UNL     1      10.054  10.786  18.633  0.00  0.00    +0.000 NA
ATOM     18  C   UNL     1      10.026  11.210  20.055  0.00  0.00    +0.000 C 
ATOM     19  C   UNL     1       9.180  12.475  20.305  0.00  0.00    +0.000 C 
ATOM     20  O   UNL     1       9.597  13.569  19.476  0.00  0.00    +0.000 OA
ATOM     21  C   UNL     1       9.593  13.205  18.089  0.00  0.00    +0.000 C 
ATOM     22  C   UNL     1      10.466  11.965  17.839  0.00  0.00    +0.000 C 
ENDBRANCH  16  17
ENDBRANCH  15  16
ENDBRANCH  14  15
ENDBRANCH  13  14
ENDBRANCH   3  13
TORSDOF 7
ENDMDL
MODEL 5
REMARK VINA RESULT:      -6.3      1.684      2.500
REMARK  Name = 
REMARK  10 active torsions:
REMARK  status: ('A' for Active; 'I' for Inactive)
REMARK    1  A    between atoms: C_1  and  C_2
REMARK    2  A    between atoms: N_6  and  C_7
REMARK    3  A    between atoms: C_7  and  C_8
REMARK    4  A    between atoms: C_7  and  C_9
REMARK    5  A    between atoms: N_11  and  C_12
REMARK    6  A    between atoms: N_11  and  C_13
REMARK    7  A    between atoms: C_13  and  C_14
REMARK    8  A    between atoms: C_14  and  C_15
REMARK    9  A    between atoms: C_15  and  C_16
REMARK   10  A    between atoms: C_16  and  N_17
REMARK                            x       y       z     vdW  Elec       q    Type
REMARK                         _______ _______ _______ _____ _____    ______ ____
ROOT
ATOM      1  C   UNL     1       6.170   6.037  16.890  0.00  0.00    +0.000 C 
ATOM      2  O   UNL     1       5.850   6.673  15.882  0.00  0.00    +0.000 OA
ATOM      3  N   UNL     1       7.300   6.416  17.634  0.00  0.00    +0.000 N 
ATOM      4  C   UNL     1       7.631   5.930  18.972  0.00  0.00    +0.000 C 
ENDROOT
BRANCH   1   5
ATOM      5  C   UNL     1       5.385   4.794  17.316  0.00  0.00    +0.000 C 
ATOM      6  C   UNL     1       4.875   4.001  16.115  0.00  0.00    +0.000 C 
BRANCH   5  12
ATOM      7  C   UNL     1       4.322   2.922  19.729  0.00  0.00    +0.000 C 
ATOM      8  C   UNL     1       3.910   4.309  19.394  0.00  0.00    +0.000 A 
ATOM      9  N   UNL     1       3.037   4.996  20.112  0.00  0.00    +0.000 NA
ATOM     10  C   UNL     1       2.868   6.190  19.480  0.00  0.00    +0.000 A 
ATOM     11  C   UNL     1       3.660   6.258  18.364  0.00  0.00    +0.000 A 
ATOM     12  N   UNL     1       4.347   5.063  18.322  0.00  0.00    +0.000 N 
ENDBRANCH   5  12
ENDBRANCH   1   5
BRANCH   3  13
ATOM     13  C   UNL     1       7.990   7.631  17.176  0.00  0.00    +0.000 C 
BRANCH  13  14
ATOM     14  C   UNL     1       7.645   8.908  17.941  0.00  0.00    +0.000 C 
BRANCH  14  15
ATOM     15  C   UNL     1       8.856   9.409  18.734  0.00  0.00    +0.000 C 
BRANCH  15  16
ATOM     16  C   UNL     1       9.273  10.800  18.246  0.00  0.00    +0.000 C 
BRANCH  16  17
ATOM     17  N   UNL     1      10.539  11.294  18.811  0.00  0.00    +0.000 NA
ATOM     18  C   UNL     1      10.309  11.856  20.166  0.00  0.00    +0.000 C 
ATOM     19  C   UNL     1       9.552  13.199  20.157  0.00  0.00    +0.000 C 
ATOM     20  O   UNL     1      10.201  14.172  19.327  0.00  0.00    +0.000 OA
ATOM     21  C   UNL     1      10.399  13.677  17.996  0.00  0.00    +0.000 C 
ATOM     22  C   UNL     1      11.185  12.357  18.008  0.00  0.00    +0.000 C 
ENDBRANCH  16  17
ENDBRANCH  15  16
ENDBRANCH  14  15
ENDBRANCH  13  14
ENDBRANCH   3  13
TORSDOF 7
ENDMDL
MODEL 6
REMARK VINA RESULT:      -6.3      1.034      1.351
REMARK  Name = 
REMARK  10 active torsions:
REMARK  status: ('A' for Active; 'I' for Inactive)
REMARK    1  A    between atoms: C_1  and  C_2
REMARK    2  A    between atoms: N_6  and  C_7
REMARK    3  A    between atoms: C_7  and  C_8
REMARK    4  A    between atoms: C_7  and  C_9
REMARK    5  A    between atoms: N_11  and  C_12
REMARK    6  A    between atoms: N_11  and  C_13
REMARK    7  A    between atoms: C_13  and  C_14
REMARK    8  A    between atoms: C_14  and  C_15
REMARK    9  A    between atoms: C_15  and  C_16
REMARK   10  A    between atoms: C_16  and  N_17
REMARK                            x       y       z     vdW  Elec       q    Type
REMARK                         _______ _______ _______ _____ _____    ______ ____
ROOT
ATOM      1  C   UNL     1       5.376   5.726  18.728  0.00  0.00    +0.000 C 
ATOM      2  O   UNL     1       6.053   5.490  19.732  0.00  0.00    +0.000 OA
ATOM      3  N   UNL     1       5.940   6.423  17.645  0.00  0.00    +0.000 N 
ATOM      4  C   UNL     1       5.351   6.532  16.313  0.00  0.00    +0.000 C 
ENDROOT
BRANCH   1   5
ATOM      5  C   UNL     1       3.901   5.323  18.662  0.00  0.00    +0.000 C 
ATOM      6  C   UNL     1       3.019   6.242  19.504  0.00  0.00    +0.000 C 
BRANCH   5  12
ATOM      7  C   UNL     1       1.290   3.524  18.024  0.00  0.00    +0.000 C 
ATOM      8  C   UNL     1       2.586   3.088  18.605  0.00  0.00    +0.000 A 
ATOM      9  N   UNL     1       2.852   1.828  18.910  0.00  0.00    +0.000 NA
ATOM     10  C   UNL     1       4.096   1.818  19.463  0.00  0.00    +0.000 A 
ATOM     11  C   UNL     1       4.622   3.083  19.486  0.00  0.00    +0.000 A 
ATOM     12  N   UNL     1       3.665   3.894  18.914  0.00  0.00    +0.000 N 
ENDBRANCH   5  12
ENDBRANCH   1   5
BRANCH   3  13
ATOM     13  C   UNL     1       7.366   6.758  17.773  0.00  0.00    +0.000 C 
BRANCH  13  14
ATOM     14  C   UNL     1       7.727   8.213  17.479  0.00  0.00    +0.000 C 
BRANCH  14  15
ATOM     15  C   UNL     1       8.658   8.771  18.561  0.00  0.00    +0.000 C 
BRANCH  15  16
ATOM     16  C   UNL     1       8.921  10.260  18.319  0.00  0.00    +0.000 C 
BRANCH  16  17
ATOM     17  N   UNL     1      10.049  10.815  19.083  0.00  0.00    +0.000 NA
ATOM     18  C   UNL     1       9.553  11.763  20.112  0.00  0.00    +0.000 C 
ATOM     19  C   UNL     1       9.031  13.091  19.528  0.00  0.00    +0.000 C 
ATOM     20  O   UNL     1      10.011  13.734  18.703  0.00  0.00    +0.000 OA
ATOM     21  C   UNL     1      10.481  12.859  17.669  0.00  0.00    +0.000 C 
ATOM     22  C   UNL     1      11.034  11.552  18.258  0.00  0.00    +0.000 C 
ENDBRANCH  16  17
ENDBRANCH  15  16
ENDBRANCH  14  15
ENDBRANCH  13  14
ENDBRANCH   3  13
TORSDOF 7
ENDMDL
MODEL 7
REMARK VINA RESULT:      -6.3      5.049      6.893
REMARK  Name = 
REMARK  10 active torsions:
REMARK  status: ('A' for Active; 'I' for Inactive)
REMARK    1  A    between atoms: C_1  and  C_2
REMARK    2  A    between atoms: N_6  and  C_7
REMARK    3  A    between atoms: C_7  and  C_8
REMARK    4  A    between atoms: C_7  and  C_9
REMARK    5  A    between atoms: N_11  and  C_12
REMARK    6  A    between atoms: N_11  and  C_13
REMARK    7  A    between atoms: C_13  and  C_14
REMARK    8  A    between atoms: C_14  and  C_15
REMARK    9  A    between atoms: C_15  and  C_16
REMARK   10  A    between atoms: C_16  and  N_17
REMARK                            x       y       z     vdW  Elec       q    Type
REMARK                         _______ _______ _______ _____ _____    ______ ____
ROOT
ATOM      1  C   UNL     1       3.777   6.287  18.351  0.00  0.00    +0.000 C 
ATOM      2  O   UNL     1       4.261   6.423  17.224  0.00  0.00    +0.000 OA
ATOM      3  N   UNL     1       2.859   7.230  18.842  0.00  0.00    +0.000 N 
ATOM      4  C   UNL     1       2.019   7.053  20.025  0.00  0.00    +0.000 C 
ENDROOT
BRANCH   1   5
ATOM      5  C   UNL     1       4.208   5.130  19.256  0.00  0.00    +0.000 C 
ATOM      6  C   UNL     1       5.714   4.891  19.200  0.00  0.00    +0.000 C 
BRANCH   5  12
ATOM      7  C   UNL     1       2.259   3.608  21.341  0.00  0.00    +0.000 C 
ATOM      8  C   UNL     1       2.534   3.264  19.922  0.00  0.00    +0.000 A 
ATOM      9  N   UNL     1       1.945   2.257  19.298  0.00  0.00    +0.000 NA
ATOM     10  C   UNL     1       2.478   2.213  18.045  0.00  0.00    +0.000 A 
ATOM     11  C   UNL     1       3.396   3.217  17.879  0.00  0.00    +0.000 A 
ATOM     12  N   UNL     1       3.414   3.906  19.073  0.00  0.00    +0.000 N 
ENDBRANCH   5  12
ENDBRANCH   1   5
BRANCH   3  13
ATOM     13  C   UNL     1       2.479   8.300  17.908  0.00  0.00    +0.000 C 
BRANCH  13  14
ATOM     14  C   UNL     1       1.110   8.932  18.157  0.00  0.00    +0.000 C 
BRANCH  14  15
ATOM     15  C   UNL     1       1.253  10.417  18.506  0.00  0.00    +0.000 C 
BRANCH  15  16
ATOM     16  C   UNL     1       0.244  10.807  19.590  0.00  0.00    +0.000 C 
BRANCH  16  17
ATOM     17  N   UNL     1       0.845  11.213  20.870  0.00  0.00    +0.000 NA
ATOM     18  C   UNL     1       1.025  10.030  21.750  0.00  0.00    +0.000 C 
ATOM     19  C   UNL     1      -0.298   9.474  22.315  0.00  0.00    +0.000 C 
ATOM     20  O   UNL     1      -1.052  10.483  22.999  0.00  0.00    +0.000 OA
ATOM     21  C   UNL     1      -1.282  11.625  22.162  0.00  0.00    +0.000 C 
ATOM     22  C   UNL     1       0.041  12.197  21.630  0.00  0.00    +0.000 C 
ENDBRANCH  16  17
ENDBRANCH  15  16
ENDBRANCH  14  15
ENDBRANCH  13  14
ENDBRANCH   3  13
TORSDOF 7
ENDMDL
MODEL 8
REMARK VINA RESULT:      -6.3      0.968      1.822
REMARK  Name = 
REMARK  10 active torsions:
REMARK  status: ('A' for Active; 'I' for Inactive)
REMARK    1  A    between atoms: C_1  and  C_2
REMARK    2  A    between atoms: N_6  and  C_7
REMARK    3  A    between atoms: C_7  and  C_8
REMARK    4  A    between atoms: C_7  and  C_9
REMARK    5  A    between atoms: N_11  and  C_12
REMARK    6  A    between atoms: N_11  and  C_13
REMARK    7  A    between atoms: C_13  and  C_14
REMARK    8  A    between atoms: C_14  and  C_15
REMARK    9  A    between atoms: C_15  and  C_16
REMARK   10  A    between atoms: C_16  and  N_17
REMARK                            x       y       z     vdW  Elec       q    Type
REMARK                         _______ _______ _______ _____ _____    ______ ____
ROOT
ATOM      1  C   UNL     1       5.182   5.616  18.575  0.00  0.00    +0.000 C 
ATOM      2  O   UNL     1       5.764   5.288  19.612  0.00  0.00    +0.000 OA
ATOM      3  N   UNL     1       5.909   6.140  17.493  0.00  0.00    +0.000 N 
ATOM      4  C   UNL     1       5.396   6.312  16.135  0.00  0.00    +0.000 C 
ENDROOT
BRANCH   1   5
ATOM      5  C   UNL     1       3.658   5.517  18.465  0.00  0.00    +0.000 C 
ATOM      6  C   UNL     1       2.985   6.879  18.609  0.00  0.00    +0.000 C 
BRANCH   5  12
ATOM      7  C   UNL     1       3.553   2.312  18.044  0.00  0.00    +0.000 C 
ATOM      8  C   UNL     1       3.053   3.104  19.198  0.00  0.00    +0.000 A 
ATOM      9  N   UNL     1       2.512   2.551  20.271  0.00  0.00    +0.000 NA
ATOM     10  C   UNL     1       2.128   3.575  21.083  0.00  0.00    +0.000 A 
ATOM     11  C   UNL     1       2.452   4.781  20.519  0.00  0.00    +0.000 A 
ATOM     12  N   UNL     1       3.067   4.479  19.323  0.00  0.00    +0.000 N 
ENDBRANCH   5  12
ENDBRANCH   1   5
BRANCH   3  13
ATOM     13  C   UNL     1       7.369   6.184  17.665  0.00  0.00    +0.000 C 
BRANCH  13  14
ATOM     14  C   UNL     1       7.899   7.377  18.458  0.00  0.00    +0.000 C 
BRANCH  14  15
ATOM     15  C   UNL     1       8.183   8.563  17.530  0.00  0.00    +0.000 C 
BRANCH  15  16
ATOM     16  C   UNL     1       8.274   9.861  18.339  0.00  0.00    +0.000 C 
BRANCH  16  17
ATOM     17  N   UNL     1       9.644  10.281  18.672  0.00  0.00    +0.000 NA
ATOM     18  C   UNL     1       9.694  10.810  20.059  0.00  0.00    +0.000 C 
ATOM     19  C   UNL     1       9.016  12.186  20.219  0.00  0.00    +0.000 C 
ATOM     20  O   UNL     1       9.549  13.154  19.306  0.00  0.00    +0.000 OA
ATOM     21  C   UNL     1       9.475  12.692  17.950  0.00  0.00    +0.000 C 
ATOM     22  C   UNL     1      10.184  11.338  17.787  0.00  0.00    +0.000 C 
ENDBRANCH  16  17
ENDBRANCH  15  16
ENDBRANCH  14  15
ENDBRANCH  13  14
ENDBRANCH   3  13
TORSDOF 7
ENDMDL
MODEL 9
REMARK VINA RESULT:      -6.3      5.028      7.220
REMARK  Name = 
REMARK  10 active torsions:
REMARK  status: ('A' for Active; 'I' for Inactive)
REMARK    1  A    between atoms: C_1  and  C_2
REMARK    2  A    between atoms: N_6  and  C_7
REMARK    3  A    between atoms: C_7  and  C_8
REMARK    4  A    between atoms: C_7  and  C_9
REMARK    5  A    between atoms: N_11  and  C_12
REMARK    6  A    between atoms: N_11  and  C_13
REMARK    7  A    between atoms: C_13  and  C_14
REMARK    8  A    between atoms: C_14  and  C_15
REMARK    9  A    between atoms: C_15  and  C_16
REMARK   10  A    between atoms: C_16  and  N_17
REMARK                            x       y       z     vdW  Elec       q    Type
REMARK                         _______ _______ _______ _____ _____    ______ ____
ROOT
ATOM      1  C   UNL     1       3.328   5.354  18.169  0.00  0.00    +0.000 C 
ATOM      2  O   UNL     1       2.700   5.077  19.194  0.00  0.00    +0.000 OA
ATOM      3  N   UNL     1       3.347   6.674  17.688  0.00  0.00    +0.000 N 
ATOM      4  C   UNL     1       4.253   7.185  16.661  0.00  0.00    +0.000 C 
ENDROOT
BRANCH   1   5
ATOM      5  C   UNL     1       4.047   4.263  17.370  0.00  0.00    +0.000 C 
ATOM      6  C   UNL     1       3.568   2.865  17.752  0.00  0.00    +0.000 C 
BRANCH   5  12
ATOM      7  C   UNL     1       6.137   3.944  14.923  0.00  0.00    +0.000 C 
ATOM      8  C   UNL     1       6.423   4.322  16.331  0.00  0.00    +0.000 A 
ATOM      9  N   UNL     1       7.635   4.630  16.763  0.00  0.00    +0.000 NA
ATOM     10  C   UNL     1       7.522   4.865  18.099  0.00  0.00    +0.000 A 
ATOM     11  C   UNL     1       6.220   4.722  18.503  0.00  0.00    +0.000 A 
ATOM     12  N   UNL     1       5.511   4.398  17.366  0.00  0.00    +0.000 N 
ENDBRANCH   5  12
ENDBRANCH   1   5
BRANCH   3  13
ATOM     13  C   UNL     1       2.653   7.668  18.519  0.00  0.00    +0.000 C 
BRANCH  13  14
ATOM     14  C   UNL     1       1.760   8.649  17.761  0.00  0.00    +0.000 C 
BRANCH  14  15
ATOM     15  C   UNL     1       1.268   9.764  18.689  0.00  0.00    +0.000 C 
BRANCH  15  16
ATOM     16  C   UNL     1       0.914   9.191  20.065  0.00  0.00    +0.000 C 
BRANCH  16  17
ATOM     17  N   UNL     1       1.321  10.033  21.202  0.00  0.00    +0.000 NA
ATOM     18  C   UNL     1       1.009   9.349  22.483  0.00  0.00    +0.000 C 
ATOM     19  C   UNL     1      -0.499   9.293  22.801  0.00  0.00    +0.000 C 
ATOM     20  O   UNL     1      -1.097  10.596  22.783  0.00  0.00    +0.000 OA
ATOM     21  C   UNL     1      -0.851  11.269  21.541  0.00  0.00    +0.000 C 
ATOM     22  C   UNL     1       0.655  11.354  21.245  0.00  0.00    +0.000 C 
ENDBRANCH  16  17
ENDBRANCH  15  16
ENDBRANCH  14  15
ENDBRANCH  13  14
ENDBRANCH   3  13
TORSDOF 7
ENDMDL
