MODEL 1
REMARK VINA RESULT:      -9.1      0.000      0.000
REMARK  Name = 
REMARK  2 active torsions:
REMARK  status: ('A' for Active; 'I' for Inactive)
REMARK    1  A    between atoms: C_3  and  C_4
REMARK    2  A    between atoms: C_13  and  N_14
REMARK                            x       y       z     vdW  Elec       q    Type
REMARK                         _______ _______ _______ _____ _____    ______ ____
ROOT
ATOM      1  C   UNL     1       9.040  12.397  18.371  0.00  0.00    +0.000 A 
ATOM      2  C   UNL     1       9.759  11.802  19.420  0.00  0.00    +0.000 A 
ATOM      3  N   UNL     1       9.786  10.477  19.726  0.00  0.00    +0.000 NA
ATOM      4  C   UNL     1       8.999   9.727  18.919  0.00  0.00    +0.000 A 
ATOM      5  N   UNL     1       8.788   8.381  18.989  0.00  0.00    +0.000 NA
ATOM      6  C   UNL     1       7.944   8.150  18.004  0.00  0.00    +0.000 A 
ATOM      7  N   UNL     1       7.406   6.979  17.587  0.00  0.00    +0.000 N 
ATOM      8  C   UNL     1       7.611   5.820  18.446  0.00  0.00    +0.000 C 
ATOM      9  C   UNL     1       7.485   4.555  17.608  0.00  0.00    +0.000 C 
ATOM     10  C   UNL     1       6.169   4.455  16.807  0.00  0.00    +0.000 C 
ATOM     11  C   UNL     1       5.914   5.773  16.053  0.00  0.00    +0.000 C 
ATOM     12  C   UNL     1       6.131   7.038  16.874  0.00  0.00    +0.000 C 
ATOM     13  O   UNL     1       7.594   9.257  17.278  0.00  0.00    +0.000 OA
ATOM     14  C   UNL     1       8.272  10.260  17.871  0.00  0.00    +0.000 A 
ATOM     15  C   UNL     1       8.262  11.598  17.533  0.00  0.00    +0.000 A 
ENDROOT
BRANCH   1  18
ATOM     16  C   UNL     1       7.962  16.010  18.306  0.00  0.00    +0.000 A 
ATOM     17  C   UNL     1       7.926  14.565  18.464  0.00  0.00    +0.000 A 
ATOM     18  C   UNL     1       9.028  13.847  18.171  0.00  0.00    +0.000 A 
ATOM     19  N   UNL     1      10.191  14.510  17.727  0.00  0.00    +0.000 N 
ATOM     20  N   UNL     1      11.392  13.952  17.411  0.00  0.00    +0.000 NA
ATOM     21  C   UNL     1      12.167  14.980  17.069  0.00  0.00    +0.000 A 
ATOM     22  C   UNL     1      11.505  16.212  17.149  0.00  0.00    +0.000 A 
ATOM     23  C   UNL     1      10.240  15.898  17.576  0.00  0.00    +0.000 A 
ATOM     24  C   UNL     1       9.068  16.649  17.881  0.00  0.00    +0.000 A 
ENDBRANCH   1  18
BRANCH  10  25
ATOM     25  N   UNL     1       4.972   3.913  17.498  0.00  0.00    +0.000 NA
ATOM     26  C   UNL     1       5.104   3.990  18.963  0.00  0.00    +0.000 C 
ATOM     27  C   UNL     1       3.962   3.282  19.693  0.00  0.00    +0.000 C 
ATOM     28  C   UNL     1       2.608   3.803  19.232  0.00  0.00    +0.000 C 
ATOM     29  C   UNL     1       2.507   3.689  17.721  0.00  0.00    +0.000 C 
ATOM     30  C   UNL     1       3.673   4.408  17.044  0.00  0.00    +0.000 C 
ENDBRANCH  10  25
TORSDOF 2
ENDMDL
MODEL 2
REMARK VINA RESULT:      -9.0      7.569     10.811
REMARK  Name = 
REMARK  2 active torsions:
REMARK  status: ('A' for Active; 'I' for Inactive)
REMARK    1  A    between atoms: C_3  and  C_4
REMARK    2  A    between atoms: C_13  and  N_14
REMARK                            x       y       z     vdW  Elec       q    Type
REMARK                         _______ _______ _______ _____ _____    ______ ____
ROOT
ATOM      1  C   UNL     1       2.963   6.999  18.148  0.00  0.00    +0.000 A 
ATOM      2  C   UNL     1       2.896   8.033  17.200  0.00  0.00    +0.000 A 
ATOM      3  N   UNL     1       2.288   9.239  17.367  0.00  0.00    +0.000 NA
ATOM      4  C   UNL     1       1.688   9.370  18.574  0.00  0.00    +0.000 A 
ATOM      5  N   UNL     1       0.973  10.439  19.029  0.00  0.00    +0.000 NA
ATOM      6  C   UNL     1       0.597  10.067  20.237  0.00  0.00    +0.000 A 
ATOM      7  N   UNL     1      -0.119  10.746  21.163  0.00  0.00    +0.000 N 
ATOM      8  C   UNL     1      -0.746  11.987  20.728  0.00  0.00    +0.000 C 
ATOM      9  C   UNL     1      -0.983  12.875  21.943  0.00  0.00    +0.000 C 
ATOM     10  C   UNL     1      -1.775  12.195  23.079  0.00  0.00    +0.000 C 
ATOM     11  C   UNL     1      -1.172  10.810  23.382  0.00  0.00    +0.000 C 
ATOM     12  C   UNL     1      -0.854   9.964  22.156  0.00  0.00    +0.000 C 
ATOM     13  O   UNL     1       1.030   8.824  20.613  0.00  0.00    +0.000 OA
ATOM     14  C   UNL     1       1.725   8.386  19.543  0.00  0.00    +0.000 A 
ATOM     15  C   UNL     1       2.365   7.172  19.396  0.00  0.00    +0.000 A 
ENDROOT
BRANCH   1  18
ATOM     16  C   UNL     1       3.474   3.344  17.371  0.00  0.00    +0.000 A 
ATOM     17  C   UNL     1       2.834   4.599  17.732  0.00  0.00    +0.000 A 
ATOM     18  C   UNL     1       3.587   5.712  17.839  0.00  0.00    +0.000 A 
ATOM     19  N   UNL     1       4.974   5.637  17.591  0.00  0.00    +0.000 N 
ATOM     20  N   UNL     1       5.877   6.656  17.630  0.00  0.00    +0.000 NA
ATOM     21  C   UNL     1       7.040   6.093  17.308  0.00  0.00    +0.000 A 
ATOM     22  C   UNL     1       6.931   4.718  17.058  0.00  0.00    +0.000 A 
ATOM     23  C   UNL     1       5.600   4.440  17.239  0.00  0.00    +0.000 A 
ATOM     24  C   UNL     1       4.797   3.266  17.136  0.00  0.00    +0.000 A 
ENDBRANCH   1  18
BRANCH  10  25
ATOM     25  N   UNL     1      -3.257  12.203  22.996  0.00  0.00    +0.000 NA
ATOM     26  C   UNL     1      -3.873  12.643  24.260  0.00  0.00    +0.000 C 
ATOM     27  C   UNL     1      -5.395  12.494  24.253  0.00  0.00    +0.000 C 
ATOM     28  C   UNL     1      -6.013  13.209  23.060  0.00  0.00    +0.000 C 
ATOM     29  C   UNL     1      -5.363  12.715  21.779  0.00  0.00    +0.000 C 
ATOM     30  C   UNL     1      -3.846  12.883  21.842  0.00  0.00    +0.000 C 
ENDBRANCH  10  25
TORSDOF 2
ENDMDL
MODEL 3
REMARK VINA RESULT:      -8.9      0.947      2.049
REMARK  Name = 
REMARK  2 active torsions:
REMARK  status: ('A' for Active; 'I' for Inactive)
REMARK    1  A    between atoms: C_3  and  C_4
REMARK    2  A    between atoms: C_13  and  N_14
REMARK                            x       y       z     vdW  Elec       q    Type
REMARK                         _______ _______ _______ _____ _____    ______ ____
ROOT
ATOM      1  C   UNL     1       9.576  12.607  18.397  0.00  0.00    +0.000 A 
ATOM      2  C   UNL     1      10.168  12.044  19.539  0.00  0.00    +0.000 A 
ATOM      3  N   UNL     1      10.067  10.748  19.941  0.00  0.00    +0.000 NA
ATOM      4  C   UNL     1       9.282   9.999  19.131  0.00  0.00    +0.000 A 
ATOM      5  N   UNL     1       8.959   8.682  19.282  0.00  0.00    +0.000 NA
ATOM      6  C   UNL     1       8.171   8.438  18.253  0.00  0.00    +0.000 A 
ATOM      7  N   UNL     1       7.572   7.283  17.882  0.00  0.00    +0.000 N 
ATOM      8  C   UNL     1       7.621   6.182  18.835  0.00  0.00    +0.000 C 
ATOM      9  C   UNL     1       7.453   4.868  18.083  0.00  0.00    +0.000 C 
ATOM     10  C   UNL     1       6.195   4.805  17.193  0.00  0.00    +0.000 C 
ATOM     11  C   UNL     1       6.100   6.075  16.328  0.00  0.00    +0.000 C 
ATOM     12  C   UNL     1       6.359   7.381  17.070  0.00  0.00    +0.000 C 
ATOM     13  O   UNL     1       7.964   9.509  17.425  0.00  0.00    +0.000 OA
ATOM     14  C   UNL     1       8.677  10.502  17.995  0.00  0.00    +0.000 A 
ATOM     15  C   UNL     1       8.798  11.805  17.561  0.00  0.00    +0.000 A 
ENDROOT
BRANCH   1  18
ATOM     16  C   UNL     1      10.839  15.913  17.095  0.00  0.00    +0.000 A 
ATOM     17  C   UNL     1      10.773  14.500  17.431  0.00  0.00    +0.000 A 
ATOM     18  C   UNL     1       9.696  14.033  18.093  0.00  0.00    +0.000 A 
ATOM     19  N   UNL     1       8.655  14.921  18.436  0.00  0.00    +0.000 N 
ATOM     20  N   UNL     1       7.492  14.623  19.079  0.00  0.00    +0.000 NA
ATOM     21  C   UNL     1       6.836  15.780  19.153  0.00  0.00    +0.000 A 
ATOM     22  C   UNL     1       7.541  16.844  18.574  0.00  0.00    +0.000 A 
ATOM     23  C   UNL     1       8.703  16.279  18.115  0.00  0.00    +0.000 A 
ATOM     24  C   UNL     1       9.850  16.766  17.422  0.00  0.00    +0.000 A 
ENDBRANCH   1  18
BRANCH  10  25
ATOM     25  N   UNL     1       4.912   4.409  17.827  0.00  0.00    +0.000 NA
ATOM     26  C   UNL     1       3.993   3.787  16.859  0.00  0.00    +0.000 C 
ATOM     27  C   UNL     1       2.605   3.530  17.450  0.00  0.00    +0.000 C 
ATOM     28  C   UNL     1       2.695   2.713  18.731  0.00  0.00    +0.000 C 
ATOM     29  C   UNL     1       3.637   3.398  19.706  0.00  0.00    +0.000 C 
ATOM     30  C   UNL     1       5.003   3.633  19.064  0.00  0.00    +0.000 C 
ENDBRANCH  10  25
TORSDOF 2
ENDMDL
MODEL 4
REMARK VINA RESULT:      -8.8      7.957     11.736
REMARK  Name = 
REMARK  2 active torsions:
REMARK  status: ('A' for Active; 'I' for Inactive)
REMARK    1  A    between atoms: C_3  and  C_4
REMARK    2  A    between atoms: C_13  and  N_14
REMARK                            x       y       z     vdW  Elec       q    Type
REMARK                         _______ _______ _______ _____ _____    ______ ____
ROOT
ATOM      1  C   UNL     1       2.756   6.941  18.864  0.00  0.00    +0.000 A 
ATOM      2  C   UNL     1       2.593   7.701  17.695  0.00  0.00    +0.000 A 
ATOM      3  N   UNL     1       1.916   8.876  17.587  0.00  0.00    +0.000 NA
ATOM      4  C   UNL     1       1.350   9.273  18.752  0.00  0.00    +0.000 A 
ATOM      5  N   UNL     1       0.585  10.383  18.962  0.00  0.00    +0.000 NA
ATOM      6  C   UNL     1       0.274  10.304  20.241  0.00  0.00    +0.000 A 
ATOM      7  N   UNL     1      -0.452  11.154  21.004  0.00  0.00    +0.000 N 
ATOM      8  C   UNL     1      -1.171  12.213  20.307  0.00  0.00    +0.000 C 
ATOM      9  C   UNL     1      -1.422  13.362  21.274  0.00  0.00    +0.000 C 
ATOM     10  C   UNL     1      -2.131  12.946  22.579  0.00  0.00    +0.000 C 
ATOM     11  C   UNL     1      -1.434  11.714  23.186  0.00  0.00    +0.000 C 
ATOM     12  C   UNL     1      -1.104  10.606  22.193  0.00  0.00    +0.000 C 
ATOM     13  O   UNL     1       0.795   9.218  20.891  0.00  0.00    +0.000 OA
ATOM     14  C   UNL     1       1.481   8.565  19.931  0.00  0.00    +0.000 A 
ATOM     15  C   UNL     1       2.190   7.388  20.058  0.00  0.00    +0.000 A 
ENDROOT
BRANCH   1  18
ATOM     16  C   UNL     1       5.443   4.300  19.040  0.00  0.00    +0.000 A 
ATOM     17  C   UNL     1       4.788   5.598  19.000  0.00  0.00    +0.000 A 
ATOM     18  C   UNL     1       3.449   5.652  18.853  0.00  0.00    +0.000 A 
ATOM     19  N   UNL     1       2.714   4.453  18.750  0.00  0.00    +0.000 N 
ATOM     20  N   UNL     1       1.365   4.318  18.622  0.00  0.00    +0.000 NA
ATOM     21  C   UNL     1       1.155   3.003  18.583  0.00  0.00    +0.000 A 
ATOM     22  C   UNL     1       2.338   2.259  18.681  0.00  0.00    +0.000 A 
ATOM     23  C   UNL     1       3.330   3.200  18.792  0.00  0.00    +0.000 A 
ATOM     24  C   UNL     1       4.747   3.152  18.939  0.00  0.00    +0.000 A 
ENDBRANCH   1  18
BRANCH  10  25
ATOM     25  N   UNL     1      -3.613  12.856  22.568  0.00  0.00    +0.000 NA
ATOM     26  C   UNL     1      -4.192  13.197  23.879  0.00  0.00    +0.000 C 
ATOM     27  C   UNL     1      -5.699  12.944  23.938  0.00  0.00    +0.000 C 
ATOM     28  C   UNL     1      -6.423  13.665  22.810  0.00  0.00    +0.000 C 
ATOM     29  C   UNL     1      -5.808  13.273  21.478  0.00  0.00    +0.000 C 
ATOM     30  C   UNL     1      -4.304  13.541  21.476  0.00  0.00    +0.000 C 
ENDBRANCH  10  25
TORSDOF 2
ENDMDL
MODEL 5
REMARK VINA RESULT:      -8.6      7.637     11.656
REMARK  Name = 
REMARK  2 active torsions:
REMARK  status: ('A' for Active; 'I' for Inactive)
REMARK    1  A    between atoms: C_3  and  C_4
REMARK    2  A    between atoms: C_13  and  N_14
REMARK                            x       y       z     vdW  Elec       q    Type
REMARK                         _______ _______ _______ _____ _____    ______ ____
ROOT
ATOM      1  C   UNL     1       2.753   6.764  18.935  0.00  0.00    +0.000 A 
ATOM      2  C   UNL     1       2.692   7.437  17.705  0.00  0.00    +0.000 A 
ATOM      3  N   UNL     1       2.123   8.652  17.479  0.00  0.00    +0.000 NA
ATOM      4  C   UNL     1       1.556   9.188  18.586  0.00  0.00    +0.000 A 
ATOM      5  N   UNL     1       0.882  10.371  18.679  0.00  0.00    +0.000 NA
ATOM      6  C   UNL     1       0.525  10.422  19.947  0.00  0.00    +0.000 A 
ATOM      7  N   UNL     1      -0.150  11.389  20.612  0.00  0.00    +0.000 N 
ATOM      8  C   UNL     1      -0.752  12.443  19.807  0.00  0.00    +0.000 C 
ATOM      9  C   UNL     1      -0.935  13.684  20.671  0.00  0.00    +0.000 C 
ATOM     10  C   UNL     1      -1.719  13.436  21.977  0.00  0.00    +0.000 C 
ATOM     11  C   UNL     1      -1.148  12.204  22.704  0.00  0.00    +0.000 C 
ATOM     12  C   UNL     1      -0.883  10.996  21.815  0.00  0.00    +0.000 C 
ATOM     13  O   UNL     1       0.931   9.354  20.700  0.00  0.00    +0.000 OA
ATOM     14  C   UNL     1       1.588   8.570  19.822  0.00  0.00    +0.000 A 
ATOM     15  C   UNL     1       2.190   7.353  20.068  0.00  0.00    +0.000 A 
ENDROOT
BRANCH   1  18
ATOM     16  C   UNL     1       5.213   3.931  19.323  0.00  0.00    +0.000 A 
ATOM     17  C   UNL     1       4.668   5.269  19.153  0.00  0.00    +0.000 A 
ATOM     18  C   UNL     1       3.334   5.426  19.052  0.00  0.00    +0.000 A 
ATOM     19  N   UNL     1       2.495   4.294  19.122  0.00  0.00    +0.000 N 
ATOM     20  N   UNL     1       1.135   4.267  19.063  0.00  0.00    +0.000 NA
ATOM     21  C   UNL     1       0.813   2.981  19.191  0.00  0.00    +0.000 A 
ATOM     22  C   UNL     1       1.933   2.149  19.332  0.00  0.00    +0.000 A 
ATOM     23  C   UNL     1       3.005   3.004  19.290  0.00  0.00    +0.000 A 
ATOM     24  C   UNL     1       4.418   2.847  19.388  0.00  0.00    +0.000 A 
ENDBRANCH   1  18
BRANCH  10  25
ATOM     25  N   UNL     1      -3.202  13.468  21.916  0.00  0.00    +0.000 NA
ATOM     26  C   UNL     1      -3.704  13.056  20.594  0.00  0.00    +0.000 C 
ATOM     27  C   UNL     1      -5.215  13.247  20.455  0.00  0.00    +0.000 C 
ATOM     28  C   UNL     1      -5.964  12.540  21.576  0.00  0.00    +0.000 C 
ATOM     29  C   UNL     1      -5.429  13.005  22.919  0.00  0.00    +0.000 C 
ATOM     30  C   UNL     1      -3.917  12.797  23.001  0.00  0.00    +0.000 C 
ENDBRANCH  10  25
TORSDOF 2
ENDMDL
MODEL 6
REMARK VINA RESULT:      -8.4      6.545     11.621
REMARK  Name = 
REMARK  2 active torsions:
REMARK  status: ('A' for Active; 'I' for Inactive)
REMARK    1  A    between atoms: C_3  and  C_4
REMARK    2  A    between atoms: C_13  and  N_14
REMARK                            x       y       z     vdW  Elec       q    Type
REMARK                         _______ _______ _______ _____ _____    ______ ____
ROOT
ATOM      1  C   UNL     1       2.492   6.818  18.702  0.00  0.00    +0.000 A 
ATOM      2  C   UNL     1       2.196   6.636  20.062  0.00  0.00    +0.000 A 
ATOM      3  N   UNL     1       1.598   7.542  20.884  0.00  0.00    +0.000 NA
ATOM      4  C   UNL     1       1.318   8.715  20.268  0.00  0.00    +0.000 A 
ATOM      5  N   UNL     1       0.753   9.825  20.825  0.00  0.00    +0.000 NA
ATOM      6  C   UNL     1       0.710  10.683  19.825  0.00  0.00    +0.000 A 
ATOM      7  N   UNL     1       0.222  11.945  19.794  0.00  0.00    +0.000 N 
ATOM      8  C   UNL     1      -0.132  12.544  21.074  0.00  0.00    +0.000 C 
ATOM      9  C   UNL     1      -1.157  13.646  20.839  0.00  0.00    +0.000 C 
ATOM     10  C   UNL     1      -0.720  14.706  19.807  0.00  0.00    +0.000 C 
ATOM     11  C   UNL     1      -0.192  14.015  18.536  0.00  0.00    +0.000 C 
ATOM     12  C   UNL     1       0.763  12.853  18.784  0.00  0.00    +0.000 C 
ATOM     13  O   UNL     1       1.199  10.205  18.639  0.00  0.00    +0.000 OA
ATOM     14  C   UNL     1       1.586   8.946  18.933  0.00  0.00    +0.000 A 
ATOM     15  C   UNL     1       2.164   8.025  18.084  0.00  0.00    +0.000 A 
ENDROOT
BRANCH   1  18
ATOM     16  C   UNL     1       5.032   5.075  16.525  0.00  0.00    +0.000 A 
ATOM     17  C   UNL     1       4.318   6.120  17.244  0.00  0.00    +0.000 A 
ATOM     18  C   UNL     1       3.201   5.800  17.926  0.00  0.00    +0.000 A 
ATOM     19  N   UNL     1       2.753   4.462  17.936  0.00  0.00    +0.000 N 
ATOM     20  N   UNL     1       1.668   3.958  18.585  0.00  0.00    +0.000 NA
ATOM     21  C   UNL     1       1.677   2.656  18.306  0.00  0.00    +0.000 A 
ATOM     22  C   UNL     1       2.747   2.282  17.481  0.00  0.00    +0.000 A 
ATOM     23  C   UNL     1       3.431   3.449  17.255  0.00  0.00    +0.000 A 
ATOM     24  C   UNL     1       4.608   3.798  16.529  0.00  0.00    +0.000 A 
ENDBRANCH   1  18
BRANCH  10  25
ATOM     25  N   UNL     1       0.128  15.830  20.279  0.00  0.00    +0.000 NA
ATOM     26  C   UNL     1       0.707  16.588  19.157  0.00  0.00    +0.000 C 
ATOM     27  C   UNL     1       1.719  17.638  19.619  0.00  0.00    +0.000 C 
ATOM     28  C   UNL     1       1.109  18.569  20.658  0.00  0.00    +0.000 C 
ATOM     29  C   UNL     1       0.540  17.750  21.803  0.00  0.00    +0.000 C 
ATOM     30  C   UNL     1      -0.458  16.715  21.286  0.00  0.00    +0.000 C 
ENDBRANCH  10  25
TORSDOF 2
ENDMDL
MODEL 7
REMARK VINA RESULT:      -8.3      8.110     11.772
REMARK  Name = 
REMARK  2 active torsions:
REMARK  status: ('A' for Active; 'I' for Inactive)
REMARK    1  A    between atoms: C_3  and  C_4
REMARK    2  A    between atoms: C_13  and  N_14
REMARK                            x       y       z     vdW  Elec       q    Type
REMARK                         _______ _______ _______ _____ _____    ______ ____
ROOT
ATOM      1  C   UNL     1       2.518   7.312  18.717  0.00  0.00    +0.000 A 
ATOM      2  C   UNL     1       2.506   8.167  17.604  0.00  0.00    +0.000 A 
ATOM      3  N   UNL     1       1.976   9.420  17.558  0.00  0.00    +0.000 NA
ATOM      4  C   UNL     1       1.399   9.797  18.724  0.00  0.00    +0.000 A 
ATOM      5  N   UNL     1       0.757  10.973  18.985  0.00  0.00    +0.000 NA
ATOM      6  C   UNL     1       0.371  10.840  20.239  0.00  0.00    +0.000 A 
ATOM      7  N   UNL     1      -0.291  11.715  21.032  0.00  0.00    +0.000 N 
ATOM      8  C   UNL     1      -0.844  12.898  20.388  0.00  0.00    +0.000 C 
ATOM      9  C   UNL     1      -1.012  13.997  21.429  0.00  0.00    +0.000 C 
ATOM     10  C   UNL     1      -1.833  13.576  22.665  0.00  0.00    +0.000 C 
ATOM     11  C   UNL     1      -1.316  12.230  23.205  0.00  0.00    +0.000 C 
ATOM     12  C   UNL     1      -1.064  11.165  22.145  0.00  0.00    +0.000 C 
ATOM     13  O   UNL     1       0.728   9.657  20.826  0.00  0.00    +0.000 OA
ATOM     14  C   UNL     1       1.384   8.996  19.849  0.00  0.00    +0.000 A 
ATOM     15  C   UNL     1       1.945   7.737  19.916  0.00  0.00    +0.000 A 
ENDROOT
BRANCH   1  18
ATOM     16  C   UNL     1       4.488   4.281  17.642  0.00  0.00    +0.000 A 
ATOM     17  C   UNL     1       3.928   5.623  17.664  0.00  0.00    +0.000 A 
ATOM     18  C   UNL     1       3.057   5.953  18.638  0.00  0.00    +0.000 A 
ATOM     19  N   UNL     1       2.715   4.997  19.617  0.00  0.00    +0.000 N 
ATOM     20  N   UNL     1       1.877   5.162  20.677  0.00  0.00    +0.000 NA
ATOM     21  C   UNL     1       1.894   3.991  21.312  0.00  0.00    +0.000 A 
ATOM     22  C   UNL     1       2.726   3.048  20.694  0.00  0.00    +0.000 A 
ATOM     23  C   UNL     1       3.249   3.707  19.610  0.00  0.00    +0.000 A 
ATOM     24  C   UNL     1       4.164   3.363  18.572  0.00  0.00    +0.000 A 
ENDBRANCH   1  18
BRANCH  10  25
ATOM     25  N   UNL     1      -3.313  13.665  22.581  0.00  0.00    +0.000 NA
ATOM     26  C   UNL     1      -3.967  12.965  23.700  0.00  0.00    +0.000 C 
ATOM     27  C   UNL     1      -5.487  12.896  23.540  0.00  0.00    +0.000 C 
ATOM     28  C   UNL     1      -6.081  14.281  23.332  0.00  0.00    +0.000 C 
ATOM     29  C   UNL     1      -5.392  14.960  22.161  0.00  0.00    +0.000 C 
ATOM     30  C   UNL     1      -3.879  14.997  22.370  0.00  0.00    +0.000 C 
ENDBRANCH  10  25
TORSDOF 2
ENDMDL
MODEL 8
REMARK VINA RESULT:      -8.3      8.346     11.482
REMARK  Name = 
REMARK  2 active torsions:
REMARK  status: ('A' for Active; 'I' for Inactive)
REMARK    1  A    between atoms: C_3  and  C_4
REMARK    2  A    between atoms: C_13  and  N_14
REMARK                            x       y       z     vdW  Elec       q    Type
REMARK                         _______ _______ _______ _____ _____    ______ ____
ROOT
ATOM      1  C   UNL     1       2.343   7.375  19.105  0.00  0.00    +0.000 A 
ATOM      2  C   UNL     1       2.131   8.097  17.920  0.00  0.00    +0.000 A 
ATOM      3  N   UNL     1       1.457   9.273  17.804  0.00  0.00    +0.000 NA
ATOM      4  C   UNL     1       0.945   9.711  18.979  0.00  0.00    +0.000 A 
ATOM      5  N   UNL     1       0.197  10.833  19.186  0.00  0.00    +0.000 NA
ATOM      6  C   UNL     1      -0.058  10.798  20.479  0.00  0.00    +0.000 A 
ATOM      7  N   UNL     1      -0.744  11.678  21.246  0.00  0.00    +0.000 N 
ATOM      8  C   UNL     1      -1.487  12.718  20.547  0.00  0.00    +0.000 C 
ATOM      9  C   UNL     1      -1.689  13.900  21.486  0.00  0.00    +0.000 C 
ATOM     10  C   UNL     1      -2.341  13.531  22.835  0.00  0.00    +0.000 C 
ATOM     11  C   UNL     1      -1.624  12.315  23.450  0.00  0.00    +0.000 C 
ATOM     12  C   UNL     1      -1.344  11.174  22.480  0.00  0.00    +0.000 C 
ATOM     13  O   UNL     1       0.487   9.731  21.141  0.00  0.00    +0.000 OA
ATOM     14  C   UNL     1       1.125   9.041  20.174  0.00  0.00    +0.000 A 
ATOM     15  C   UNL     1       1.833   7.865  20.307  0.00  0.00    +0.000 A 
ENDROOT
BRANCH   1  18
ATOM     16  C   UNL     1       3.239   3.780  19.811  0.00  0.00    +0.000 A 
ATOM     17  C   UNL     1       2.571   5.070  19.871  0.00  0.00    +0.000 A 
ATOM     18  C   UNL     1       3.028   6.081  19.106  0.00  0.00    +0.000 A 
ATOM     19  N   UNL     1       4.135   5.864  18.259  0.00  0.00    +0.000 N 
ATOM     20  N   UNL     1       4.711   6.756  17.406  0.00  0.00    +0.000 NA
ATOM     21  C   UNL     1       5.699   6.081  16.821  0.00  0.00    +0.000 A 
ATOM     22  C   UNL     1       5.793   4.756  17.269  0.00  0.00    +0.000 A 
ATOM     23  C   UNL     1       4.782   4.629  18.188  0.00  0.00    +0.000 A 
ATOM     24  C   UNL     1       4.298   3.568  19.007  0.00  0.00    +0.000 A 
ENDBRANCH   1  18
BRANCH  10  25
ATOM     25  N   UNL     1      -3.823  13.451  22.893  0.00  0.00    +0.000 NA
ATOM     26  C   UNL     1      -4.290  12.883  24.169  0.00  0.00    +0.000 C 
ATOM     27  C   UNL     1      -5.799  12.632  24.181  0.00  0.00    +0.000 C 
ATOM     28  C   UNL     1      -6.570  13.894  23.822  0.00  0.00    +0.000 C 
ATOM     29  C   UNL     1      -6.070  14.436  22.495  0.00  0.00    +0.000 C 
ATOM     30  C   UNL     1      -4.560  14.664  22.536  0.00  0.00    +0.000 C 
ENDBRANCH  10  25
TORSDOF 2
ENDMDL
MODEL 9
REMARK VINA RESULT:      -8.3      7.816     11.097
REMARK  Name = 
REMARK  2 active torsions:
REMARK  status: ('A' for Active; 'I' for Inactive)
REMARK    1  A    between atoms: C_3  and  C_4
REMARK    2  A    between atoms: C_13  and  N_14
REMARK                            x       y       z     vdW  Elec       q    Type
REMARK                         _______ _______ _______ _____ _____    ______ ____
ROOT
ATOM      1  C   UNL     1       2.540   7.291  18.516  0.00  0.00    +0.000 A 
ATOM      2  C   UNL     1       2.574   8.209  17.455  0.00  0.00    +0.000 A 
ATOM      3  N   UNL     1       2.076   9.475  17.470  0.00  0.00    +0.000 NA
ATOM      4  C   UNL     1       1.481   9.799  18.642  0.00  0.00    +0.000 A 
ATOM      5  N   UNL     1       0.862  10.974  18.957  0.00  0.00    +0.000 NA
ATOM      6  C   UNL     1       0.443  10.779  20.192  0.00  0.00    +0.000 A 
ATOM      7  N   UNL     1      -0.217  11.622  21.020  0.00  0.00    +0.000 N 
ATOM      8  C   UNL     1      -0.726  12.855  20.434  0.00  0.00    +0.000 C 
ATOM      9  C   UNL     1      -0.891  13.896  21.533  0.00  0.00    +0.000 C 
ATOM     10  C   UNL     1      -1.751  13.425  22.725  0.00  0.00    +0.000 C 
ATOM     11  C   UNL     1      -1.280  12.037  23.196  0.00  0.00    +0.000 C 
ATOM     12  C   UNL     1      -1.028  11.029  22.082  0.00  0.00    +0.000 C 
ATOM     13  O   UNL     1       0.758   9.554  20.717  0.00  0.00    +0.000 OA
ATOM     14  C   UNL     1       1.420   8.935  19.719  0.00  0.00    +0.000 A 
ATOM     15  C   UNL     1       1.949   7.661  19.724  0.00  0.00    +0.000 A 
ENDROOT
BRANCH   1  18
ATOM     16  C   UNL     1       2.756   3.527  18.393  0.00  0.00    +0.000 A 
ATOM     17  C   UNL     1       2.240   4.872  18.599  0.00  0.00    +0.000 A 
ATOM     18  C   UNL     1       3.047   5.926  18.369  0.00  0.00    +0.000 A 
ATOM     19  N   UNL     1       4.369   5.705  17.928  0.00  0.00    +0.000 N 
ATOM     20  N   UNL     1       5.308   6.643  17.626  0.00  0.00    +0.000 NA
ATOM     21  C   UNL     1       6.376   5.946  17.243  0.00  0.00    +0.000 A 
ATOM     22  C   UNL     1       6.167   4.561  17.284  0.00  0.00    +0.000 A 
ATOM     23  C   UNL     1       4.875   4.420  17.721  0.00  0.00    +0.000 A 
ATOM     24  C   UNL     1       4.016   3.310  17.974  0.00  0.00    +0.000 A 
ENDBRANCH   1  18
BRANCH  10  25
ATOM     25  N   UNL     1      -3.226  13.556  22.614  0.00  0.00    +0.000 NA
ATOM     26  C   UNL     1      -3.686  13.398  21.223  0.00  0.00    +0.000 C 
ATOM     27  C   UNL     1      -5.177  13.699  21.061  0.00  0.00    +0.000 C 
ATOM     28  C   UNL     1      -6.015  12.864  22.019  0.00  0.00    +0.000 C 
ATOM     29  C   UNL     1      -5.519  13.068  23.440  0.00  0.00    +0.000 C 
ATOM     30  C   UNL     1      -4.027  12.759  23.543  0.00  0.00    +0.000 C 
ENDBRANCH  10  25
TORSDOF 2
ENDMDL
