MODEL 1
REMARK VINA RESULT:      -6.6      0.000      0.000
REMARK  Name = 
REMARK  16 active torsions:
REMARK  status: ('A' for Active; 'I' for Inactive)
REMARK    1  A    between atoms: N_1  and  C_2
REMARK    2  A    between atoms: C_2  and  C_3
REMARK    3  A    between atoms: C_5  and  O_6
REMARK    4  A    between atoms: O_6  and  C_7
REMARK    5  A    between atoms: C_8  and  N_9
REMARK    6  A    between atoms: C_11  and  N_12
REMARK    7  A    between atoms: C_13  and  O_14
REMARK    8  A    between atoms: C_15  and  O_16
REMARK    9  A    between atoms: O_16  and  C_17
REMARK   10  A    between atoms: C_19  and  C_20
REMARK   11  A    between atoms: C_20  and  O_21
REMARK   12  A    between atoms: C_22  and  O_23
REMARK   13  A    between atoms: C_24  and  O_25
REMARK   14  A    between atoms: C_26  and  N_27
REMARK   15  A    between atoms: C_28  and  O_29
REMARK   16  A    between atoms: C_30  and  O_31
REMARK                            x       y       z     vdW  Elec       q    Type
REMARK                         _______ _______ _______ _____ _____    ______ ____
ROOT
ATOM      1  C   UNL     1       2.786   6.194  18.221  0.00  0.00    +0.000 C 
ATOM      2  C   UNL     1       1.691   5.120  18.532  0.00  0.00    +0.000 C 
ATOM      3  C   UNL     1       2.021   4.150  19.691  0.00  0.00    +0.000 C 
ATOM      4  C   UNL     1       3.461   4.059  20.207  0.00  0.00    +0.000 C 
ATOM      5  C   UNL     1       4.547   4.941  19.525  0.00  0.00    +0.000 C 
ATOM      6  C   UNL     1       4.202   5.546  18.143  0.00  0.00    +0.000 C 
ENDROOT
BRANCH   2   7
ATOM      7  N   UNL     1       1.134   4.330  17.408  0.00  0.00    +0.000 NA
ATOM      8  H   UNL     1       0.139   4.129  17.504  0.00  0.00    +0.000 HD
ATOM      9  H   UNL     1       1.634   3.453  17.256  0.00  0.00    +0.000 HD
ENDBRANCH   2   7
BRANCH   4  10
ATOM     10  N   UNL     1       3.847   2.634  20.388  0.00  0.00    +0.000 NA
ATOM     11  H   UNL     1       4.706   2.574  20.901  0.00  0.00    +0.000 HD
ATOM     12  H   UNL     1       4.044   2.236  19.467  0.00  0.00    +0.000 HD
ENDBRANCH   4  10
BRANCH   5  13
ATOM     13  O   UNL     1       5.819   4.277  19.483  0.00  0.00    +0.000 OA
ATOM     14  H   UNL     1       6.478   4.959  19.720  0.00  0.00    +0.000 HD
ENDBRANCH   5  13
BRANCH   6  15
ATOM     15  O   UNL     1       4.397   4.530  17.128  0.00  0.00    +0.000 OA
BRANCH  15  16
ATOM     16  C   UNL     1       5.362   4.802  16.117  0.00  0.00    +0.000 C 
ATOM     17  O   UNL     1       4.827   4.502  14.803  0.00  0.00    +0.000 OA
ATOM     18  C   UNL     1       5.936   4.550  13.875  0.00  0.00    +0.000 C 
ATOM     19  C   UNL     1       7.227   4.454  14.725  0.00  0.00    +0.000 C 
ATOM     20  C   UNL     1       6.698   4.047  16.108  0.00  0.00    +0.000 C 
BRANCH  19  21
ATOM     21  O   UNL     1       7.865   5.736  14.862  0.00  0.00    +0.000 OA
ATOM     22  H   UNL     1       7.312   6.427  14.455  0.00  0.00    +0.000 HD
ENDBRANCH  19  21
BRANCH  20  23
ATOM     23  O   UNL     1       7.588   4.402  17.151  0.00  0.00    +0.000 OA
ATOM     24  H   UNL     1       8.421   3.875  17.078  0.00  0.00    +0.000 HD
ENDBRANCH  20  23
BRANCH  18  25
ATOM     25  C   UNL     1       5.823   3.471  12.801  0.00  0.00    +0.000 C 
BRANCH  25  26
ATOM     26  O   UNL     1       6.882   3.616  11.860  0.00  0.00    +0.000 OA
ATOM     27  H   UNL     1       6.696   4.433  11.355  0.00  0.00    +0.000 HD
ENDBRANCH  25  26
ENDBRANCH  18  25
ENDBRANCH  15  16
ENDBRANCH   6  15
BRANCH   1  28
ATOM     28  O   UNL     1       2.610   7.272  19.239  0.00  0.00    +0.000 OA
BRANCH  28  31
ATOM     29  C   UNL     1       0.992   9.099  21.319  0.00  0.00    +0.000 C 
ATOM     30  O   UNL     1       0.658   8.036  20.423  0.00  0.00    +0.000 OA
ATOM     31  C   UNL     1       1.342   7.962  19.174  0.00  0.00    +0.000 C 
ATOM     32  C   UNL     1       1.334   9.377  18.453  0.00  0.00    +0.000 C 
ATOM     33  C   UNL     1       1.644  10.548  19.402  0.00  0.00    +0.000 C 
ATOM     34  C   UNL     1       0.791  10.470  20.662  0.00  0.00    +0.000 C 
BRANCH  32  35
ATOM     35  N   UNL     1       2.092   9.651  17.211  0.00  0.00    +0.000 NA
ATOM     36  H   UNL     1       2.569  10.549  17.262  0.00  0.00    +0.000 HD
ATOM     37  H   UNL     1       2.790   8.931  17.039  0.00  0.00    +0.000 HD
ENDBRANCH  32  35
BRANCH  34  38
ATOM     38  O   UNL     1       1.187  11.535  21.544  0.00  0.00    +0.000 OA
ATOM     39  H   UNL     1       2.168  11.542  21.518  0.00  0.00    +0.000 HD
ENDBRANCH  34  38
BRANCH  33  40
ATOM     40  O   UNL     1       1.342  11.794  18.748  0.00  0.00    +0.000 OA
ATOM     41  H   UNL     1       2.048  11.889  18.074  0.00  0.00    +0.000 HD
ENDBRANCH  33  40
BRANCH  29  42
ATOM     42  C   UNL     1       0.039   9.016  22.539  0.00  0.00    +0.000 C 
BRANCH  42  43
ATOM     43  N   UNL     1       0.602   9.640  23.748  0.00  0.00    +0.000 NA
ATOM     44  H   UNL     1       0.037   9.349  24.546  0.00  0.00    +0.000 HD
ATOM     45  H   UNL     1       0.483  10.650  23.676  0.00  0.00    +0.000 HD
ENDBRANCH  42  43
ENDBRANCH  29  42
ENDBRANCH  28  31
ENDBRANCH   1  28
TORSDOF 16
ENDMDL
MODEL 2
REMARK VINA RESULT:      -6.5      2.579      4.755
REMARK  Name = 
REMARK  16 active torsions:
REMARK  status: ('A' for Active; 'I' for Inactive)
REMARK    1  A    between atoms: N_1  and  C_2
REMARK    2  A    between atoms: C_2  and  C_3
REMARK    3  A    between atoms: C_5  and  O_6
REMARK    4  A    between atoms: O_6  and  C_7
REMARK    5  A    between atoms: C_8  and  N_9
REMARK    6  A    between atoms: C_11  and  N_12
REMARK    7  A    between atoms: C_13  and  O_14
REMARK    8  A    between atoms: C_15  and  O_16
REMARK    9  A    between atoms: O_16  and  C_17
REMARK   10  A    between atoms: C_19  and  C_20
REMARK   11  A    between atoms: C_20  and  O_21
REMARK   12  A    between atoms: C_22  and  O_23
REMARK   13  A    between atoms: C_24  and  O_25
REMARK   14  A    between atoms: C_26  and  N_27
REMARK   15  A    between atoms: C_28  and  O_29
REMARK   16  A    between atoms: C_30  and  O_31
REMARK                            x       y       z     vdW  Elec       q    Type
REMARK                         _______ _______ _______ _____ _____    ______ ____
ROOT
ATOM      1  C   UNL     1       4.580   6.071  17.873  0.00  0.00    +0.000 C 
ATOM      2  C   UNL     1       6.064   6.346  18.286  0.00  0.00    +0.000 C 
ATOM      3  C   UNL     1       7.044   6.601  17.115  0.00  0.00    +0.000 C 
ATOM      4  C   UNL     1       6.620   6.239  15.688  0.00  0.00    +0.000 C 
ATOM      5  C   UNL     1       5.213   5.605  15.474  0.00  0.00    +0.000 C 
ATOM      6  C   UNL     1       4.502   5.025  16.719  0.00  0.00    +0.000 C 
ENDROOT
BRANCH   2   7
ATOM      7  N   UNL     1       6.715   5.422  19.244  0.00  0.00    +0.000 NA
ATOM      8  H   UNL     1       6.129   5.183  20.044  0.00  0.00    +0.000 HD
ATOM      9  H   UNL     1       7.611   5.772  19.586  0.00  0.00    +0.000 HD
ENDBRANCH   2   7
BRANCH   4  10
ATOM     10  N   UNL     1       7.727   5.531  14.992  0.00  0.00    +0.000 NA
ATOM     11  H   UNL     1       8.551   5.537  15.564  0.00  0.00    +0.000 HD
ATOM     12  H   UNL     1       7.969   6.061  14.151  0.00  0.00    +0.000 HD
ENDBRANCH   4  10
BRANCH   5  13
ATOM     13  O   UNL     1       5.221   4.648  14.404  0.00  0.00    +0.000 OA
ATOM     14  H   UNL     1       5.948   4.923  13.812  0.00  0.00    +0.000 HD
ENDBRANCH   5  13
BRANCH   6  15
ATOM     15  O   UNL     1       5.046   3.710  16.997  0.00  0.00    +0.000 OA
BRANCH  15  16
ATOM     16  C   UNL     1       4.174   2.764  17.605  0.00  0.00    +0.000 C 
ATOM     17  O   UNL     1       2.792   3.049  17.269  0.00  0.00    +0.000 OA
ATOM     18  C   UNL     1       1.970   2.221  18.124  0.00  0.00    +0.000 C 
ATOM     19  C   UNL     1       2.877   1.750  19.288  0.00  0.00    +0.000 C 
ATOM     20  C   UNL     1       4.122   2.638  19.133  0.00  0.00    +0.000 C 
BRANCH  19  21
ATOM     21  O   UNL     1       3.293   0.384  19.113  0.00  0.00    +0.000 OA
ATOM     22  H   UNL     1       3.192  -0.102  19.950  0.00  0.00    +0.000 HD
ENDBRANCH  19  21
BRANCH  20  23
ATOM     23  O   UNL     1       5.273   2.059  19.721  0.00  0.00    +0.000 OA
ATOM     24  H   UNL     1       5.954   2.756  19.885  0.00  0.00    +0.000 HD
ENDBRANCH  20  23
BRANCH  18  25
ATOM     25  C   UNL     1       0.711   2.953  18.581  0.00  0.00    +0.000 C 
BRANCH  25  26
ATOM     26  O   UNL     1       0.464   2.673  19.955  0.00  0.00    +0.000 OA
ATOM     27  H   UNL     1       0.946   3.353  20.469  0.00  0.00    +0.000 HD
ENDBRANCH  25  26
ENDBRANCH  18  25
ENDBRANCH  15  16
ENDBRANCH   6  15
BRANCH   1  28
ATOM     28  O   UNL     1       3.975   7.407  17.592  0.00  0.00    +0.000 OA
BRANCH  28  31
ATOM     29  C   UNL     1       2.112   6.858  20.144  0.00  0.00    +0.000 C 
ATOM     30  O   UNL     1       2.057   6.530  18.753  0.00  0.00    +0.000 OA
ATOM     31  C   UNL     1       2.549   7.482  17.812  0.00  0.00    +0.000 C 
ATOM     32  C   UNL     1       1.945   8.919  18.111  0.00  0.00    +0.000 C 
ATOM     33  C   UNL     1       1.946   9.284  19.606  0.00  0.00    +0.000 C 
ATOM     34  C   UNL     1       1.353   8.157  20.444  0.00  0.00    +0.000 C 
BRANCH  32  35
ATOM     35  N   UNL     1       2.384  10.140  17.398  0.00  0.00    +0.000 NA
ATOM     36  H   UNL     1       2.896  10.764  18.017  0.00  0.00    +0.000 HD
ATOM     37  H   UNL     1       2.986   9.910  16.610  0.00  0.00    +0.000 HD
ENDBRANCH  32  35
BRANCH  34  38
ATOM     38  O   UNL     1       1.463   8.517  21.832  0.00  0.00    +0.000 OA
ATOM     39  H   UNL     1       0.557   8.427  22.196  0.00  0.00    +0.000 HD
ENDBRANCH  34  38
BRANCH  33  40
ATOM     40  O   UNL     1       1.140  10.456  19.820  0.00  0.00    +0.000 OA
ATOM     41  H   UNL     1       0.726  10.306  20.697  0.00  0.00    +0.000 HD
ENDBRANCH  33  40
BRANCH  29  42
ATOM     42  C   UNL     1       1.422   5.717  20.935  0.00  0.00    +0.000 C 
BRANCH  42  43
ATOM     43  N   UNL     1       2.371   4.697  21.411  0.00  0.00    +0.000 NA
ATOM     44  H   UNL     1       2.091   3.797  21.020  0.00  0.00    +0.000 HD
ATOM     45  H   UNL     1       2.266   4.605  22.422  0.00  0.00    +0.000 HD
ENDBRANCH  42  43
ENDBRANCH  29  42
ENDBRANCH  28  31
ENDBRANCH   1  28
TORSDOF 16
ENDMDL
MODEL 3
REMARK VINA RESULT:      -5.9      2.198      3.445
REMARK  Name = 
REMARK  16 active torsions:
REMARK  status: ('A' for Active; 'I' for Inactive)
REMARK    1  A    between atoms: N_1  and  C_2
REMARK    2  A    between atoms: C_2  and  C_3
REMARK    3  A    between atoms: C_5  and  O_6
REMARK    4  A    between atoms: O_6  and  C_7
REMARK    5  A    between atoms: C_8  and  N_9
REMARK    6  A    between atoms: C_11  and  N_12
REMARK    7  A    between atoms: C_13  and  O_14
REMARK    8  A    between atoms: C_15  and  O_16
REMARK    9  A    between atoms: O_16  and  C_17
REMARK   10  A    between atoms: C_19  and  C_20
REMARK   11  A    between atoms: C_20  and  O_21
REMARK   12  A    between atoms: C_22  and  O_23
REMARK   13  A    between atoms: C_24  and  O_25
REMARK   14  A    between atoms: C_26  and  N_27
REMARK   15  A    between atoms: C_28  and  O_29
REMARK   16  A    between atoms: C_30  and  O_31
REMARK                            x       y       z     vdW  Elec       q    Type
REMARK                         _______ _______ _______ _____ _____    ______ ____
ROOT
ATOM      1  C   UNL     1       2.651   5.671  18.270  0.00  0.00    +0.000 C 
ATOM      2  C   UNL     1       1.778   4.517  17.676  0.00  0.00    +0.000 C 
ATOM      3  C   UNL     1       0.884   3.767  18.693  0.00  0.00    +0.000 C 
ATOM      4  C   UNL     1       1.148   3.939  20.192  0.00  0.00    +0.000 C 
ATOM      5  C   UNL     1       2.327   4.853  20.636  0.00  0.00    +0.000 C 
ATOM      6  C   UNL     1       3.386   5.210  19.566  0.00  0.00    +0.000 C 
ENDROOT
BRANCH   2   7
ATOM      7  N   UNL     1       2.431   3.513  16.803  0.00  0.00    +0.000 NA
ATOM      8  H   UNL     1       2.399   3.751  15.811  0.00  0.00    +0.000 HD
ATOM      9  H   UNL     1       2.052   2.573  16.927  0.00  0.00    +0.000 HD
ENDBRANCH   2   7
BRANCH   4  10
ATOM     10  N   UNL     1       1.104   2.616  20.870  0.00  0.00    +0.000 NA
ATOM     11  H   UNL     1       0.314   2.090  20.547  0.00  0.00    +0.000 HD
ATOM     12  H   UNL     1       0.945   2.771  21.869  0.00  0.00    +0.000 HD
ENDBRANCH   4  10
BRANCH   5  13
ATOM     13  O   UNL     1       2.959   4.362  21.828  0.00  0.00    +0.000 OA
ATOM     14  H   UNL     1       2.358   4.603  22.560  0.00  0.00    +0.000 HD
ENDBRANCH   5  13
BRANCH   6  15
ATOM     15  O   UNL     1       4.306   4.098  19.431  0.00  0.00    +0.000 OA
BRANCH  15  16
ATOM     16  C   UNL     1       5.571   4.373  18.839  0.00  0.00    +0.000 C 
ATOM     17  O   UNL     1       6.070   5.665  19.270  0.00  0.00    +0.000 OA
ATOM     18  C   UNL     1       7.208   5.979  18.434  0.00  0.00    +0.000 C 
ATOM     19  C   UNL     1       7.118   5.049  17.199  0.00  0.00    +0.000 C 
ATOM     20  C   UNL     1       5.702   4.462  17.313  0.00  0.00    +0.000 C 
BRANCH  19  21
ATOM     21  O   UNL     1       8.050   3.957  17.292  0.00  0.00    +0.000 OA
ATOM     22  H   UNL     1       8.930   4.293  17.537  0.00  0.00    +0.000 HD
ENDBRANCH  19  21
BRANCH  20  23
ATOM     23  O   UNL     1       5.575   3.227  16.632  0.00  0.00    +0.000 OA
ATOM     24  H   UNL     1       6.353   2.652  16.829  0.00  0.00    +0.000 HD
ENDBRANCH  20  23
BRANCH  18  25
ATOM     25  C   UNL     1       7.261   7.464  18.085  0.00  0.00    +0.000 C 
BRANCH  25  26
ATOM     26  O   UNL     1       7.734   7.628  16.752  0.00  0.00    +0.000 OA
ATOM     27  H   UNL     1       7.100   7.160  16.172  0.00  0.00    +0.000 HD
ENDBRANCH  25  26
ENDBRANCH  18  25
ENDBRANCH  15  16
ENDBRANCH   6  15
BRANCH   1  28
ATOM     28  O   UNL     1       1.742   6.847  18.411  0.00  0.00    +0.000 OA
BRANCH  28  31
ATOM     29  C   UNL     1       1.675  10.043  18.166  0.00  0.00    +0.000 C 
ATOM     30  O   UNL     1       2.665   9.069  18.502  0.00  0.00    +0.000 OA
ATOM     31  C   UNL     1       2.260   7.914  19.235  0.00  0.00    +0.000 C 
ATOM     32  C   UNL     1       1.386   8.337  20.492  0.00  0.00    +0.000 C 
ATOM     33  C   UNL     1       0.340   9.420  20.174  0.00  0.00    +0.000 C 
ATOM     34  C   UNL     1       0.972  10.583  19.418  0.00  0.00    +0.000 C 
BRANCH  32  35
ATOM     35  N   UNL     1       0.697   7.354  21.360  0.00  0.00    +0.000 NA
ATOM     36  H   UNL     1      -0.254   7.650  21.568  0.00  0.00    +0.000 HD
ATOM     37  H   UNL     1       0.654   6.439  20.917  0.00  0.00    +0.000 HD
ENDBRANCH  32  35
BRANCH  34  38
ATOM     38  O   UNL     1      -0.066  11.516  19.073  0.00  0.00    +0.000 OA
ATOM     39  H   UNL     1       0.389  12.376  18.946  0.00  0.00    +0.000 HD
ENDBRANCH  34  38
BRANCH  33  40
ATOM     40  O   UNL     1      -0.205   9.942  21.399  0.00  0.00    +0.000 OA
ATOM     41  H   UNL     1      -0.649   9.172  21.812  0.00  0.00    +0.000 HD
ENDBRANCH  33  40
BRANCH  29  42
ATOM     42  C   UNL     1       2.388  11.234  17.476  0.00  0.00    +0.000 C 
BRANCH  42  43
ATOM     43  N   UNL     1       2.495  12.418  18.344  0.00  0.00    +0.000 NA
ATOM     44  H   UNL     1       2.543  12.096  19.312  0.00  0.00    +0.000 HD
ATOM     45  H   UNL     1       1.629  12.952  18.272  0.00  0.00    +0.000 HD
ENDBRANCH  42  43
ENDBRANCH  29  42
ENDBRANCH  28  31
ENDBRANCH   1  28
TORSDOF 16
ENDMDL
MODEL 4
REMARK VINA RESULT:      -5.9      2.605      4.924
REMARK  Name = 
REMARK  16 active torsions:
REMARK  status: ('A' for Active; 'I' for Inactive)
REMARK    1  A    between atoms: N_1  and  C_2
REMARK    2  A    between atoms: C_2  and  C_3
REMARK    3  A    between atoms: C_5  and  O_6
REMARK    4  A    between atoms: O_6  and  C_7
REMARK    5  A    between atoms: C_8  and  N_9
REMARK    6  A    between atoms: C_11  and  N_12
REMARK    7  A    between atoms: C_13  and  O_14
REMARK    8  A    between atoms: C_15  and  O_16
REMARK    9  A    between atoms: O_16  and  C_17
REMARK   10  A    between atoms: C_19  and  C_20
REMARK   11  A    between atoms: C_20  and  O_21
REMARK   12  A    between atoms: C_22  and  O_23
REMARK   13  A    between atoms: C_24  and  O_25
REMARK   14  A    between atoms: C_26  and  N_27
REMARK   15  A    between atoms: C_28  and  O_29
REMARK   16  A    between atoms: C_30  and  O_31
REMARK                            x       y       z     vdW  Elec       q    Type
REMARK                         _______ _______ _______ _____ _____    ______ ____
ROOT
ATOM      1  C   UNL     1       4.415   6.180  17.906  0.00  0.00    +0.000 C 
ATOM      2  C   UNL     1       5.891   6.484  18.329  0.00  0.00    +0.000 C 
ATOM      3  C   UNL     1       6.903   6.616  17.166  0.00  0.00    +0.000 C 
ATOM      4  C   UNL     1       6.512   6.120  15.770  0.00  0.00    +0.000 C 
ATOM      5  C   UNL     1       5.106   5.478  15.582  0.00  0.00    +0.000 C 
ATOM      6  C   UNL     1       4.357   5.027  16.858  0.00  0.00    +0.000 C 
ENDROOT
BRANCH   2   7
ATOM      7  N   UNL     1       6.508   5.653  19.390  0.00  0.00    +0.000 NA
ATOM      8  H   UNL     1       5.983   5.650  20.264  0.00  0.00    +0.000 HD
ATOM      9  H   UNL     1       7.474   5.917  19.588  0.00  0.00    +0.000 HD
ENDBRANCH   2   7
BRANCH   4  10
ATOM     10  N   UNL     1       7.631   5.340  15.176  0.00  0.00    +0.000 NA
ATOM     11  H   UNL     1       7.302   4.812  14.391  0.00  0.00    +0.000 HD
ATOM     12  H   UNL     1       7.943   4.651  15.865  0.00  0.00    +0.000 HD
ENDBRANCH   4  10
BRANCH   5  13
ATOM     13  O   UNL     1       5.132   4.421  14.611  0.00  0.00    +0.000 OA
ATOM     14  H   UNL     1       4.200   4.280  14.352  0.00  0.00    +0.000 HD
ENDBRANCH   5  13
BRANCH   6  15
ATOM     15  O   UNL     1       4.882   3.742  17.277  0.00  0.00    +0.000 OA
BRANCH  15  16
ATOM     16  C   UNL     1       4.226   3.099  18.364  0.00  0.00    +0.000 C 
ATOM     17  O   UNL     1       5.182   2.716  19.387  0.00  0.00    +0.000 OA
ATOM     18  C   UNL     1       4.485   1.849  20.312  0.00  0.00    +0.000 C 
ATOM     19  C   UNL     1       3.205   1.364  19.585  0.00  0.00    +0.000 C 
ATOM     20  C   UNL     1       3.454   1.794  18.131  0.00  0.00    +0.000 C 
BRANCH  19  21
ATOM     21  O   UNL     1       2.038   2.062  20.052  0.00  0.00    +0.000 OA
ATOM     22  H   UNL     1       1.705   1.645  20.866  0.00  0.00    +0.000 HD
ENDBRANCH  19  21
BRANCH  20  23
ATOM     23  O   UNL     1       2.249   1.939  17.400  0.00  0.00    +0.000 OA
ATOM     24  H   UNL     1       2.451   2.124  16.451  0.00  0.00    +0.000 HD
ENDBRANCH  20  23
BRANCH  18  25
ATOM     25  C   UNL     1       5.378   0.716  20.808  0.00  0.00    +0.000 C 
BRANCH  25  26
ATOM     26  O   UNL     1       5.910   1.046  22.087  0.00  0.00    +0.000 OA
ATOM     27  H   UNL     1       5.237   1.600  22.533  0.00  0.00    +0.000 HD
ENDBRANCH  25  26
ENDBRANCH  18  25
ENDBRANCH  15  16
ENDBRANCH   6  15
BRANCH   1  28
ATOM     28  O   UNL     1       3.830   7.486  17.480  0.00  0.00    +0.000 OA
BRANCH  28  31
ATOM     29  C   UNL     1       2.030   6.982  20.086  0.00  0.00    +0.000 C 
ATOM     30  O   UNL     1       1.909   6.689  18.692  0.00  0.00    +0.000 OA
ATOM     31  C   UNL     1       2.419   7.633  17.753  0.00  0.00    +0.000 C 
ATOM     32  C   UNL     1       1.906   9.094  18.103  0.00  0.00    +0.000 C 
ATOM     33  C   UNL     1       1.979   9.425  19.604  0.00  0.00    +0.000 C 
ATOM     34  C   UNL     1       1.355   8.314  20.439  0.00  0.00    +0.000 C 
BRANCH  32  35
ATOM     35  N   UNL     1       2.385  10.305  17.399  0.00  0.00    +0.000 NA
ATOM     36  H   UNL     1       1.615  10.935  17.184  0.00  0.00    +0.000 HD
ATOM     37  H   UNL     1       3.063  10.814  17.962  0.00  0.00    +0.000 HD
ENDBRANCH  32  35
BRANCH  34  38
ATOM     38  O   UNL     1       1.533   8.636  21.829  0.00  0.00    +0.000 OA
ATOM     39  H   UNL     1       2.234   9.322  21.849  0.00  0.00    +0.000 HD
ENDBRANCH  34  38
BRANCH  33  40
ATOM     40  O   UNL     1       1.246  10.634  19.870  0.00  0.00    +0.000 OA
ATOM     41  H   UNL     1       0.493  10.340  20.427  0.00  0.00    +0.000 HD
ENDBRANCH  33  40
BRANCH  29  42
ATOM     42  C   UNL     1       1.308   5.862  20.878  0.00  0.00    +0.000 C 
BRANCH  42  43
ATOM     43  N   UNL     1       2.213   4.777  21.288  0.00  0.00    +0.000 NA
ATOM     44  H   UNL     1       2.161   4.689  22.304  0.00  0.00    +0.000 HD
ATOM     45  H   UNL     1       3.171   5.060  21.083  0.00  0.00    +0.000 HD
ENDBRANCH  42  43
ENDBRANCH  29  42
ENDBRANCH  28  31
ENDBRANCH   1  28
TORSDOF 16
ENDMDL
MODEL 5
REMARK VINA RESULT:      -5.9      8.047     11.670
REMARK  Name = 
REMARK  16 active torsions:
REMARK  status: ('A' for Active; 'I' for Inactive)
REMARK    1  A    between atoms: N_1  and  C_2
REMARK    2  A    between atoms: C_2  and  C_3
REMARK    3  A    between atoms: C_5  and  O_6
REMARK    4  A    between atoms: O_6  and  C_7
REMARK    5  A    between atoms: C_8  and  N_9
REMARK    6  A    between atoms: C_11  and  N_12
REMARK    7  A    between atoms: C_13  and  O_14
REMARK    8  A    between atoms: C_15  and  O_16
REMARK    9  A    between atoms: O_16  and  C_17
REMARK   10  A    between atoms: C_19  and  C_20
REMARK   11  A    between atoms: C_20  and  O_21
REMARK   12  A    between atoms: C_22  and  O_23
REMARK   13  A    between atoms: C_24  and  O_25
REMARK   14  A    between atoms: C_26  and  N_27
REMARK   15  A    between atoms: C_28  and  O_29
REMARK   16  A    between atoms: C_30  and  O_31
REMARK                            x       y       z     vdW  Elec       q    Type
REMARK                         _______ _______ _______ _____ _____    ______ ____
ROOT
ATOM      1  C   UNL     1      -2.684  12.979  21.811  0.00  0.00    +0.000 C 
ATOM      2  C   UNL     1      -2.600  14.534  21.654  0.00  0.00    +0.000 C 
ATOM      3  C   UNL     1      -2.897  15.349  22.935  0.00  0.00    +0.000 C 
ATOM      4  C   UNL     1      -3.569  14.658  24.126  0.00  0.00    +0.000 C 
ATOM      5  C   UNL     1      -3.947  13.154  23.990  0.00  0.00    +0.000 C 
ATOM      6  C   UNL     1      -3.986  12.560  22.562  0.00  0.00    +0.000 C 
ENDROOT
BRANCH   2   7
ATOM      7  N   UNL     1      -3.313  15.170  20.521  0.00  0.00    +0.000 NA
ATOM      8  H   UNL     1      -3.033  16.136  20.353  0.00  0.00    +0.000 HD
ATOM      9  H   UNL     1      -4.329  15.136  20.623  0.00  0.00    +0.000 HD
ENDBRANCH   2   7
BRANCH   4  10
ATOM     10  N   UNL     1      -4.653  15.520  24.668  0.00  0.00    +0.000 NA
ATOM     11  H   UNL     1      -4.514  15.670  25.649  0.00  0.00    +0.000 HD
ATOM     12  H   UNL     1      -5.538  15.013  24.586  0.00  0.00    +0.000 HD
ENDBRANCH   4  10
BRANCH   5  13
ATOM     13  O   UNL     1      -5.157  12.845  24.699  0.00  0.00    +0.000 OA
ATOM     14  H   UNL     1      -5.883  13.059  24.081  0.00  0.00    +0.000 HD
ENDBRANCH   5  13
BRANCH   6  15
ATOM     15  O   UNL     1      -5.242  12.927  21.939  0.00  0.00    +0.000 OA
BRANCH  15  16
ATOM     16  C   UNL     1      -5.586  12.253  20.733  0.00  0.00    +0.000 C 
ATOM     17  O   UNL     1      -5.356  13.108  19.583  0.00  0.00    +0.000 OA
ATOM     18  C   UNL     1      -5.970  12.460  18.445  0.00  0.00    +0.000 C 
ATOM     19  C   UNL     1      -6.955  11.407  19.014  0.00  0.00    +0.000 C 
ATOM     20  C   UNL     1      -7.026  11.776  20.504  0.00  0.00    +0.000 C 
BRANCH  19  21
ATOM     21  O   UNL     1      -6.417  10.077  18.920  0.00  0.00    +0.000 OA
ATOM     22  H   UNL     1      -6.643   9.688  18.056  0.00  0.00    +0.000 HD
ENDBRANCH  19  21
BRANCH  20  23
ATOM     23  O   UNL     1      -7.424  10.681  21.310  0.00  0.00    +0.000 OA
ATOM     24  H   UNL     1      -8.409  10.662  21.390  0.00  0.00    +0.000 HD
ENDBRANCH  20  23
BRANCH  18  25
ATOM     25  C   UNL     1      -6.622  13.467  17.503  0.00  0.00    +0.000 C 
BRANCH  25  26
ATOM     26  O   UNL     1      -6.339  14.791  17.943  0.00  0.00    +0.000 OA
ATOM     27  H   UNL     1      -5.381  14.932  17.803  0.00  0.00    +0.000 HD
ENDBRANCH  25  26
ENDBRANCH  18  25
ENDBRANCH  15  16
ENDBRANCH   6  15
BRANCH   1  28
ATOM     28  O   UNL     1      -1.397  12.556  22.438  0.00  0.00    +0.000 OA
BRANCH  28  31
ATOM     29  C   UNL     1      -1.560  11.717  19.347  0.00  0.00    +0.000 C 
ATOM     30  O   UNL     1      -1.113  11.088  20.551  0.00  0.00    +0.000 OA
ATOM     31  C   UNL     1      -0.478  11.894  21.542  0.00  0.00    +0.000 C 
ATOM     32  C   UNL     1       0.652  12.793  20.882  0.00  0.00    +0.000 C 
ATOM     33  C   UNL     1       0.218  13.448  19.559  0.00  0.00    +0.000 C 
ATOM     34  C   UNL     1      -0.407  12.421  18.621  0.00  0.00    +0.000 C 
BRANCH  32  35
ATOM     35  N   UNL     1       1.384  13.841  21.629  0.00  0.00    +0.000 NA
ATOM     36  H   UNL     1       1.066  13.895  22.594  0.00  0.00    +0.000 HD
ATOM     37  H   UNL     1       2.385  13.657  21.636  0.00  0.00    +0.000 HD
ENDBRANCH  32  35
BRANCH  34  38
ATOM     38  O   UNL     1      -0.871  13.105  17.445  0.00  0.00    +0.000 OA
ATOM     39  H   UNL     1      -0.066  13.286  16.915  0.00  0.00    +0.000 HD
ENDBRANCH  34  38
BRANCH  33  40
ATOM     40  O   UNL     1       1.366  14.002  18.893  0.00  0.00    +0.000 OA
ATOM     41  H   UNL     1       1.517  14.858  19.346  0.00  0.00    +0.000 HD
ENDBRANCH  33  40
BRANCH  29  42
ATOM     42  C   UNL     1      -2.108  10.615  18.404  0.00  0.00    +0.000 C 
BRANCH  42  43
ATOM     43  N   UNL     1      -1.114  10.160  17.419  0.00  0.00    +0.000 NA
ATOM     44  H   UNL     1      -1.311  10.626  16.533  0.00  0.00    +0.000 HD
ATOM     45  H   UNL     1      -1.260   9.165  17.248  0.00  0.00    +0.000 HD
ENDBRANCH  42  43
ENDBRANCH  29  42
ENDBRANCH  28  31
ENDBRANCH   1  28
TORSDOF 16
ENDMDL
MODEL 6
REMARK VINA RESULT:      -5.9      1.640      2.587
REMARK  Name = 
REMARK  16 active torsions:
REMARK  status: ('A' for Active; 'I' for Inactive)
REMARK    1  A    between atoms: N_1  and  C_2
REMARK    2  A    between atoms: C_2  and  C_3
REMARK    3  A    between atoms: C_5  and  O_6
REMARK    4  A    between atoms: O_6  and  C_7
REMARK    5  A    between atoms: C_8  and  N_9
REMARK    6  A    between atoms: C_11  and  N_12
REMARK    7  A    between atoms: C_13  and  O_14
REMARK    8  A    between atoms: C_15  and  O_16
REMARK    9  A    between atoms: O_16  and  C_17
REMARK   10  A    between atoms: C_19  and  C_20
REMARK   11  A    between atoms: C_20  and  O_21
REMARK   12  A    between atoms: C_22  and  O_23
REMARK   13  A    between atoms: C_24  and  O_25
REMARK   14  A    between atoms: C_26  and  N_27
REMARK   15  A    between atoms: C_28  and  O_29
REMARK   16  A    between atoms: C_30  and  O_31
REMARK                            x       y       z     vdW  Elec       q    Type
REMARK                         _______ _______ _______ _____ _____    ______ ____
ROOT
ATOM      1  C   UNL     1       2.476   4.425  17.584  0.00  0.00    +0.000 C 
ATOM      2  C   UNL     1       2.026   2.994  18.028  0.00  0.00    +0.000 C 
ATOM      3  C   UNL     1       2.721   2.441  19.295  0.00  0.00    +0.000 C 
ATOM      4  C   UNL     1       3.991   3.123  19.813  0.00  0.00    +0.000 C 
ATOM      5  C   UNL     1       4.547   4.345  19.024  0.00  0.00    +0.000 C 
ATOM      6  C   UNL     1       4.030   4.550  17.581  0.00  0.00    +0.000 C 
ENDROOT
BRANCH   2   7
ATOM      7  N   UNL     1       1.988   1.917  17.010  0.00  0.00    +0.000 NA
ATOM      8  H   UNL     1       2.855   1.383  16.948  0.00  0.00    +0.000 HD
ATOM      9  H   UNL     1       1.746   2.259  16.080  0.00  0.00    +0.000 HD
ENDBRANCH   2   7
BRANCH   4  10
ATOM     10  N   UNL     1       5.011   2.099  20.164  0.00  0.00    +0.000 NA
ATOM     11  H   UNL     1       5.046   1.976  21.158  0.00  0.00    +0.000 HD
ATOM     12  H   UNL     1       5.931   2.456  19.895  0.00  0.00    +0.000 HD
ENDBRANCH   4  10
BRANCH   5  13
ATOM     13  O   UNL     1       5.982   4.389  19.058  0.00  0.00    +0.000 OA
ATOM     14  H   UNL     1       6.212   5.333  19.155  0.00  0.00    +0.000 HD
ENDBRANCH   5  13
BRANCH   6  15
ATOM     15  O   UNL     1       4.751   3.657  16.696  0.00  0.00    +0.000 OA
BRANCH  15  16
ATOM     16  C   UNL     1       5.578   4.257  15.704  0.00  0.00    +0.000 C 
ATOM     17  O   UNL     1       5.115   3.915  14.373  0.00  0.00    +0.000 OA
ATOM     18  C   UNL     1       6.144   4.334  13.447  0.00  0.00    +0.000 C 
ATOM     19  C   UNL     1       7.432   4.541  14.282  0.00  0.00    +0.000 C 
ATOM     20  C   UNL     1       7.070   3.905  15.634  0.00  0.00    +0.000 C 
BRANCH  19  21
ATOM     21  O   UNL     1       7.693   5.936  14.512  0.00  0.00    +0.000 OA
ATOM     22  H   UNL     1       6.962   6.473  14.158  0.00  0.00    +0.000 HD
ENDBRANCH  19  21
BRANCH  20  23
ATOM     23  O   UNL     1       7.853   4.419  16.696  0.00  0.00    +0.000 OA
ATOM     24  H   UNL     1       8.805   4.438  16.435  0.00  0.00    +0.000 HD
ENDBRANCH  20  23
BRANCH  18  25
ATOM     25  C   UNL     1       6.307   3.346  12.296  0.00  0.00    +0.000 C 
BRANCH  25  26
ATOM     26  O   UNL     1       5.028   2.978  11.792  0.00  0.00    +0.000 OA
ATOM     27  H   UNL     1       5.130   2.089  11.395  0.00  0.00    +0.000 HD
ENDBRANCH  25  26
ENDBRANCH  18  25
ENDBRANCH  15  16
ENDBRANCH   6  15
BRANCH   1  28
ATOM     28  O   UNL     1       1.741   5.381  18.464  0.00  0.00    +0.000 OA
BRANCH  28  31
ATOM     29  C   UNL     1       1.385   8.568  18.414  0.00  0.00    +0.000 C 
ATOM     30  O   UNL     1       2.463   7.660  18.177  0.00  0.00    +0.000 OA
ATOM     31  C   UNL     1       2.539   6.475  18.967  0.00  0.00    +0.000 C 
ATOM     32  C   UNL     1       2.382   6.827  20.508  0.00  0.00    +0.000 C 
ATOM     33  C   UNL     1       1.259   7.840  20.792  0.00  0.00    +0.000 C 
ATOM     34  C   UNL     1       1.367   9.049  19.871  0.00  0.00    +0.000 C 
BRANCH  32  35
ATOM     35  N   UNL     1       2.269   5.793  21.561  0.00  0.00    +0.000 NA
ATOM     36  H   UNL     1       1.335   5.777  21.963  0.00  0.00    +0.000 HD
ATOM     37  H   UNL     1       2.471   4.867  21.192  0.00  0.00    +0.000 HD
ENDBRANCH  32  35
BRANCH  34  38
ATOM     38  O   UNL     1       0.245   9.912  20.121  0.00  0.00    +0.000 OA
ATOM     39  H   UNL     1       0.535  10.804  19.833  0.00  0.00    +0.000 HD
ENDBRANCH  34  38
BRANCH  33  40
ATOM     40  O   UNL     1       1.365   8.314  22.146  0.00  0.00    +0.000 OA
ATOM     41  H   UNL     1       0.536   8.817  22.291  0.00  0.00    +0.000 HD
ENDBRANCH  33  40
BRANCH  29  42
ATOM     42  C   UNL     1       1.595   9.810  17.510  0.00  0.00    +0.000 C 
BRANCH  42  43
ATOM     43  N   UNL     1       2.046  10.993  18.261  0.00  0.00    +0.000 NA
ATOM     44  H   UNL     1       1.734  11.824  17.758  0.00  0.00    +0.000 HD
ATOM     45  H   UNL     1       3.065  11.021  18.239  0.00  0.00    +0.000 HD
ENDBRANCH  42  43
ENDBRANCH  29  42
ENDBRANCH  28  31
ENDBRANCH   1  28
TORSDOF 16
ENDMDL
MODEL 7
REMARK VINA RESULT:      -5.9      7.742     11.474
REMARK  Name = 
REMARK  16 active torsions:
REMARK  status: ('A' for Active; 'I' for Inactive)
REMARK    1  A    between atoms: N_1  and  C_2
REMARK    2  A    between atoms: C_2  and  C_3
REMARK    3  A    between atoms: C_5  and  O_6
REMARK    4  A    between atoms: O_6  and  C_7
REMARK    5  A    between atoms: C_8  and  N_9
REMARK    6  A    between atoms: C_11  and  N_12
REMARK    7  A    between atoms: C_13  and  O_14
REMARK    8  A    between atoms: C_15  and  O_16
REMARK    9  A    between atoms: O_16  and  C_17
REMARK   10  A    between atoms: C_19  and  C_20
REMARK   11  A    between atoms: C_20  and  O_21
REMARK   12  A    between atoms: C_22  and  O_23
REMARK   13  A    between atoms: C_24  and  O_25
REMARK   14  A    between atoms: C_26  and  N_27
REMARK   15  A    between atoms: C_28  and  O_29
REMARK   16  A    between atoms: C_30  and  O_31
REMARK                            x       y       z     vdW  Elec       q    Type
REMARK                         _______ _______ _______ _____ _____    ______ ____
ROOT
ATOM      1  C   UNL     1      -2.526  13.178  21.595  0.00  0.00    +0.000 C 
ATOM      2  C   UNL     1      -2.368  14.677  22.018  0.00  0.00    +0.000 C 
ATOM      3  C   UNL     1      -3.092  15.080  23.325  0.00  0.00    +0.000 C 
ATOM      4  C   UNL     1      -4.157  14.148  23.911  0.00  0.00    +0.000 C 
ATOM      5  C   UNL     1      -4.483  12.828  23.151  0.00  0.00    +0.000 C 
ATOM      6  C   UNL     1      -4.016  12.726  21.680  0.00  0.00    +0.000 C 
ENDROOT
BRANCH   2   7
ATOM      7  N   UNL     1      -2.617  15.729  21.004  0.00  0.00    +0.000 NA
ATOM      8  H   UNL     1      -3.369  15.499  20.354  0.00  0.00    +0.000 HD
ATOM      9  H   UNL     1      -1.782  15.969  20.469  0.00  0.00    +0.000 HD
ENDBRANCH   2   7
BRANCH   4  10
ATOM     10  N   UNL     1      -5.350  14.934  24.323  0.00  0.00    +0.000 NA
ATOM     11  H   UNL     1      -5.652  14.647  25.235  0.00  0.00    +0.000 HD
ATOM     12  H   UNL     1      -6.120  14.705  23.690  0.00  0.00    +0.000 HD
ENDBRANCH   4  10
BRANCH   5  13
ATOM     13  O   UNL     1      -5.871  12.480  23.266  0.00  0.00    +0.000 OA
ATOM     14  H   UNL     1      -5.903  11.506  23.200  0.00  0.00    +0.000 HD
ENDBRANCH   5  13
BRANCH   6  15
ATOM     15  O   UNL     1      -4.960  13.437  20.840  0.00  0.00    +0.000 OA
BRANCH  15  16
ATOM     16  C   UNL     1      -5.701  12.665  19.902  0.00  0.00    +0.000 C 
ATOM     17  O   UNL     1      -6.632  11.785  20.582  0.00  0.00    +0.000 OA
ATOM     18  C   UNL     1      -7.144  10.863  19.591  0.00  0.00    +0.000 C 
ATOM     19  C   UNL     1      -6.171  10.926  18.387  0.00  0.00    +0.000 C 
ATOM     20  C   UNL     1      -4.973  11.703  18.953  0.00  0.00    +0.000 C 
BRANCH  19  21
ATOM     21  O   UNL     1      -6.721  11.699  17.305  0.00  0.00    +0.000 OA
ATOM     22  H   UNL     1      -6.965  11.112  16.568  0.00  0.00    +0.000 HD
ENDBRANCH  19  21
BRANCH  20  23
ATOM     23  O   UNL     1      -4.212  12.333  17.938  0.00  0.00    +0.000 OA
ATOM     24  H   UNL     1      -4.232  13.313  18.061  0.00  0.00    +0.000 HD
ENDBRANCH  20  23
BRANCH  18  25
ATOM     25  C   UNL     1      -7.327   9.461  20.163  0.00  0.00    +0.000 C 
BRANCH  25  26
ATOM     26  O   UNL     1      -7.627   9.542  21.552  0.00  0.00    +0.000 OA
ATOM     27  H   UNL     1      -6.815   9.861  21.994  0.00  0.00    +0.000 HD
ENDBRANCH  25  26
ENDBRANCH  18  25
ENDBRANCH  15  16
ENDBRANCH   6  15
BRANCH   1  28
ATOM     28  O   UNL     1      -1.556  12.409  22.429  0.00  0.00    +0.000 OA
BRANCH  28  31
ATOM     29  C   UNL     1      -1.076  11.557  19.375  0.00  0.00    +0.000 C 
ATOM     30  O   UNL     1      -0.737  11.008  20.651  0.00  0.00    +0.000 OA
ATOM     31  C   UNL     1      -0.409  11.905  21.710  0.00  0.00    +0.000 C 
ATOM     32  C   UNL     1       0.655  12.976  21.218  0.00  0.00    +0.000 C 
ATOM     33  C   UNL     1       0.344  13.553  19.826  0.00  0.00    +0.000 C 
ATOM     34  C   UNL     1       0.052  12.439  18.826  0.00  0.00    +0.000 C 
BRANCH  32  35
ATOM     35  N   UNL     1       1.078  14.128  22.047  0.00  0.00    +0.000 NA
ATOM     36  H   UNL     1       1.312  13.834  22.993  0.00  0.00    +0.000 HD
ATOM     37  H   UNL     1       1.893  14.589  21.648  0.00  0.00    +0.000 HD
ENDBRANCH  32  35
BRANCH  34  38
ATOM     38  O   UNL     1      -0.317  13.040  17.573  0.00  0.00    +0.000 OA
ATOM     39  H   UNL     1      -1.291  13.146  17.613  0.00  0.00    +0.000 HD
ENDBRANCH  34  38
BRANCH  33  40
ATOM     40  O   UNL     1       1.482  14.287  19.340  0.00  0.00    +0.000 OA
ATOM     41  H   UNL     1       1.369  14.287  18.366  0.00  0.00    +0.000 HD
ENDBRANCH  33  40
BRANCH  29  42
ATOM     42  C   UNL     1      -1.279  10.382  18.384  0.00  0.00    +0.000 C 
BRANCH  42  43
ATOM     43  N   UNL     1      -1.917  10.800  17.125  0.00  0.00    +0.000 NA
ATOM     44  H   UNL     1      -2.857  11.134  17.342  0.00  0.00    +0.000 HD
ATOM     45  H   UNL     1      -2.044   9.975  16.538  0.00  0.00    +0.000 HD
ENDBRANCH  42  43
ENDBRANCH  29  42
ENDBRANCH  28  31
ENDBRANCH   1  28
TORSDOF 16
ENDMDL
MODEL 8
REMARK VINA RESULT:      -5.8      2.191      3.065
REMARK  Name = 
REMARK  16 active torsions:
REMARK  status: ('A' for Active; 'I' for Inactive)
REMARK    1  A    between atoms: N_1  and  C_2
REMARK    2  A    between atoms: C_2  and  C_3
REMARK    3  A    between atoms: C_5  and  O_6
REMARK    4  A    between atoms: O_6  and  C_7
REMARK    5  A    between atoms: C_8  and  N_9
REMARK    6  A    between atoms: C_11  and  N_12
REMARK    7  A    between atoms: C_13  and  O_14
REMARK    8  A    between atoms: C_15  and  O_16
REMARK    9  A    between atoms: O_16  and  C_17
REMARK   10  A    between atoms: C_19  and  C_20
REMARK   11  A    between atoms: C_20  and  O_21
REMARK   12  A    between atoms: C_22  and  O_23
REMARK   13  A    between atoms: C_24  and  O_25
REMARK   14  A    between atoms: C_26  and  N_27
REMARK   15  A    between atoms: C_28  and  O_29
REMARK   16  A    between atoms: C_30  and  O_31
REMARK                            x       y       z     vdW  Elec       q    Type
REMARK                         _______ _______ _______ _____ _____    ______ ____
ROOT
ATOM      1  C   UNL     1       4.237   5.990  16.896  0.00  0.00    +0.000 C 
ATOM      2  C   UNL     1       4.308   5.006  18.110  0.00  0.00    +0.000 C 
ATOM      3  C   UNL     1       5.555   5.155  19.015  0.00  0.00    +0.000 C 
ATOM      4  C   UNL     1       6.758   5.958  18.509  0.00  0.00    +0.000 C 
ATOM      5  C   UNL     1       6.684   6.581  17.084  0.00  0.00    +0.000 C 
ATOM      6  C   UNL     1       5.594   6.037  16.130  0.00  0.00    +0.000 C 
ENDROOT
BRANCH   2   7
ATOM      7  N   UNL     1       4.080   3.562  17.866  0.00  0.00    +0.000 NA
ATOM      8  H   UNL     1       3.606   3.088  18.634  0.00  0.00    +0.000 HD
ATOM      9  H   UNL     1       4.940   3.057  17.649  0.00  0.00    +0.000 HD
ENDBRANCH   2   7
BRANCH   4  10
ATOM     10  N   UNL     1       8.017   5.221  18.795  0.00  0.00    +0.000 NA
ATOM     11  H   UNL     1       8.620   5.781  19.369  0.00  0.00    +0.000 HD
ATOM     12  H   UNL     1       8.518   5.086  17.914  0.00  0.00    +0.000 HD
ENDBRANCH   4  10
BRANCH   5  13
ATOM     13  O   UNL     1       7.966   6.582  16.439  0.00  0.00    +0.000 OA
ATOM     14  H   UNL     1       8.472   5.861  16.862  0.00  0.00    +0.000 HD
ENDBRANCH   5  13
BRANCH   6  15
ATOM     15  O   UNL     1       6.059   4.790  15.555  0.00  0.00    +0.000 OA
BRANCH  15  16
ATOM     16  C   UNL     1       6.254   4.760  14.145  0.00  0.00    +0.000 C 
ATOM     17  O   UNL     1       5.497   3.678  13.544  0.00  0.00    +0.000 OA
ATOM     18  C   UNL     1       5.951   3.554  12.176  0.00  0.00    +0.000 C 
ATOM     19  C   UNL     1       7.308   4.296  12.093  0.00  0.00    +0.000 C 
ATOM     20  C   UNL     1       7.659   4.538  13.569  0.00  0.00    +0.000 C 
BRANCH  19  21
ATOM     21  O   UNL     1       7.169   5.581  11.461  0.00  0.00    +0.000 OA
ATOM     22  H   UNL     1       7.762   5.638  10.691  0.00  0.00    +0.000 HD
ENDBRANCH  19  21
BRANCH  20  23
ATOM     23  O   UNL     1       8.549   5.626  13.739  0.00  0.00    +0.000 OA
ATOM     24  H   UNL     1       8.059   6.414  14.078  0.00  0.00    +0.000 HD
ENDBRANCH  20  23
BRANCH  18  25
ATOM     25  C   UNL     1       6.018   2.096  11.732  0.00  0.00    +0.000 C 
BRANCH  25  26
ATOM     26  O   UNL     1       7.343   1.778  11.319  0.00  0.00    +0.000 OA
ATOM     27  H   UNL     1       7.670   2.550  10.815  0.00  0.00    +0.000 HD
ENDBRANCH  25  26
ENDBRANCH  18  25
ENDBRANCH  15  16
ENDBRANCH   6  15
BRANCH   1  28
ATOM     28  O   UNL     1       3.745   7.289  17.444  0.00  0.00    +0.000 OA
BRANCH  28  31
ATOM     29  C   UNL     1       2.141   6.636  20.143  0.00  0.00    +0.000 C 
ATOM     30  O   UNL     1       1.973   6.324  18.758  0.00  0.00    +0.000 OA
ATOM     31  C   UNL     1       2.343   7.305  17.791  0.00  0.00    +0.000 C 
ATOM     32  C   UNL     1       1.715   8.714  18.166  0.00  0.00    +0.000 C 
ATOM     33  C   UNL     1       1.837   9.060  19.661  0.00  0.00    +0.000 C 
ATOM     34  C   UNL     1       1.364   7.901  20.530  0.00  0.00    +0.000 C 
BRANCH  32  35
ATOM     35  N   UNL     1       2.041   9.960  17.436  0.00  0.00    +0.000 NA
ATOM     36  H   UNL     1       1.347  10.158  16.717  0.00  0.00    +0.000 HD
ATOM     37  H   UNL     1       2.079  10.758  18.067  0.00  0.00    +0.000 HD
ENDBRANCH  32  35
BRANCH  34  38
ATOM     38  O   UNL     1       1.585   8.248  21.908  0.00  0.00    +0.000 OA
ATOM     39  H   UNL     1       0.888   8.902  22.126  0.00  0.00    +0.000 HD
ENDBRANCH  34  38
BRANCH  33  40
ATOM     40  O   UNL     1       1.009  10.197  19.964  0.00  0.00    +0.000 OA
ATOM     41  H   UNL     1       0.427  10.287  19.180  0.00  0.00    +0.000 HD
ENDBRANCH  33  40
BRANCH  29  42
ATOM     42  C   UNL     1       1.569   5.459  20.974  0.00  0.00    +0.000 C 
BRANCH  42  43
ATOM     43  N   UNL     1       1.744   4.155  20.313  0.00  0.00    +0.000 NA
ATOM     44  H   UNL     1       2.378   3.594  20.883  0.00  0.00    +0.000 HD
ATOM     45  H   UNL     1       2.226   4.304  19.426  0.00  0.00    +0.000 HD
ENDBRANCH  42  43
ENDBRANCH  29  42
ENDBRANCH  28  31
ENDBRANCH   1  28
TORSDOF 16
ENDMDL
MODEL 9
REMARK VINA RESULT:      -5.7      7.035      9.109
REMARK  Name = 
REMARK  16 active torsions:
REMARK  status: ('A' for Active; 'I' for Inactive)
REMARK    1  A    between atoms: N_1  and  C_2
REMARK    2  A    between atoms: C_2  and  C_3
REMARK    3  A    between atoms: C_5  and  O_6
REMARK    4  A    between atoms: O_6  and  C_7
REMARK    5  A    between atoms: C_8  and  N_9
REMARK    6  A    between atoms: C_11  and  N_12
REMARK    7  A    between atoms: C_13  and  O_14
REMARK    8  A    between atoms: C_15  and  O_16
REMARK    9  A    between atoms: O_16  and  C_17
REMARK   10  A    between atoms: C_19  and  C_20
REMARK   11  A    between atoms: C_20  and  O_21
REMARK   12  A    between atoms: C_22  and  O_23
REMARK   13  A    between atoms: C_24  and  O_25
REMARK   14  A    between atoms: C_26  and  N_27
REMARK   15  A    between atoms: C_28  and  O_29
REMARK   16  A    between atoms: C_30  and  O_31
REMARK                            x       y       z     vdW  Elec       q    Type
REMARK                         _______ _______ _______ _____ _____    ______ ____
ROOT
ATOM      1  C   UNL     1      -0.485  12.289  19.082  0.00  0.00    +0.000 C 
ATOM      2  C   UNL     1      -0.376  10.747  19.329  0.00  0.00    +0.000 C 
ATOM      3  C   UNL     1      -0.761  10.272  20.751  0.00  0.00    +0.000 C 
ATOM      4  C   UNL     1      -0.875  11.300  21.881  0.00  0.00    +0.000 C 
ATOM      5  C   UNL     1      -0.577  12.794  21.554  0.00  0.00    +0.000 C 
ATOM      6  C   UNL     1       0.183  13.092  20.240  0.00  0.00    +0.000 C 
ENDROOT
BRANCH   2   7
ATOM      7  N   UNL     1       0.870  10.053  18.928  0.00  0.00    +0.000 NA
ATOM      8  H   UNL     1       1.715  10.597  19.102  0.00  0.00    +0.000 HD
ATOM      9  H   UNL     1       0.863   9.760  17.950  0.00  0.00    +0.000 HD
ENDBRANCH   2   7
BRANCH   4  10
ATOM     10  N   UNL     1      -0.198  10.790  23.103  0.00  0.00    +0.000 NA
ATOM     11  H   UNL     1       0.475  11.458  23.427  0.00  0.00    +0.000 HD
ATOM     12  H   UNL     1       0.337   9.956  22.849  0.00  0.00    +0.000 HD
ENDBRANCH   4  10
BRANCH   5  13
ATOM     13  O   UNL     1       0.044  13.464  22.660  0.00  0.00    +0.000 OA
ATOM     14  H   UNL     1      -0.029  14.419  22.463  0.00  0.00    +0.000 HD
ENDBRANCH   5  13
BRANCH   6  15
ATOM     15  O   UNL     1       1.598  12.862  20.457  0.00  0.00    +0.000 OA
BRANCH  15  16
ATOM     16  C   UNL     1       2.506  13.617  19.661  0.00  0.00    +0.000 C 
ATOM     17  O   UNL     1       2.413  15.030  19.976  0.00  0.00    +0.000 OA
ATOM     18  C   UNL     1       3.158  15.739  18.959  0.00  0.00    +0.000 C 
ATOM     19  C   UNL     1       3.336  14.755  17.776  0.00  0.00    +0.000 C 
ATOM     20  C   UNL     1       2.374  13.611  18.133  0.00  0.00    +0.000 C 
BRANCH  19  21
ATOM     21  O   UNL     1       4.667  14.210  17.740  0.00  0.00    +0.000 OA
ATOM     22  H   UNL     1       4.751  13.591  16.993  0.00  0.00    +0.000 HD
ENDBRANCH  19  21
BRANCH  20  23
ATOM     23  O   UNL     1       2.734  12.391  17.510  0.00  0.00    +0.000 OA
ATOM     24  H   UNL     1       3.474  12.543  16.873  0.00  0.00    +0.000 HD
ENDBRANCH  20  23
BRANCH  18  25
ATOM     25  C   UNL     1       2.480  17.051  18.572  0.00  0.00    +0.000 C 
BRANCH  25  26
ATOM     26  O   UNL     1       2.803  17.381  17.225  0.00  0.00    +0.000 OA
ATOM     27  H   UNL     1       3.068  16.545  16.790  0.00  0.00    +0.000 HD
ENDBRANCH  25  26
ENDBRANCH  18  25
ENDBRANCH  15  16
ENDBRANCH   6  15
BRANCH   1  28
ATOM     28  O   UNL     1      -1.931  12.567  18.837  0.00  0.00    +0.000 OA
BRANCH  28  31
ATOM     29  C   UNL     1      -5.103  12.097  18.860  0.00  0.00    +0.000 C 
ATOM     30  O   UNL     1      -3.974  11.451  19.453  0.00  0.00    +0.000 OA
ATOM     31  C   UNL     1      -2.759  11.390  18.708  0.00  0.00    +0.000 C 
ATOM     32  C   UNL     1      -3.039  10.870  17.235  0.00  0.00    +0.000 C 
ATOM     33  C   UNL     1      -4.278  11.511  16.584  0.00  0.00    +0.000 C 
ATOM     34  C   UNL     1      -5.479  11.450  17.520  0.00  0.00    +0.000 C 
BRANCH  32  35
ATOM     35  N   UNL     1      -2.000  10.841  16.181  0.00  0.00    +0.000 NA
ATOM     36  H   UNL     1      -2.416  10.767  15.255  0.00  0.00    +0.000 HD
ATOM     37  H   UNL     1      -1.427  11.682  16.205  0.00  0.00    +0.000 HD
ENDBRANCH  32  35
BRANCH  34  38
ATOM     38  O   UNL     1      -6.575  12.141  16.897  0.00  0.00    +0.000 OA
ATOM     39  H   UNL     1      -6.240  12.421  16.019  0.00  0.00    +0.000 HD
ENDBRANCH  34  38
BRANCH  33  40
ATOM     40  O   UNL     1      -4.623  10.793  15.386  0.00  0.00    +0.000 OA
ATOM     41  H   UNL     1      -4.291  11.363  14.661  0.00  0.00    +0.000 HD
ENDBRANCH  33  40
BRANCH  29  42
ATOM     42  C   UNL     1      -6.310  11.930  19.819  0.00  0.00    +0.000 C 
BRANCH  42  43
ATOM     43  N   UNL     1      -7.249  10.886  19.379  0.00  0.00    +0.000 NA
ATOM     44  H   UNL     1      -7.512  11.083  18.413  0.00  0.00    +0.000 HD
ATOM     45  H   UNL     1      -8.107  10.972  19.923  0.00  0.00    +0.000 HD
ENDBRANCH  42  43
ENDBRANCH  29  42
ENDBRANCH  28  31
ENDBRANCH   1  28
TORSDOF 16
ENDMDL
