MODEL 1
REMARK VINA RESULT:      -8.6      0.000      0.000
REMARK  Name = 
REMARK  5 active torsions:
REMARK  status: ('A' for Active; 'I' for Inactive)
REMARK    1  A    between atoms: C_2  and  C_4
REMARK    2  A    between atoms: C_7  and  C_8
REMARK    3  A    between atoms: C_8  and  N_9
REMARK    4  A    between atoms: C_10  and  C_12
REMARK    5  A    between atoms: C_16  and  C_17
REMARK                            x       y       z     vdW  Elec       q    Type
REMARK                         _______ _______ _______ _____ _____    ______ ____
ROOT
ATOM      1  N   UNL     1       4.021   7.076  17.497  0.00  0.00    +0.000 N 
ATOM      2  C   UNL     1       4.921   6.685  16.527  0.00  0.00    +0.000 C 
ATOM      3  O   UNL     1       4.888   7.123  15.381  0.00  0.00    +0.000 OA
ATOM      4  H   UNL     1       4.019   6.617  18.397  0.00  0.00    +0.000 HD
ENDROOT
BRANCH   2   5
ATOM      5  C   UNL     1       5.915   5.612  17.011  0.00  0.00    +0.000 C 
ATOM      6  C   UNL     1       6.793   5.156  15.838  0.00  0.00    +0.000 C 
ATOM      7  C   UNL     1       6.055   3.963  15.239  0.00  0.00    +0.000 C 
ATOM      8  C   UNL     1       5.309   3.442  16.420  0.00  0.00    +0.000 C 
ATOM      9  C   UNL     1       5.240   4.341  17.423  0.00  0.00    +0.000 C 
BRANCH   9  10
ATOM     10  C   UNL     1       4.698   3.925  18.752  0.00  0.00    +0.000 C 
ATOM     11  O   UNL     1       5.515   3.588  19.616  0.00  0.00    +0.000 OA
ATOM     12  N   UNL     1       3.347   4.002  19.056  0.00  0.00    +0.000 N 
ATOM     13  C   UNL     1       2.954   3.936  20.467  0.00  0.00    +0.000 C 
ATOM     14  C   UNL     1       1.909   2.849  20.716  0.00  0.00    +0.000 C 
ATOM     15  C   UNL     1       0.714   3.004  19.779  0.00  0.00    +0.000 C 
ATOM     16  C   UNL     1       1.186   3.051  18.334  0.00  0.00    +0.000 C 
ATOM     17  C   UNL     1       2.225   4.150  18.140  0.00  0.00    +0.000 C 
ENDBRANCH   9  10
ENDBRANCH   2   5
BRANCH   1  18
ATOM     18  C   UNL     1       2.973   8.034  17.223  0.00  0.00    +0.000 C 
BRANCH  18  22
ATOM     19  C   UNL     1       0.701   9.005  20.768  0.00  0.00    +0.000 A 
ATOM     20  C   UNL     1       0.668   9.854  19.657  0.00  0.00    +0.000 A 
ATOM     21  C   UNL     1       1.419   9.552  18.519  0.00  0.00    +0.000 A 
ATOM     22  C   UNL     1       2.199   8.387  18.467  0.00  0.00    +0.000 A 
ATOM     23  C   UNL     1       2.235   7.546  19.590  0.00  0.00    +0.000 A 
ATOM     24  C   UNL     1       1.487   7.849  20.733  0.00  0.00    +0.000 A 
BRANCH  19  26
ATOM     25  N   UNL     1      -0.741   8.401  22.597  0.00  0.00    +0.000 NA
ATOM     26  C   UNL     1      -0.111   9.339  21.973  0.00  0.00    +0.000 C 
ATOM     27  N   UNL     1      -0.205  10.632  22.402  0.00  0.00    +0.000 N 
ATOM     28  H   UNL     1      -1.210   8.785  23.419  0.00  0.00    +0.000 HD
ATOM     29  H   UNL     1      -1.006  10.841  22.985  0.00  0.00    +0.000 HD
ATOM     30  H   UNL     1      -0.068  11.341  21.690  0.00  0.00    +0.000 HD
ENDBRANCH  19  26
ENDBRANCH  18  22
ENDBRANCH   1  18
TORSDOF 5
ENDMDL
MODEL 2
REMARK VINA RESULT:      -8.3      1.263      1.948
REMARK  Name = 
REMARK  5 active torsions:
REMARK  status: ('A' for Active; 'I' for Inactive)
REMARK    1  A    between atoms: C_2  and  C_4
REMARK    2  A    between atoms: C_7  and  C_8
REMARK    3  A    between atoms: C_8  and  N_9
REMARK    4  A    between atoms: C_10  and  C_12
REMARK    5  A    between atoms: C_16  and  C_17
REMARK                            x       y       z     vdW  Elec       q    Type
REMARK                         _______ _______ _______ _____ _____    ______ ____
ROOT
ATOM      1  N   UNL     1       3.303   7.101  18.019  0.00  0.00    +0.000 N 
ATOM      2  C   UNL     1       4.363   6.716  17.223  0.00  0.00    +0.000 C 
ATOM      3  O   UNL     1       4.728   7.367  16.249  0.00  0.00    +0.000 OA
ATOM      4  H   UNL     1       2.971   6.485  18.748  0.00  0.00    +0.000 HD
ENDROOT
BRANCH   2   5
ATOM      5  C   UNL     1       4.988   5.372  17.643  0.00  0.00    +0.000 C 
ATOM      6  C   UNL     1       6.405   5.259  17.066  0.00  0.00    +0.000 C 
ATOM      7  C   UNL     1       6.225   4.563  15.720  0.00  0.00    +0.000 C 
ATOM      8  C   UNL     1       4.984   3.769  15.953  0.00  0.00    +0.000 C 
ATOM      9  C   UNL     1       4.295   4.195  17.031  0.00  0.00    +0.000 C 
BRANCH   9  10
ATOM     10  C   UNL     1       3.131   3.397  17.525  0.00  0.00    +0.000 C 
ATOM     11  O   UNL     1       2.410   2.862  16.677  0.00  0.00    +0.000 OA
ATOM     12  N   UNL     1       2.911   3.172  18.876  0.00  0.00    +0.000 N 
ATOM     13  C   UNL     1       1.992   2.094  19.253  0.00  0.00    +0.000 C 
ATOM     14  C   UNL     1       0.894   2.587  20.196  0.00  0.00    +0.000 C 
ATOM     15  C   UNL     1       1.484   3.306  21.405  0.00  0.00    +0.000 C 
ATOM     16  C   UNL     1       2.415   4.418  20.949  0.00  0.00    +0.000 C 
ATOM     17  C   UNL     1       3.489   3.875  20.013  0.00  0.00    +0.000 C 
ENDBRANCH   9  10
ENDBRANCH   2   5
BRANCH   1  18
ATOM     18  C   UNL     1       2.549   8.305  17.754  0.00  0.00    +0.000 C 
BRANCH  18  22
ATOM     19  C   UNL     1       0.448   9.687  21.268  0.00  0.00    +0.000 A 
ATOM     20  C   UNL     1       1.141   8.471  21.295  0.00  0.00    +0.000 A 
ATOM     21  C   UNL     1       1.802   8.014  20.152  0.00  0.00    +0.000 A 
ATOM     22  C   UNL     1       1.796   8.773  18.973  0.00  0.00    +0.000 A 
ATOM     23  C   UNL     1       1.090   9.986  18.951  0.00  0.00    +0.000 A 
ATOM     24  C   UNL     1       0.423  10.443  20.093  0.00  0.00    +0.000 A 
BRANCH  19  26
ATOM     25  N   UNL     1      -0.350  11.430  22.720  0.00  0.00    +0.000 NA
ATOM     26  C   UNL     1      -0.247  10.163  22.498  0.00  0.00    +0.000 C 
ATOM     27  N   UNL     1      -0.756   9.265  23.392  0.00  0.00    +0.000 N 
ATOM     28  H   UNL     1      -0.888  11.590  23.574  0.00  0.00    +0.000 HD
ATOM     29  H   UNL     1      -0.901   9.618  24.330  0.00  0.00    +0.000 HD
ATOM     30  H   UNL     1      -0.307   8.355  23.403  0.00  0.00    +0.000 HD
ENDBRANCH  19  26
ENDBRANCH  18  22
ENDBRANCH   1  18
TORSDOF 5
ENDMDL
MODEL 3
REMARK VINA RESULT:      -8.1      2.232      4.526
REMARK  Name = 
REMARK  5 active torsions:
REMARK  status: ('A' for Active; 'I' for Inactive)
REMARK    1  A    between atoms: C_2  and  C_4
REMARK    2  A    between atoms: C_7  and  C_8
REMARK    3  A    between atoms: C_8  and  N_9
REMARK    4  A    between atoms: C_10  and  C_12
REMARK    5  A    between atoms: C_16  and  C_17
REMARK                            x       y       z     vdW  Elec       q    Type
REMARK                         _______ _______ _______ _____ _____    ______ ____
ROOT
ATOM      1  N   UNL     1       2.201   6.871  19.754  0.00  0.00    +0.000 N 
ATOM      2  C   UNL     1       1.810   5.555  19.884  0.00  0.00    +0.000 C 
ATOM      3  O   UNL     1       1.159   5.152  20.844  0.00  0.00    +0.000 OA
ATOM      4  H   UNL     1       2.821   7.141  19.003  0.00  0.00    +0.000 HD
ENDROOT
BRANCH   2   5
ATOM      5  C   UNL     1       2.322   4.648  18.749  0.00  0.00    +0.000 C 
ATOM      6  C   UNL     1       1.454   3.386  18.666  0.00  0.00    +0.000 C 
ATOM      7  C   UNL     1       2.153   2.371  19.566  0.00  0.00    +0.000 C 
ATOM      8  C   UNL     1       3.570   2.829  19.496  0.00  0.00    +0.000 C 
ATOM      9  C   UNL     1       3.682   4.088  19.025  0.00  0.00    +0.000 C 
BRANCH   9  10
ATOM     10  C   UNL     1       5.035   4.640  18.707  0.00  0.00    +0.000 C 
ATOM     11  O   UNL     1       5.594   5.306  19.585  0.00  0.00    +0.000 OA
ATOM     12  N   UNL     1       5.693   4.344  17.523  0.00  0.00    +0.000 N 
ATOM     13  C   UNL     1       7.133   4.608  17.452  0.00  0.00    +0.000 C 
ATOM     14  C   UNL     1       7.493   5.480  16.249  0.00  0.00    +0.000 C 
ATOM     15  C   UNL     1       6.938   4.895  14.955  0.00  0.00    +0.000 C 
ATOM     16  C   UNL     1       5.442   4.659  15.087  0.00  0.00    +0.000 C 
ATOM     17  C   UNL     1       5.138   3.785  16.299  0.00  0.00    +0.000 C 
ENDBRANCH   9  10
ENDBRANCH   2   5
BRANCH   1  18
ATOM     18  C   UNL     1       1.867   7.868  20.746  0.00  0.00    +0.000 C 
BRANCH  18  22
ATOM     19  C   UNL     1      -0.627  10.979  19.081  0.00  0.00    +0.000 A 
ATOM     20  C   UNL     1       0.272  10.286  18.264  0.00  0.00    +0.000 A 
ATOM     21  C   UNL     1       1.094   9.295  18.806  0.00  0.00    +0.000 A 
ATOM     22  C   UNL     1       1.016   8.970  20.169  0.00  0.00    +0.000 A 
ATOM     23  C   UNL     1       0.119   9.677  20.983  0.00  0.00    +0.000 A 
ATOM     24  C   UNL     1      -0.702  10.673  20.443  0.00  0.00    +0.000 A 
BRANCH  19  26
ATOM     25  N   UNL     1      -1.396  12.307  17.229  0.00  0.00    +0.000 NA
ATOM     26  C   UNL     1      -1.501  12.030  18.485  0.00  0.00    +0.000 C 
ATOM     27  N   UNL     1      -2.393  12.707  19.267  0.00  0.00    +0.000 N 
ATOM     28  H   UNL     1      -2.090  13.012  16.971  0.00  0.00    +0.000 HD
ATOM     29  H   UNL     1      -2.698  13.602  18.905  0.00  0.00    +0.000 HD
ATOM     30  H   UNL     1      -2.157  12.765  20.252  0.00  0.00    +0.000 HD
ENDBRANCH  19  26
ENDBRANCH  18  22
ENDBRANCH   1  18
TORSDOF 5
ENDMDL
MODEL 4
REMARK VINA RESULT:      -8.1      2.325      4.679
REMARK  Name = 
REMARK  5 active torsions:
REMARK  status: ('A' for Active; 'I' for Inactive)
REMARK    1  A    between atoms: C_2  and  C_4
REMARK    2  A    between atoms: C_7  and  C_8
REMARK    3  A    between atoms: C_8  and  N_9
REMARK    4  A    between atoms: C_10  and  C_12
REMARK    5  A    between atoms: C_16  and  C_17
REMARK                            x       y       z     vdW  Elec       q    Type
REMARK                         _______ _______ _______ _____ _____    ______ ____
ROOT
ATOM      1  N   UNL     1       1.379   6.818  20.838  0.00  0.00    +0.000 N 
ATOM      2  C   UNL     1       2.233   6.175  19.966  0.00  0.00    +0.000 C 
ATOM      3  O   UNL     1       3.253   6.702  19.532  0.00  0.00    +0.000 OA
ATOM      4  H   UNL     1       0.499   6.389  21.090  0.00  0.00    +0.000 HD
ENDROOT
BRANCH   2   5
ATOM      5  C   UNL     1       1.747   4.772  19.554  0.00  0.00    +0.000 C 
ATOM      6  C   UNL     1       1.221   4.026  20.787  0.00  0.00    +0.000 C 
ATOM      7  C   UNL     1       2.428   3.265  21.328  0.00  0.00    +0.000 C 
ATOM      8  C   UNL     1       3.241   3.069  20.094  0.00  0.00    +0.000 C 
ATOM      9  C   UNL     1       2.861   3.887  19.091  0.00  0.00    +0.000 C 
BRANCH   9  10
ATOM     10  C   UNL     1       3.436   3.696  17.724  0.00  0.00    +0.000 C 
ATOM     11  O   UNL     1       2.807   2.976  16.941  0.00  0.00    +0.000 OA
ATOM     12  N   UNL     1       4.572   4.369  17.301  0.00  0.00    +0.000 N 
ATOM     13  C   UNL     1       4.848   4.416  15.862  0.00  0.00    +0.000 C 
ATOM     14  C   UNL     1       6.256   3.920  15.535  0.00  0.00    +0.000 C 
ATOM     15  C   UNL     1       7.308   4.655  16.360  0.00  0.00    +0.000 C 
ATOM     16  C   UNL     1       6.974   4.557  17.840  0.00  0.00    +0.000 C 
ATOM     17  C   UNL     1       5.562   5.064  18.111  0.00  0.00    +0.000 C 
ENDBRANCH   9  10
ENDBRANCH   2   5
BRANCH   1  18
ATOM     18  C   UNL     1       1.631   8.165  21.299  0.00  0.00    +0.000 C 
BRANCH  18  22
ATOM     19  C   UNL     1      -0.712  11.028  19.067  0.00  0.00    +0.000 A 
ATOM     20  C   UNL     1       0.250  10.248  18.416  0.00  0.00    +0.000 A 
ATOM     21  C   UNL     1       1.023   9.337  19.142  0.00  0.00    +0.000 A 
ATOM     22  C   UNL     1       0.832   9.180  20.523  0.00  0.00    +0.000 A 
ATOM     23  C   UNL     1      -0.128   9.974  21.169  0.00  0.00    +0.000 A 
ATOM     24  C   UNL     1      -0.900  10.890  20.445  0.00  0.00    +0.000 A 
BRANCH  19  26
ATOM     25  N   UNL     1      -2.819  11.879  18.276  0.00  0.00    +0.000 NA
ATOM     26  C   UNL     1      -1.533  11.991  18.277  0.00  0.00    +0.000 C 
ATOM     27  N   UNL     1      -0.927  12.971  17.545  0.00  0.00    +0.000 N 
ATOM     28  H   UNL     1      -3.232  12.636  17.727  0.00  0.00    +0.000 HD
ATOM     29  H   UNL     1      -1.482  13.359  16.791  0.00  0.00    +0.000 HD
ATOM     30  H   UNL     1       0.021  12.772  17.244  0.00  0.00    +0.000 HD
ENDBRANCH  19  26
ENDBRANCH  18  22
ENDBRANCH   1  18
TORSDOF 5
ENDMDL
MODEL 5
REMARK VINA RESULT:      -8.1      2.284      4.679
REMARK  Name = 
REMARK  5 active torsions:
REMARK  status: ('A' for Active; 'I' for Inactive)
REMARK    1  A    between atoms: C_2  and  C_4
REMARK    2  A    between atoms: C_7  and  C_8
REMARK    3  A    between atoms: C_8  and  N_9
REMARK    4  A    between atoms: C_10  and  C_12
REMARK    5  A    between atoms: C_16  and  C_17
REMARK                            x       y       z     vdW  Elec       q    Type
REMARK                         _______ _______ _______ _____ _____    ______ ____
ROOT
ATOM      1  N   UNL     1       1.406   6.799  20.845  0.00  0.00    +0.000 N 
ATOM      2  C   UNL     1       2.244   6.167  19.950  0.00  0.00    +0.000 C 
ATOM      3  O   UNL     1       3.257   6.698  19.505  0.00  0.00    +0.000 OA
ATOM      4  H   UNL     1       0.531   6.367  21.108  0.00  0.00    +0.000 HD
ENDROOT
BRANCH   2   5
ATOM      5  C   UNL     1       1.748   4.770  19.528  0.00  0.00    +0.000 C 
ATOM      6  C   UNL     1       1.205   4.024  20.753  0.00  0.00    +0.000 C 
ATOM      7  C   UNL     1       2.400   3.250  21.301  0.00  0.00    +0.000 C 
ATOM      8  C   UNL     1       3.222   3.051  20.072  0.00  0.00    +0.000 C 
ATOM      9  C   UNL     1       2.858   3.876  19.070  0.00  0.00    +0.000 C 
BRANCH   9  10
ATOM     10  C   UNL     1       3.442   3.686  17.707  0.00  0.00    +0.000 C 
ATOM     11  O   UNL     1       2.822   2.961  16.922  0.00  0.00    +0.000 OA
ATOM     12  N   UNL     1       4.577   4.365  17.289  0.00  0.00    +0.000 N 
ATOM     13  C   UNL     1       4.862   4.410  15.852  0.00  0.00    +0.000 C 
ATOM     14  C   UNL     1       6.274   3.921  15.535  0.00  0.00    +0.000 C 
ATOM     15  C   UNL     1       7.317   4.664  16.365  0.00  0.00    +0.000 C 
ATOM     16  C   UNL     1       6.975   4.567  17.843  0.00  0.00    +0.000 C 
ATOM     17  C   UNL     1       5.558   5.066  18.105  0.00  0.00    +0.000 C 
ENDBRANCH   9  10
ENDBRANCH   2   5
BRANCH   1  18
ATOM     18  C   UNL     1       1.669   8.139  21.320  0.00  0.00    +0.000 C 
BRANCH  18  22
ATOM     19  C   UNL     1      -0.697  11.120  19.274  0.00  0.00    +0.000 A 
ATOM     20  C   UNL     1      -0.904  10.870  20.635  0.00  0.00    +0.000 A 
ATOM     21  C   UNL     1      -0.154   9.891  21.291  0.00  0.00    +0.000 A 
ATOM     22  C   UNL     1       0.826   9.162  20.603  0.00  0.00    +0.000 A 
ATOM     23  C   UNL     1       1.020   9.411  19.235  0.00  0.00    +0.000 A 
ATOM     24  C   UNL     1       0.267  10.388  18.575  0.00  0.00    +0.000 A 
BRANCH  19  26
ATOM     25  N   UNL     1      -2.203  12.996  19.294  0.00  0.00    +0.000 NA
ATOM     26  C   UNL     1      -1.502  12.172  18.589  0.00  0.00    +0.000 C 
ATOM     27  N   UNL     1      -1.513  12.251  17.226  0.00  0.00    +0.000 N 
ATOM     28  H   UNL     1      -2.657  13.676  18.682  0.00  0.00    +0.000 HD
ATOM     29  H   UNL     1      -2.307  12.735  16.824  0.00  0.00    +0.000 HD
ATOM     30  H   UNL     1      -1.317  11.385  16.735  0.00  0.00    +0.000 HD
ENDBRANCH  19  26
ENDBRANCH  18  22
ENDBRANCH   1  18
TORSDOF 5
ENDMDL
MODEL 6
REMARK VINA RESULT:      -8.1      2.220      4.558
REMARK  Name = 
REMARK  5 active torsions:
REMARK  status: ('A' for Active; 'I' for Inactive)
REMARK    1  A    between atoms: C_2  and  C_4
REMARK    2  A    between atoms: C_7  and  C_8
REMARK    3  A    between atoms: C_8  and  N_9
REMARK    4  A    between atoms: C_10  and  C_12
REMARK    5  A    between atoms: C_16  and  C_17
REMARK                            x       y       z     vdW  Elec       q    Type
REMARK                         _______ _______ _______ _____ _____    ______ ____
ROOT
ATOM      1  N   UNL     1       2.146   6.809  19.771  0.00  0.00    +0.000 N 
ATOM      2  C   UNL     1       1.802   5.481  19.913  0.00  0.00    +0.000 C 
ATOM      3  O   UNL     1       1.178   5.060  20.883  0.00  0.00    +0.000 OA
ATOM      4  H   UNL     1       2.747   7.096  19.011  0.00  0.00    +0.000 HD
ENDROOT
BRANCH   2   5
ATOM      5  C   UNL     1       2.329   4.586  18.775  0.00  0.00    +0.000 C 
ATOM      6  C   UNL     1       1.482   3.310  18.687  0.00  0.00    +0.000 C 
ATOM      7  C   UNL     1       2.197   2.304  19.583  0.00  0.00    +0.000 C 
ATOM      8  C   UNL     1       3.607   2.785  19.516  0.00  0.00    +0.000 C 
ATOM      9  C   UNL     1       3.699   4.047  19.049  0.00  0.00    +0.000 C 
BRANCH   9  10
ATOM     10  C   UNL     1       5.042   4.623  18.735  0.00  0.00    +0.000 C 
ATOM     11  O   UNL     1       5.594   5.287  19.618  0.00  0.00    +0.000 OA
ATOM     12  N   UNL     1       5.702   4.350  17.545  0.00  0.00    +0.000 N 
ATOM     13  C   UNL     1       7.138   4.635  17.474  0.00  0.00    +0.000 C 
ATOM     14  C   UNL     1       7.482   5.525  16.280  0.00  0.00    +0.000 C 
ATOM     15  C   UNL     1       6.932   4.947  14.981  0.00  0.00    +0.000 C 
ATOM     16  C   UNL     1       5.440   4.687  15.114  0.00  0.00    +0.000 C 
ATOM     17  C   UNL     1       5.151   3.796  16.317  0.00  0.00    +0.000 C 
ENDBRANCH   9  10
ENDBRANCH   2   5
BRANCH   1  18
ATOM     18  C   UNL     1       1.792   7.799  20.764  0.00  0.00    +0.000 C 
BRANCH  18  22
ATOM     19  C   UNL     1      -0.417  11.099  19.063  0.00  0.00    +0.000 A 
ATOM     20  C   UNL     1      -0.640  10.714  20.389  0.00  0.00    +0.000 A 
ATOM     21  C   UNL     1       0.059   9.633  20.933  0.00  0.00    +0.000 A 
ATOM     22  C   UNL     1       1.003   8.934  20.165  0.00  0.00    +0.000 A 
ATOM     23  C   UNL     1       1.212   9.321  18.833  0.00  0.00    +0.000 A 
ATOM     24  C   UNL     1       0.510  10.400  18.285  0.00  0.00    +0.000 A 
BRANCH  19  26
ATOM     25  N   UNL     1      -1.526  13.223  19.278  0.00  0.00    +0.000 NA
ATOM     26  C   UNL     1      -1.167  12.258  18.500  0.00  0.00    +0.000 C 
ATOM     27  N   UNL     1      -1.489  12.290  17.173  0.00  0.00    +0.000 N 
ATOM     28  H   UNL     1      -1.987  13.955  18.735  0.00  0.00    +0.000 HD
ATOM     29  H   UNL     1      -2.259  12.900  16.925  0.00  0.00    +0.000 HD
ATOM     30  H   UNL     1      -1.569  11.386  16.719  0.00  0.00    +0.000 HD
ENDBRANCH  19  26
ENDBRANCH  18  22
ENDBRANCH   1  18
TORSDOF 5
ENDMDL
MODEL 7
REMARK VINA RESULT:      -8.0      2.625      7.401
REMARK  Name = 
REMARK  5 active torsions:
REMARK  status: ('A' for Active; 'I' for Inactive)
REMARK    1  A    between atoms: C_2  and  C_4
REMARK    2  A    between atoms: C_7  and  C_8
REMARK    3  A    between atoms: C_8  and  N_9
REMARK    4  A    between atoms: C_10  and  C_12
REMARK    5  A    between atoms: C_16  and  C_17
REMARK                            x       y       z     vdW  Elec       q    Type
REMARK                         _______ _______ _______ _____ _____    ______ ____
ROOT
ATOM      1  N   UNL     1       5.460   6.248  17.865  0.00  0.00    +0.000 N 
ATOM      2  C   UNL     1       5.330   5.376  18.926  0.00  0.00    +0.000 C 
ATOM      3  O   UNL     1       6.194   4.552  19.213  0.00  0.00    +0.000 OA
ATOM      4  H   UNL     1       4.685   6.839  17.601  0.00  0.00    +0.000 HD
ENDROOT
BRANCH   2   5
ATOM      5  C   UNL     1       3.982   5.501  19.661  0.00  0.00    +0.000 C 
ATOM      6  C   UNL     1       3.403   4.104  19.920  0.00  0.00    +0.000 C 
ATOM      7  C   UNL     1       2.525   3.813  18.707  0.00  0.00    +0.000 C 
ATOM      8  C   UNL     1       2.132   5.187  18.280  0.00  0.00    +0.000 C 
ATOM      9  C   UNL     1       2.921   6.139  18.819  0.00  0.00    +0.000 C 
BRANCH   9  10
ATOM     10  C   UNL     1       2.557   7.580  18.655  0.00  0.00    +0.000 C 
ATOM     11  O   UNL     1       3.033   8.177  17.684  0.00  0.00    +0.000 OA
ATOM     12  N   UNL     1       1.646   8.210  19.489  0.00  0.00    +0.000 N 
ATOM     13  C   UNL     1       1.071   9.483  19.044  0.00  0.00    +0.000 C 
ATOM     14  C   UNL     1       1.249  10.584  20.089  0.00  0.00    +0.000 C 
ATOM     15  C   UNL     1       0.721  10.145  21.451  0.00  0.00    +0.000 C 
ATOM     16  C   UNL     1       1.364   8.830  21.862  0.00  0.00    +0.000 C 
ATOM     17  C   UNL     1       1.158   7.768  20.788  0.00  0.00    +0.000 C 
ENDBRANCH   9  10
ENDBRANCH   2   5
BRANCH   1  18
ATOM     18  C   UNL     1       6.631   6.247  17.017  0.00  0.00    +0.000 C 
BRANCH  18  22
ATOM     19  C   UNL     1       6.023   3.883  13.451  0.00  0.00    +0.000 A 
ATOM     20  C   UNL     1       5.053   3.898  14.459  0.00  0.00    +0.000 A 
ATOM     21  C   UNL     1       5.259   4.645  15.621  0.00  0.00    +0.000 A 
ATOM     22  C   UNL     1       6.428   5.403  15.785  0.00  0.00    +0.000 A 
ATOM     23  C   UNL     1       7.401   5.374  14.774  0.00  0.00    +0.000 A 
ATOM     24  C   UNL     1       7.199   4.622  13.611  0.00  0.00    +0.000 A 
BRANCH  19  26
ATOM     25  N   UNL     1       6.709   2.294  11.780  0.00  0.00    +0.000 NA
ATOM     26  C   UNL     1       5.785   3.085  12.215  0.00  0.00    +0.000 C 
ATOM     27  N   UNL     1       4.607   3.204  11.535  0.00  0.00    +0.000 N 
ATOM     28  H   UNL     1       6.375   1.791  10.956  0.00  0.00    +0.000 HD
ATOM     29  H   UNL     1       4.633   2.919  10.564  0.00  0.00    +0.000 HD
ATOM     30  H   UNL     1       4.122   4.088  11.650  0.00  0.00    +0.000 HD
ENDBRANCH  19  26
ENDBRANCH  18  22
ENDBRANCH   1  18
TORSDOF 5
ENDMDL
MODEL 8
REMARK VINA RESULT:      -8.0      2.197      4.461
REMARK  Name = 
REMARK  5 active torsions:
REMARK  status: ('A' for Active; 'I' for Inactive)
REMARK    1  A    between atoms: C_2  and  C_4
REMARK    2  A    between atoms: C_7  and  C_8
REMARK    3  A    between atoms: C_8  and  N_9
REMARK    4  A    between atoms: C_10  and  C_12
REMARK    5  A    between atoms: C_16  and  C_17
REMARK                            x       y       z     vdW  Elec       q    Type
REMARK                         _______ _______ _______ _____ _____    ______ ____
ROOT
ATOM      1  N   UNL     1       2.369   5.691  19.225  0.00  0.00    +0.000 N 
ATOM      2  C   UNL     1       1.793   4.456  19.009  0.00  0.00    +0.000 C 
ATOM      3  O   UNL     1       0.953   3.977  19.765  0.00  0.00    +0.000 OA
ATOM      4  H   UNL     1       3.129   6.002  18.636  0.00  0.00    +0.000 HD
ENDROOT
BRANCH   2   5
ATOM      5  C   UNL     1       2.353   3.726  17.772  0.00  0.00    +0.000 C 
ATOM      6  C   UNL     1       2.103   2.219  17.906  0.00  0.00    +0.000 C 
ATOM      7  C   UNL     1       3.355   1.674  18.586  0.00  0.00    +0.000 C 
ATOM      8  C   UNL     1       4.388   2.660  18.157  0.00  0.00    +0.000 C 
ATOM      9  C   UNL     1       3.845   3.801  17.683  0.00  0.00    +0.000 C 
BRANCH   9  10
ATOM     10  C   UNL     1       4.722   4.821  17.032  0.00  0.00    +0.000 C 
ATOM     11  O   UNL     1       4.637   4.941  15.805  0.00  0.00    +0.000 OA
ATOM     12  N   UNL     1       5.531   5.676  17.767  0.00  0.00    +0.000 N 
ATOM     13  C   UNL     1       6.059   6.868  17.097  0.00  0.00    +0.000 C 
ATOM     14  C   UNL     1       7.579   6.965  17.223  0.00  0.00    +0.000 C 
ATOM     15  C   UNL     1       8.022   6.863  18.679  0.00  0.00    +0.000 C 
ATOM     16  C   UNL     1       7.455   5.602  19.312  0.00  0.00    +0.000 C 
ATOM     17  C   UNL     1       5.939   5.555  19.159  0.00  0.00    +0.000 C 
ENDBRANCH   9  10
ENDBRANCH   2   5
BRANCH   1  18
ATOM     18  C   UNL     1       2.018   6.507  20.366  0.00  0.00    +0.000 C 
BRANCH  18  22
ATOM     19  C   UNL     1       1.014  10.542  19.190  0.00  0.00    +0.000 A 
ATOM     20  C   UNL     1       1.645   9.682  18.285  0.00  0.00    +0.000 A 
ATOM     21  C   UNL     1       1.989   8.384  18.671  0.00  0.00    +0.000 A 
ATOM     22  C   UNL     1       1.691   7.921  19.962  0.00  0.00    +0.000 A 
ATOM     23  C   UNL     1       1.067   8.793  20.867  0.00  0.00    +0.000 A 
ATOM     24  C   UNL     1       0.726  10.095  20.483  0.00  0.00    +0.000 A 
BRANCH  19  26
ATOM     25  N   UNL     1      -0.488  12.420  19.118  0.00  0.00    +0.000 NA
ATOM     26  C   UNL     1       0.648  11.921  18.760  0.00  0.00    +0.000 C 
ATOM     27  N   UNL     1       1.499  12.646  17.976  0.00  0.00    +0.000 N 
ATOM     28  H   UNL     1      -0.566  13.381  18.782  0.00  0.00    +0.000 HD
ATOM     29  H   UNL     1       1.074  13.401  17.452  0.00  0.00    +0.000 HD
ATOM     30  H   UNL     1       2.132  12.103  17.398  0.00  0.00    +0.000 HD
ENDBRANCH  19  26
ENDBRANCH  18  22
ENDBRANCH   1  18
TORSDOF 5
ENDMDL
MODEL 9
REMARK VINA RESULT:      -8.0      2.267      4.432
REMARK  Name = 
REMARK  5 active torsions:
REMARK  status: ('A' for Active; 'I' for Inactive)
REMARK    1  A    between atoms: C_2  and  C_4
REMARK    2  A    between atoms: C_7  and  C_8
REMARK    3  A    between atoms: C_8  and  N_9
REMARK    4  A    between atoms: C_10  and  C_12
REMARK    5  A    between atoms: C_16  and  C_17
REMARK                            x       y       z     vdW  Elec       q    Type
REMARK                         _______ _______ _______ _____ _____    ______ ____
ROOT
ATOM      1  N   UNL     1       2.161   6.862  19.634  0.00  0.00    +0.000 N 
ATOM      2  C   UNL     1       1.745   5.547  19.599  0.00  0.00    +0.000 C 
ATOM      3  O   UNL     1       1.034   5.056  20.471  0.00  0.00    +0.000 OA
ATOM      4  H   UNL     1       2.828   7.198  18.953  0.00  0.00    +0.000 HD
ENDROOT
BRANCH   2   5
ATOM      5  C   UNL     1       2.310   4.757  18.403  0.00  0.00    +0.000 C 
ATOM      6  C   UNL     1       1.218   3.849  17.822  0.00  0.00    +0.000 C 
ATOM      7  C   UNL     1       1.380   2.523  18.559  0.00  0.00    +0.000 C 
ATOM      8  C   UNL     1       2.830   2.543  18.906  0.00  0.00    +0.000 C 
ATOM      9  C   UNL     1       3.367   3.776  18.804  0.00  0.00    +0.000 C 
BRANCH   9  10
ATOM     10  C   UNL     1       4.847   3.949  18.928  0.00  0.00    +0.000 C 
ATOM     11  O   UNL     1       5.427   3.273  19.784  0.00  0.00    +0.000 OA
ATOM     12  N   UNL     1       5.570   4.755  18.060  0.00  0.00    +0.000 N 
ATOM     13  C   UNL     1       7.025   4.580  18.011  0.00  0.00    +0.000 C 
ATOM     14  C   UNL     1       7.764   5.899  18.234  0.00  0.00    +0.000 C 
ATOM     15  C   UNL     1       7.269   6.980  17.278  0.00  0.00    +0.000 C 
ATOM     16  C   UNL     1       5.759   7.122  17.387  0.00  0.00    +0.000 C 
ATOM     17  C   UNL     1       5.071   5.781  17.157  0.00  0.00    +0.000 C 
ENDBRANCH   9  10
ENDBRANCH   2   5
BRANCH   1  18
ATOM     18  C   UNL     1       1.784   7.753  20.708  0.00  0.00    +0.000 C 
BRANCH  18  22
ATOM     19  C   UNL     1      -0.434  11.154  19.230  0.00  0.00    +0.000 A 
ATOM     20  C   UNL     1       0.502  10.515  18.410  0.00  0.00    +0.000 A 
ATOM     21  C   UNL     1       1.235   9.429  18.895  0.00  0.00    +0.000 A 
ATOM     22  C   UNL     1       1.029   8.954  20.199  0.00  0.00    +0.000 A 
ATOM     23  C   UNL     1       0.096   9.608  21.018  0.00  0.00    +0.000 A 
ATOM     24  C   UNL     1      -0.635  10.699  20.536  0.00  0.00    +0.000 A 
BRANCH  19  26
ATOM     25  N   UNL     1      -1.878  13.058  19.508  0.00  0.00    +0.000 NA
ATOM     26  C   UNL     1      -1.211  12.309  18.696  0.00  0.00    +0.000 C 
ATOM     27  N   UNL     1      -1.233  12.561  17.354  0.00  0.00    +0.000 N 
ATOM     28  H   UNL     1      -2.316  13.824  18.994  0.00  0.00    +0.000 HD
ATOM     29  H   UNL     1      -2.015  13.115  17.027  0.00  0.00    +0.000 HD
ATOM     30  H   UNL     1      -1.070  11.758  16.754  0.00  0.00    +0.000 HD
ENDBRANCH  19  26
ENDBRANCH  18  22
ENDBRANCH   1  18
TORSDOF 5
ENDMDL
