MODEL 1
REMARK VINA RESULT:      -6.8      0.000      0.000
REMARK  Name = 
REMARK  7 active torsions:
REMARK  status: ('A' for Active; 'I' for Inactive)
REMARK    1  A    between atoms: C_1  and  C_2
REMARK    2  A    between atoms: C_8  and  C_9
REMARK    3  A    between atoms: C_9  and  C_10
REMARK    4  A    between atoms: C_10  and  C_11
REMARK    5  A    between atoms: C_10  and  C_12
REMARK    6  A    between atoms: C_10  and  C_13
REMARK    7  A    between atoms: N_19  and  C_20
REMARK                            x       y       z     vdW  Elec       q    Type
REMARK                         _______ _______ _______ _____ _____    ______ ____
ROOT
ATOM      1  C   UNL     1      -0.123   8.793  22.328  0.00  0.00    +0.000 C 
ATOM      2  C   UNL     1       0.385   9.305  21.030  0.00  0.00    +0.000 A 
ATOM      3  C   UNL     1       1.153   8.759  20.020  0.00  0.00    +0.000 A 
ATOM      4  C   UNL     1       1.300   9.791  19.020  0.00  0.00    +0.000 A 
ATOM      5  C   UNL     1       2.038   9.580  17.848  0.00  0.00    +0.000 A 
ATOM      6  C   UNL     1       2.610   8.294  17.756  0.00  0.00    +0.000 A 
ATOM      7  C   UNL     1       2.452   7.249  18.746  0.00  0.00    +0.000 A 
ATOM      8  C   UNL     1       2.987   5.951  18.663  0.00  0.00    +0.000 A 
ATOM      9  N   UNL     1       2.810   5.022  19.637  0.00  0.00    +0.000 NA
ATOM     10  C   UNL     1       2.084   5.376  20.706  0.00  0.00    +0.000 A 
ATOM     11  N   UNL     1       1.512   6.565  20.910  0.00  0.00    +0.000 NA
ATOM     12  C   UNL     1       1.710   7.464  19.929  0.00  0.00    +0.000 A 
ATOM     13  N   UNL     1       0.650  10.896  19.406  0.00  0.00    +0.000 NA
ATOM     14  N   UNL     1       0.121  10.585  20.602  0.00  0.00    +0.000 N 
ATOM     15  C   UNL     1      -0.644  11.594  21.300  0.00  0.00    +0.000 C 
ENDROOT
BRANCH   8  16
ATOM     16  C   UNL     1       3.805   5.476  17.477  0.00  0.00    +0.000 C 
BRANCH  16  17
ATOM     17  C   UNL     1       5.353   5.546  17.626  0.00  0.00    +0.000 C 
ATOM     18  C   UNL     1       5.811   5.343  19.080  0.00  0.00    +0.000 C 
ATOM     19  C   UNL     1       5.969   4.422  16.765  0.00  0.00    +0.000 C 
ATOM     20  C   UNL     1       5.905   6.889  17.121  0.00  0.00    +0.000 C 
ENDBRANCH  16  17
ENDBRANCH   8  16
TORSDOF 2
ENDMDL
MODEL 2
REMARK VINA RESULT:      -6.6      0.365      1.065
REMARK  Name = 
REMARK  7 active torsions:
REMARK  status: ('A' for Active; 'I' for Inactive)
REMARK    1  A    between atoms: C_1  and  C_2
REMARK    2  A    between atoms: C_8  and  C_9
REMARK    3  A    between atoms: C_9  and  C_10
REMARK    4  A    between atoms: C_10  and  C_11
REMARK    5  A    between atoms: C_10  and  C_12
REMARK    6  A    between atoms: C_10  and  C_13
REMARK    7  A    between atoms: N_19  and  C_20
REMARK                            x       y       z     vdW  Elec       q    Type
REMARK                         _______ _______ _______ _____ _____    ______ ____
ROOT
ATOM      1  C   UNL     1       0.278   9.109  22.505  0.00  0.00    +0.000 C 
ATOM      2  C   UNL     1       0.688   9.527  21.141  0.00  0.00    +0.000 A 
ATOM      3  C   UNL     1       1.304   8.881  20.086  0.00  0.00    +0.000 A 
ATOM      4  C   UNL     1       1.425   9.858  19.029  0.00  0.00    +0.000 A 
ATOM      5  C   UNL     1       2.019   9.541  17.800  0.00  0.00    +0.000 A 
ATOM      6  C   UNL     1       2.478   8.211  17.712  0.00  0.00    +0.000 A 
ATOM      7  C   UNL     1       2.344   7.222  18.762  0.00  0.00    +0.000 A 
ATOM      8  C   UNL     1       2.766   5.883  18.687  0.00  0.00    +0.000 A 
ATOM      9  N   UNL     1       2.619   5.010  19.716  0.00  0.00    +0.000 NA
ATOM     10  C   UNL     1       2.038   5.463  20.835  0.00  0.00    +0.000 A 
ATOM     11  N   UNL     1       1.582   6.702  21.039  0.00  0.00    +0.000 NA
ATOM     12  C   UNL     1       1.747   7.543  20.001  0.00  0.00    +0.000 A 
ATOM     13  N   UNL     1       0.906  11.026  19.425  0.00  0.00    +0.000 NA
ATOM     14  N   UNL     1       0.480  10.806  20.681  0.00  0.00    +0.000 N 
ATOM     15  C   UNL     1      -0.129  11.901  21.404  0.00  0.00    +0.000 C 
ENDROOT
BRANCH   8  16
ATOM     16  C   UNL     1       3.418   5.296  17.449  0.00  0.00    +0.000 C 
BRANCH  16  17
ATOM     17  C   UNL     1       4.971   5.378  17.374  0.00  0.00    +0.000 C 
ATOM     18  C   UNL     1       5.455   6.649  16.656  0.00  0.00    +0.000 C 
ATOM     19  C   UNL     1       5.520   5.401  18.817  0.00  0.00    +0.000 C 
ATOM     20  C   UNL     1       5.564   4.154  16.658  0.00  0.00    +0.000 C 
ENDBRANCH  16  17
ENDBRANCH   8  16
TORSDOF 2
ENDMDL
MODEL 3
REMARK VINA RESULT:      -6.4      1.667      6.050
REMARK  Name = 
REMARK  7 active torsions:
REMARK  status: ('A' for Active; 'I' for Inactive)
REMARK    1  A    between atoms: C_1  and  C_2
REMARK    2  A    between atoms: C_8  and  C_9
REMARK    3  A    between atoms: C_9  and  C_10
REMARK    4  A    between atoms: C_10  and  C_11
REMARK    5  A    between atoms: C_10  and  C_12
REMARK    6  A    between atoms: C_10  and  C_13
REMARK    7  A    between atoms: N_19  and  C_20
REMARK                            x       y       z     vdW  Elec       q    Type
REMARK                         _______ _______ _______ _____ _____    ______ ____
ROOT
ATOM      1  C   UNL     1       2.215   4.733  21.135  0.00  0.00    +0.000 C 
ATOM      2  C   UNL     1       2.550   5.498  19.907  0.00  0.00    +0.000 A 
ATOM      3  C   UNL     1       2.295   6.788  19.484  0.00  0.00    +0.000 A 
ATOM      4  C   UNL     1       2.897   6.910  18.175  0.00  0.00    +0.000 A 
ATOM      5  C   UNL     1       2.821   8.100  17.440  0.00  0.00    +0.000 A 
ATOM      6  C   UNL     1       2.111   9.130  18.090  0.00  0.00    +0.000 A 
ATOM      7  C   UNL     1       1.520   9.020  19.407  0.00  0.00    +0.000 A 
ATOM      8  C   UNL     1       0.834  10.041  20.088  0.00  0.00    +0.000 A 
ATOM      9  N   UNL     1       0.293   9.865  21.321  0.00  0.00    +0.000 NA
ATOM     10  C   UNL     1       0.441   8.664  21.896  0.00  0.00    +0.000 A 
ATOM     11  N   UNL     1       1.075   7.613  21.371  0.00  0.00    +0.000 NA
ATOM     12  C   UNL     1       1.595   7.819  20.147  0.00  0.00    +0.000 A 
ATOM     13  N   UNL     1       3.486   5.758  17.835  0.00  0.00    +0.000 NA
ATOM     14  N   UNL     1       3.263   4.935  18.874  0.00  0.00    +0.000 N 
ATOM     15  C   UNL     1       3.771   3.583  18.805  0.00  0.00    +0.000 C 
ENDROOT
BRANCH   8  16
ATOM     16  C   UNL     1       0.641  11.429  19.506  0.00  0.00    +0.000 C 
BRANCH  16  17
ATOM     17  C   UNL     1      -0.780  11.766  18.965  0.00  0.00    +0.000 C 
ATOM     18  C   UNL     1      -1.774  12.089  20.094  0.00  0.00    +0.000 C 
ATOM     19  C   UNL     1      -0.664  13.007  18.054  0.00  0.00    +0.000 C 
ATOM     20  C   UNL     1      -1.349  10.610  18.126  0.00  0.00    +0.000 C 
ENDBRANCH  16  17
ENDBRANCH   8  16
TORSDOF 2
ENDMDL
MODEL 4
REMARK VINA RESULT:      -6.3      1.962      3.410
REMARK  Name = 
REMARK  7 active torsions:
REMARK  status: ('A' for Active; 'I' for Inactive)
REMARK    1  A    between atoms: C_1  and  C_2
REMARK    2  A    between atoms: C_8  and  C_9
REMARK    3  A    between atoms: C_9  and  C_10
REMARK    4  A    between atoms: C_10  and  C_11
REMARK    5  A    between atoms: C_10  and  C_12
REMARK    6  A    between atoms: C_10  and  C_13
REMARK    7  A    between atoms: N_19  and  C_20
REMARK                            x       y       z     vdW  Elec       q    Type
REMARK                         _______ _______ _______ _____ _____    ______ ____
ROOT
ATOM      1  C   UNL     1       1.951  10.709  17.857  0.00  0.00    +0.000 C 
ATOM      2  C   UNL     1       1.478   9.895  19.005  0.00  0.00    +0.000 A 
ATOM      3  C   UNL     1       1.717   8.599  19.422  0.00  0.00    +0.000 A 
ATOM      4  C   UNL     1       0.940   8.412  20.626  0.00  0.00    +0.000 A 
ATOM      5  C   UNL     1       0.940   7.195  21.319  0.00  0.00    +0.000 A 
ATOM      6  C   UNL     1       1.747   6.201  20.730  0.00  0.00    +0.000 A 
ATOM      7  C   UNL     1       2.541   6.386  19.533  0.00  0.00    +0.000 A 
ATOM      8  C   UNL     1       3.376   5.421  18.944  0.00  0.00    +0.000 A 
ATOM      9  N   UNL     1       4.086   5.659  17.811  0.00  0.00    +0.000 NA
ATOM     10  C   UNL     1       3.978   6.874  17.256  0.00  0.00    +0.000 A 
ATOM     11  N   UNL     1       3.234   7.884  17.713  0.00  0.00    +0.000 NA
ATOM     12  C   UNL     1       2.539   7.614  18.834  0.00  0.00    +0.000 A 
ATOM     13  N   UNL     1       0.276   9.537  20.919  0.00  0.00    +0.000 NA
ATOM     14  N   UNL     1       0.606  10.398  19.942  0.00  0.00    +0.000 N 
ATOM     15  C   UNL     1       0.028  11.724  19.966  0.00  0.00    +0.000 C 
ENDROOT
BRANCH   8  16
ATOM     16  C   UNL     1       3.560   4.031  19.523  0.00  0.00    +0.000 C 
BRANCH  16  17
ATOM     17  C   UNL     1       2.494   2.966  19.130  0.00  0.00    +0.000 C 
ATOM     18  C   UNL     1       1.505   3.490  18.076  0.00  0.00    +0.000 C 
ATOM     19  C   UNL     1       3.231   1.746  18.536  0.00  0.00    +0.000 C 
ATOM     20  C   UNL     1       1.698   2.490  20.356  0.00  0.00    +0.000 C 
ENDBRANCH  16  17
ENDBRANCH   8  16
TORSDOF 2
ENDMDL
MODEL 5
REMARK VINA RESULT:      -6.3      2.022      3.379
REMARK  Name = 
REMARK  7 active torsions:
REMARK  status: ('A' for Active; 'I' for Inactive)
REMARK    1  A    between atoms: C_1  and  C_2
REMARK    2  A    between atoms: C_8  and  C_9
REMARK    3  A    between atoms: C_9  and  C_10
REMARK    4  A    between atoms: C_10  and  C_11
REMARK    5  A    between atoms: C_10  and  C_12
REMARK    6  A    between atoms: C_10  and  C_13
REMARK    7  A    between atoms: N_19  and  C_20
REMARK                            x       y       z     vdW  Elec       q    Type
REMARK                         _______ _______ _______ _____ _____    ______ ____
ROOT
ATOM      1  C   UNL     1       1.972  10.557  17.889  0.00  0.00    +0.000 C 
ATOM      2  C   UNL     1       1.511   9.690  19.003  0.00  0.00    +0.000 A 
ATOM      3  C   UNL     1       1.788   8.390  19.382  0.00  0.00    +0.000 A 
ATOM      4  C   UNL     1       1.001   8.138  20.567  0.00  0.00    +0.000 A 
ATOM      5  C   UNL     1       1.033   6.900  21.221  0.00  0.00    +0.000 A 
ATOM      6  C   UNL     1       1.883   5.953  20.613  0.00  0.00    +0.000 A 
ATOM      7  C   UNL     1       2.687   6.205  19.435  0.00  0.00    +0.000 A 
ATOM      8  C   UNL     1       3.564   5.288  18.828  0.00  0.00    +0.000 A 
ATOM      9  N   UNL     1       4.281   5.587  17.714  0.00  0.00    +0.000 NA
ATOM     10  C   UNL     1       4.138   6.814  17.197  0.00  0.00    +0.000 A 
ATOM     11  N   UNL     1       3.353   7.783  17.674  0.00  0.00    +0.000 NA
ATOM     12  C   UNL     1       2.653   7.453  18.775  0.00  0.00    +0.000 A 
ATOM     13  N   UNL     1       0.294   9.229  20.886  0.00  0.00    +0.000 NA
ATOM     14  N   UNL     1       0.609  10.133  19.941  0.00  0.00    +0.000 N 
ATOM     15  C   UNL     1      -0.015  11.436  19.999  0.00  0.00    +0.000 C 
ENDROOT
BRANCH   8  16
ATOM     16  C   UNL     1       3.787   3.887  19.366  0.00  0.00    +0.000 C 
BRANCH  16  17
ATOM     17  C   UNL     1       2.800   2.787  18.876  0.00  0.00    +0.000 C 
ATOM     18  C   UNL     1       3.527   1.521  18.394  0.00  0.00    +0.000 C 
ATOM     19  C   UNL     1       1.888   2.399  20.060  0.00  0.00    +0.000 C 
ATOM     20  C   UNL     1       1.906   3.303  17.736  0.00  0.00    +0.000 C 
ENDBRANCH  16  17
ENDBRANCH   8  16
TORSDOF 2
ENDMDL
MODEL 6
REMARK VINA RESULT:      -6.2      1.596      2.273
REMARK  Name = 
REMARK  7 active torsions:
REMARK  status: ('A' for Active; 'I' for Inactive)
REMARK    1  A    between atoms: C_1  and  C_2
REMARK    2  A    between atoms: C_8  and  C_9
REMARK    3  A    between atoms: C_9  and  C_10
REMARK    4  A    between atoms: C_10  and  C_11
REMARK    5  A    between atoms: C_10  and  C_12
REMARK    6  A    between atoms: C_10  and  C_13
REMARK    7  A    between atoms: N_19  and  C_20
REMARK                            x       y       z     vdW  Elec       q    Type
REMARK                         _______ _______ _______ _____ _____    ______ ____
ROOT
ATOM      1  C   UNL     1       0.075   9.171  20.999  0.00  0.00    +0.000 C 
ATOM      2  C   UNL     1       0.981   9.146  19.823  0.00  0.00    +0.000 A 
ATOM      3  C   UNL     1       1.849   8.205  19.304  0.00  0.00    +0.000 A 
ATOM      4  C   UNL     1       2.443   8.807  18.131  0.00  0.00    +0.000 A 
ATOM      5  C   UNL     1       3.390   8.126  17.355  0.00  0.00    +0.000 A 
ATOM      6  C   UNL     1       3.697   6.834  17.831  0.00  0.00    +0.000 A 
ATOM      7  C   UNL     1       3.094   6.219  18.995  0.00  0.00    +0.000 A 
ATOM      8  C   UNL     1       3.361   4.923  19.471  0.00  0.00    +0.000 A 
ATOM      9  N   UNL     1       2.766   4.413  20.579  0.00  0.00    +0.000 NA
ATOM     10  C   UNL     1       1.885   5.190  21.223  0.00  0.00    +0.000 A 
ATOM     11  N   UNL     1       1.530   6.430  20.878  0.00  0.00    +0.000 NA
ATOM     12  C   UNL     1       2.141   6.908  19.778  0.00  0.00    +0.000 A 
ATOM     13  N   UNL     1       1.953  10.039  17.953  0.00  0.00    +0.000 NA
ATOM     14  N   UNL     1       1.092  10.219  18.970  0.00  0.00    +0.000 N 
ATOM     15  C   UNL     1       0.396  11.483  19.069  0.00  0.00    +0.000 C 
ENDROOT
BRANCH   8  16
ATOM     16  C   UNL     1       4.335   3.983  18.786  0.00  0.00    +0.000 C 
BRANCH  16  17
ATOM     17  C   UNL     1       3.762   3.106  17.633  0.00  0.00    +0.000 C 
ATOM     18  C   UNL     1       2.315   3.484  17.275  0.00  0.00    +0.000 C 
ATOM     19  C   UNL     1       4.642   3.324  16.383  0.00  0.00    +0.000 C 
ATOM     20  C   UNL     1       3.805   1.612  17.991  0.00  0.00    +0.000 C 
ENDBRANCH  16  17
ENDBRANCH   8  16
TORSDOF 2
ENDMDL
MODEL 7
REMARK VINA RESULT:      -6.2      0.926      1.468
REMARK  Name = 
REMARK  7 active torsions:
REMARK  status: ('A' for Active; 'I' for Inactive)
REMARK    1  A    between atoms: C_1  and  C_2
REMARK    2  A    between atoms: C_8  and  C_9
REMARK    3  A    between atoms: C_9  and  C_10
REMARK    4  A    between atoms: C_10  and  C_11
REMARK    5  A    between atoms: C_10  and  C_12
REMARK    6  A    between atoms: C_10  and  C_13
REMARK    7  A    between atoms: N_19  and  C_20
REMARK                            x       y       z     vdW  Elec       q    Type
REMARK                         _______ _______ _______ _____ _____    ______ ____
ROOT
ATOM      1  C   UNL     1      -0.454   8.948  22.153  0.00  0.00    +0.000 C 
ATOM      2  C   UNL     1       0.121   9.406  20.863  0.00  0.00    +0.000 A 
ATOM      3  C   UNL     1       1.016   8.856  19.965  0.00  0.00    +0.000 A 
ATOM      4  C   UNL     1       1.164   9.822  18.900  0.00  0.00    +0.000 A 
ATOM      5  C   UNL     1       2.015   9.590  17.811  0.00  0.00    +0.000 A 
ATOM      6  C   UNL     1       2.695   8.356  17.869  0.00  0.00    +0.000 A 
ATOM      7  C   UNL     1       2.538   7.377  18.925  0.00  0.00    +0.000 A 
ATOM      8  C   UNL     1       3.182   6.129  18.989  0.00  0.00    +0.000 A 
ATOM      9  N   UNL     1       2.997   5.261  20.017  0.00  0.00    +0.000 NA
ATOM     10  C   UNL     1       2.156   5.628  20.993  0.00  0.00    +0.000 A 
ATOM     11  N   UNL     1       1.473   6.774  21.055  0.00  0.00    +0.000 NA
ATOM     12  C   UNL     1       1.682   7.613  20.023  0.00  0.00    +0.000 A 
ATOM     13  N   UNL     1       0.396  10.890  19.142  0.00  0.00    +0.000 NA
ATOM     14  N   UNL     1      -0.208  10.623  20.314  0.00  0.00    +0.000 N 
ATOM     15  C   UNL     1      -1.110  11.610  20.865  0.00  0.00    +0.000 C 
ENDROOT
BRANCH   8  16
ATOM     16  C   UNL     1       4.135   5.640  17.914  0.00  0.00    +0.000 C 
BRANCH  16  17
ATOM     17  C   UNL     1       3.926   4.182  17.409  0.00  0.00    +0.000 C 
ATOM     18  C   UNL     1       2.442   3.849  17.180  0.00  0.00    +0.000 C 
ATOM     19  C   UNL     1       4.668   4.031  16.063  0.00  0.00    +0.000 C 
ATOM     20  C   UNL     1       4.513   3.158  18.394  0.00  0.00    +0.000 C 
ENDBRANCH  16  17
ENDBRANCH   8  16
TORSDOF 2
ENDMDL
MODEL 8
REMARK VINA RESULT:      -6.1      2.181      3.554
REMARK  Name = 
REMARK  7 active torsions:
REMARK  status: ('A' for Active; 'I' for Inactive)
REMARK    1  A    between atoms: C_1  and  C_2
REMARK    2  A    between atoms: C_8  and  C_9
REMARK    3  A    between atoms: C_9  and  C_10
REMARK    4  A    between atoms: C_10  and  C_11
REMARK    5  A    between atoms: C_10  and  C_12
REMARK    6  A    between atoms: C_10  and  C_13
REMARK    7  A    between atoms: N_19  and  C_20
REMARK                            x       y       z     vdW  Elec       q    Type
REMARK                         _______ _______ _______ _____ _____    ______ ____
ROOT
ATOM      1  C   UNL     1      -0.647  12.198  18.573  0.00  0.00    +0.000 C 
ATOM      2  C   UNL     1      -0.555  11.426  19.839  0.00  0.00    +0.000 A 
ATOM      3  C   UNL     1       0.105  10.270  20.208  0.00  0.00    +0.000 A 
ATOM      4  C   UNL     1      -0.223  10.044  21.598  0.00  0.00    +0.000 A 
ATOM      5  C   UNL     1       0.275   8.939  22.300  0.00  0.00    +0.000 A 
ATOM      6  C   UNL     1       1.099   8.095  21.529  0.00  0.00    +0.000 A 
ATOM      7  C   UNL     1       1.445   8.324  20.141  0.00  0.00    +0.000 A 
ATOM      8  C   UNL     1       2.288   7.514  19.360  0.00  0.00    +0.000 A 
ATOM      9  N   UNL     1       2.562   7.783  18.058  0.00  0.00    +0.000 NA
ATOM     10  C   UNL     1       2.003   8.875  17.520  0.00  0.00    +0.000 A 
ATOM     11  N   UNL     1       1.196   9.735  18.145  0.00  0.00    +0.000 NA
ATOM     12  C   UNL     1       0.941   9.438  19.433  0.00  0.00    +0.000 A 
ATOM     13  N   UNL     1      -1.032  11.015  22.039  0.00  0.00    +0.000 NA
ATOM     14  N   UNL     1      -1.218  11.819  20.978  0.00  0.00    +0.000 N 
ATOM     15  C   UNL     1      -2.074  12.975  21.130  0.00  0.00    +0.000 C 
ENDROOT
BRANCH   8  16
ATOM     16  C   UNL     1       2.967   6.271  19.905  0.00  0.00    +0.000 C 
BRANCH  16  17
ATOM     17  C   UNL     1       2.339   4.903  19.506  0.00  0.00    +0.000 C 
ATOM     18  C   UNL     1       3.333   3.739  19.651  0.00  0.00    +0.000 C 
ATOM     19  C   UNL     1       1.141   4.634  20.442  0.00  0.00    +0.000 C 
ATOM     20  C   UNL     1       1.817   4.926  18.060  0.00  0.00    +0.000 C 
ENDBRANCH  16  17
ENDBRANCH   8  16
TORSDOF 2
ENDMDL
MODEL 9
REMARK VINA RESULT:      -6.1      2.075      3.425
REMARK  Name = 
REMARK  7 active torsions:
REMARK  status: ('A' for Active; 'I' for Inactive)
REMARK    1  A    between atoms: C_1  and  C_2
REMARK    2  A    between atoms: C_8  and  C_9
REMARK    3  A    between atoms: C_9  and  C_10
REMARK    4  A    between atoms: C_10  and  C_11
REMARK    5  A    between atoms: C_10  and  C_12
REMARK    6  A    between atoms: C_10  and  C_13
REMARK    7  A    between atoms: N_19  and  C_20
REMARK                            x       y       z     vdW  Elec       q    Type
REMARK                         _______ _______ _______ _____ _____    ______ ____
ROOT
ATOM      1  C   UNL     1       0.816  11.879  18.259  0.00  0.00    +0.000 C 
ATOM      2  C   UNL     1       0.493  11.066  19.459  0.00  0.00    +0.000 A 
ATOM      3  C   UNL     1       0.843   9.797  19.878  0.00  0.00    +0.000 A 
ATOM      4  C   UNL     1       0.185   9.594  21.149  0.00  0.00    +0.000 A 
ATOM      5  C   UNL     1       0.316   8.396  21.862  0.00  0.00    +0.000 A 
ATOM      6  C   UNL     1       1.129   7.436  21.223  0.00  0.00    +0.000 A 
ATOM      7  C   UNL     1       1.805   7.639  19.959  0.00  0.00    +0.000 A 
ATOM      8  C   UNL     1       2.644   6.710  19.318  0.00  0.00    +0.000 A 
ATOM      9  N   UNL     1       3.239   6.962  18.123  0.00  0.00    +0.000 NA
ATOM     10  C   UNL     1       3.010   8.155  17.558  0.00  0.00    +0.000 A 
ATOM     11  N   UNL     1       2.249   9.131  18.058  0.00  0.00    +0.000 NA
ATOM     12  C   UNL     1       1.670   8.847  19.240  0.00  0.00    +0.000 A 
ATOM     13  N   UNL     1      -0.519  10.684  21.477  0.00  0.00    +0.000 NA
ATOM     14  N   UNL     1      -0.325  11.540  20.458  0.00  0.00    +0.000 N 
ATOM     15  C   UNL     1      -0.977  12.830  20.508  0.00  0.00    +0.000 C 
ENDROOT
BRANCH   8  16
ATOM     16  C   UNL     1       2.959   5.348  19.905  0.00  0.00    +0.000 C 
BRANCH  16  17
ATOM     17  C   UNL     1       2.095   4.155  19.401  0.00  0.00    +0.000 C 
ATOM     18  C   UNL     1       1.582   4.369  17.967  0.00  0.00    +0.000 C 
ATOM     19  C   UNL     1       2.975   2.886  19.413  0.00  0.00    +0.000 C 
ATOM     20  C   UNL     1       0.889   3.906  20.322  0.00  0.00    +0.000 C 
ENDBRANCH  16  17
ENDBRANCH   8  16
TORSDOF 2
ENDMDL
