MODEL 1
REMARK VINA RESULT:      -7.1      0.000      0.000
REMARK  Name = 
REMARK  2 active torsions:
REMARK  status: ('A' for Active; 'I' for Inactive)
REMARK    1  A    between atoms: C_1  and  N_2
REMARK    2  A    between atoms: C_7  and  C_9
REMARK                            x       y       z     vdW  Elec       q    Type
REMARK                         _______ _______ _______ _____ _____    ______ ____
ROOT
ATOM      1  C   UNL     1       7.888   6.612  18.530  0.00  0.00    +0.000 C 
ATOM      2  N   UNL     1       7.384   5.320  18.067  0.00  0.00    +0.000 NA
ATOM      3  C   UNL     1       7.216   5.296  16.607  0.00  0.00    +0.000 C 
ATOM      4  C   UNL     1       6.390   4.126  16.039  0.00  0.00    +0.000 C 
ATOM      5  C   UNL     1       4.872   4.369  16.051  0.00  0.00    +0.000 C 
ATOM      6  N   UNL     1       4.274   4.397  17.390  0.00  0.00    +0.000 N 
ATOM      7  C   UNL     1       3.325   3.407  17.727  0.00  0.00    +0.000 C 
ATOM      8  O   UNL     1       2.987   2.540  16.927  0.00  0.00    +0.000 OA
ATOM      9  C   UNL     1       4.841   5.404  18.290  0.00  0.00    +0.000 C 
ATOM     10  C   UNL     1       6.203   4.917  18.832  0.00  0.00    +0.000 C 
ENDROOT
BRANCH   7  11
ATOM     11  C   UNL     1       2.691   3.384  19.091  0.00  0.00    +0.000 A 
ATOM     12  C   UNL     1       1.510   4.106  19.330  0.00  0.00    +0.000 A 
ATOM     13  C   UNL     1       0.806   3.978  20.525  0.00  0.00    +0.000 A 
ATOM     14  C   UNL     1       1.339   3.229  21.558  0.00  0.00    +0.000 A 
ATOM     15  C   UNL     1       2.580   2.625  21.405  0.00  0.00    +0.000 A 
ATOM     16  C   UNL     1       3.255   2.687  20.169  0.00  0.00    +0.000 A 
ATOM     17 CL   UNL     1       4.779   1.865  20.099  0.00  0.00    +0.000 Cl
ENDBRANCH   7  11
TORSDOF 1
ENDMDL
MODEL 2
REMARK VINA RESULT:      -6.8      2.305      5.536
REMARK  Name = 
REMARK  2 active torsions:
REMARK  status: ('A' for Active; 'I' for Inactive)
REMARK    1  A    between atoms: C_1  and  N_2
REMARK    2  A    between atoms: C_7  and  C_9
REMARK                            x       y       z     vdW  Elec       q    Type
REMARK                         _______ _______ _______ _____ _____    ______ ____
ROOT
ATOM      1  C   UNL     1       1.189   4.175  20.797  0.00  0.00    +0.000 C 
ATOM      2  N   UNL     1       1.589   4.137  19.391  0.00  0.00    +0.000 NA
ATOM      3  C   UNL     1       1.574   2.767  18.861  0.00  0.00    +0.000 C 
ATOM      4  C   UNL     1       2.284   2.554  17.510  0.00  0.00    +0.000 C 
ATOM      5  C   UNL     1       3.798   2.320  17.631  0.00  0.00    +0.000 C 
ATOM      6  N   UNL     1       4.560   3.495  18.069  0.00  0.00    +0.000 N 
ATOM      7  C   UNL     1       5.511   4.051  17.186  0.00  0.00    +0.000 C 
ATOM      8  O   UNL     1       5.718   3.570  16.077  0.00  0.00    +0.000 OA
ATOM      9  C   UNL     1       4.142   4.046  19.361  0.00  0.00    +0.000 C 
ATOM     10  C   UNL     1       2.843   4.865  19.187  0.00  0.00    +0.000 C 
ENDROOT
BRANCH   7  11
ATOM     11  C   UNL     1       6.309   5.264  17.581  0.00  0.00    +0.000 A 
ATOM     12  C   UNL     1       7.233   5.184  18.635  0.00  0.00    +0.000 A 
ATOM     13  C   UNL     1       8.105   6.232  18.922  0.00  0.00    +0.000 A 
ATOM     14  C   UNL     1       7.980   7.432  18.247  0.00  0.00    +0.000 A 
ATOM     15  C   UNL     1       6.975   7.592  17.302  0.00  0.00    +0.000 A 
ATOM     16  C   UNL     1       6.144   6.507  16.955  0.00  0.00    +0.000 A 
ATOM     17 CL   UNL     1       4.952   6.828  15.739  0.00  0.00    +0.000 Cl
ENDBRANCH   7  11
TORSDOF 1
ENDMDL
MODEL 3
REMARK VINA RESULT:      -6.7      1.841      2.800
REMARK  Name = 
REMARK  2 active torsions:
REMARK  status: ('A' for Active; 'I' for Inactive)
REMARK    1  A    between atoms: C_1  and  N_2
REMARK    2  A    between atoms: C_7  and  C_9
REMARK                            x       y       z     vdW  Elec       q    Type
REMARK                         _______ _______ _______ _____ _____    ______ ____
ROOT
ATOM      1  C   UNL     1       6.257   3.830  13.449  0.00  0.00    +0.000 C 
ATOM      2  N   UNL     1       6.062   4.805  14.521  0.00  0.00    +0.000 NA
ATOM      3  C   UNL     1       7.331   5.146  15.179  0.00  0.00    +0.000 C 
ATOM      4  C   UNL     1       7.219   5.896  16.520  0.00  0.00    +0.000 C 
ATOM      5  C   UNL     1       7.020   4.976  17.735  0.00  0.00    +0.000 C 
ATOM      6  N   UNL     1       5.716   4.303  17.778  0.00  0.00    +0.000 N 
ATOM      7  C   UNL     1       4.840   4.596  18.847  0.00  0.00    +0.000 C 
ATOM      8  O   UNL     1       5.149   5.384  19.735  0.00  0.00    +0.000 OA
ATOM      9  C   UNL     1       5.417   3.478  16.606  0.00  0.00    +0.000 C 
ATOM     10  C   UNL     1       4.992   4.378  15.425  0.00  0.00    +0.000 C 
ENDROOT
BRANCH   7  11
ATOM     11  C   UNL     1       3.487   3.944  18.931  0.00  0.00    +0.000 A 
ATOM     12  C   UNL     1       2.380   4.539  18.303  0.00  0.00    +0.000 A 
ATOM     13  C   UNL     1       1.153   3.887  18.217  0.00  0.00    +0.000 A 
ATOM     14  C   UNL     1       0.968   2.684  18.874  0.00  0.00    +0.000 A 
ATOM     15  C   UNL     1       2.000   2.144  19.630  0.00  0.00    +0.000 A 
ATOM     16  C   UNL     1       3.267   2.762  19.652  0.00  0.00    +0.000 A 
ATOM     17 CL   UNL     1       4.477   1.971  20.606  0.00  0.00    +0.000 Cl
ENDBRANCH   7  11
TORSDOF 1
ENDMDL
MODEL 4
REMARK VINA RESULT:      -6.7      2.378      3.002
REMARK  Name = 
REMARK  2 active torsions:
REMARK  status: ('A' for Active; 'I' for Inactive)
REMARK    1  A    between atoms: C_1  and  N_2
REMARK    2  A    between atoms: C_7  and  C_9
REMARK                            x       y       z     vdW  Elec       q    Type
REMARK                         _______ _______ _______ _____ _____    ______ ____
ROOT
ATOM      1  C   UNL     1       6.400   3.575  15.189  0.00  0.00    +0.000 C 
ATOM      2  N   UNL     1       5.312   4.523  15.423  0.00  0.00    +0.000 NA
ATOM      3  C   UNL     1       5.808   5.904  15.518  0.00  0.00    +0.000 C 
ATOM      4  C   UNL     1       4.822   6.942  16.086  0.00  0.00    +0.000 C 
ATOM      5  C   UNL     1       4.806   7.012  17.621  0.00  0.00    +0.000 C 
ATOM      6  N   UNL     1       4.240   5.827  18.276  0.00  0.00    +0.000 N 
ATOM      7  C   UNL     1       3.061   5.975  19.040  0.00  0.00    +0.000 C 
ATOM      8  O   UNL     1       2.514   7.065  19.175  0.00  0.00    +0.000 OA
ATOM      9  C   UNL     1       4.913   4.568  17.946  0.00  0.00    +0.000 C 
ATOM     10  C   UNL     1       4.475   4.090  16.544  0.00  0.00    +0.000 C 
ENDROOT
BRANCH   7  11
ATOM     11  C   UNL     1       2.433   4.789  19.720  0.00  0.00    +0.000 A 
ATOM     12  C   UNL     1       2.789   4.466  21.040  0.00  0.00    +0.000 A 
ATOM     13  C   UNL     1       2.113   3.482  21.758  0.00  0.00    +0.000 A 
ATOM     14  C   UNL     1       1.157   2.709  21.127  0.00  0.00    +0.000 A 
ATOM     15  C   UNL     1       0.888   2.905  19.779  0.00  0.00    +0.000 A 
ATOM     16  C   UNL     1       1.514   3.953  19.073  0.00  0.00    +0.000 A 
ATOM     17 CL   UNL     1       1.069   4.110  17.406  0.00  0.00    +0.000 Cl
ENDBRANCH   7  11
TORSDOF 1
ENDMDL
MODEL 5
REMARK VINA RESULT:      -6.5      2.246      3.243
REMARK  Name = 
REMARK  2 active torsions:
REMARK  status: ('A' for Active; 'I' for Inactive)
REMARK    1  A    between atoms: C_1  and  N_2
REMARK    2  A    between atoms: C_7  and  C_9
REMARK                            x       y       z     vdW  Elec       q    Type
REMARK                         _______ _______ _______ _____ _____    ______ ____
ROOT
ATOM      1  C   UNL     1       5.623   3.782  13.523  0.00  0.00    +0.000 C 
ATOM      2  N   UNL     1       5.732   4.762  14.603  0.00  0.00    +0.000 NA
ATOM      3  C   UNL     1       7.123   4.925  15.048  0.00  0.00    +0.000 C 
ATOM      4  C   UNL     1       7.325   5.668  16.382  0.00  0.00    +0.000 C 
ATOM      5  C   UNL     1       7.201   4.769  17.623  0.00  0.00    +0.000 C 
ATOM      6  N   UNL     1       5.843   4.275  17.879  0.00  0.00    +0.000 N 
ATOM      7  C   UNL     1       5.194   4.669  19.070  0.00  0.00    +0.000 C 
ATOM      8  O   UNL     1       5.741   5.399  19.890  0.00  0.00    +0.000 OA
ATOM      9  C   UNL     1       5.255   3.509  16.777  0.00  0.00    +0.000 C 
ATOM     10  C   UNL     1       4.771   4.471  15.669  0.00  0.00    +0.000 C 
ENDROOT
BRANCH   7  11
ATOM     11  C   UNL     1       3.797   4.201  19.374  0.00  0.00    +0.000 A 
ATOM     12  C   UNL     1       3.593   2.969  20.018  0.00  0.00    +0.000 A 
ATOM     13  C   UNL     1       2.333   2.578  20.463  0.00  0.00    +0.000 A 
ATOM     14  C   UNL     1       1.227   3.350  20.155  0.00  0.00    +0.000 A 
ATOM     15  C   UNL     1       1.378   4.498  19.388  0.00  0.00    +0.000 A 
ATOM     16  C   UNL     1       2.662   4.936  19.006  0.00  0.00    +0.000 A 
ATOM     17 CL   UNL     1       2.716   6.400  18.081  0.00  0.00    +0.000 Cl
ENDBRANCH   7  11
TORSDOF 1
ENDMDL
MODEL 6
REMARK VINA RESULT:      -6.5      1.480      1.876
REMARK  Name = 
REMARK  2 active torsions:
REMARK  status: ('A' for Active; 'I' for Inactive)
REMARK    1  A    between atoms: C_1  and  N_2
REMARK    2  A    between atoms: C_7  and  C_9
REMARK                            x       y       z     vdW  Elec       q    Type
REMARK                         _______ _______ _______ _____ _____    ______ ____
ROOT
ATOM      1  C   UNL     1       6.968   7.698  17.610  0.00  0.00    +0.000 C 
ATOM      2  N   UNL     1       7.004   6.236  17.625  0.00  0.00    +0.000 NA
ATOM      3  C   UNL     1       7.141   5.683  16.270  0.00  0.00    +0.000 C 
ATOM      4  C   UNL     1       6.859   4.177  16.120  0.00  0.00    +0.000 C 
ATOM      5  C   UNL     1       5.371   3.835  15.937  0.00  0.00    +0.000 C 
ATOM      6  N   UNL     1       4.545   4.071  17.126  0.00  0.00    +0.000 N 
ATOM      7  C   UNL     1       3.913   2.966  17.739  0.00  0.00    +0.000 C 
ATOM      8  O   UNL     1       4.033   1.828  17.296  0.00  0.00    +0.000 OA
ATOM      9  C   UNL     1       4.573   5.447  17.626  0.00  0.00    +0.000 C 
ATOM     10  C   UNL     1       5.886   5.696  18.402  0.00  0.00    +0.000 C 
ENDROOT
BRANCH   7  11
ATOM     11  C   UNL     1       3.066   3.152  18.969  0.00  0.00    +0.000 A 
ATOM     12  C   UNL     1       3.489   2.625  20.200  0.00  0.00    +0.000 A 
ATOM     13  C   UNL     1       2.820   2.915  21.386  0.00  0.00    +0.000 A 
ATOM     14  C   UNL     1       1.636   3.628  21.349  0.00  0.00    +0.000 A 
ATOM     15  C   UNL     1       1.112   4.035  20.128  0.00  0.00    +0.000 A 
ATOM     16  C   UNL     1       1.829   3.811  18.935  0.00  0.00    +0.000 A 
ATOM     17 CL   UNL     1       1.082   4.395  17.485  0.00  0.00    +0.000 Cl
ENDBRANCH   7  11
TORSDOF 1
ENDMDL
MODEL 7
REMARK VINA RESULT:      -6.3      2.322      5.607
REMARK  Name = 
REMARK  2 active torsions:
REMARK  status: ('A' for Active; 'I' for Inactive)
REMARK    1  A    between atoms: C_1  and  N_2
REMARK    2  A    between atoms: C_7  and  C_9
REMARK                            x       y       z     vdW  Elec       q    Type
REMARK                         _______ _______ _______ _____ _____    ______ ____
ROOT
ATOM      1  C   UNL     1       1.886   2.458  20.913  0.00  0.00    +0.000 C 
ATOM      2  N   UNL     1       2.484   3.790  20.839  0.00  0.00    +0.000 NA
ATOM      3  C   UNL     1       1.459   4.842  20.802  0.00  0.00    +0.000 C 
ATOM      4  C   UNL     1       1.942   6.247  20.394  0.00  0.00    +0.000 C 
ATOM      5  C   UNL     1       2.000   6.470  18.875  0.00  0.00    +0.000 C 
ATOM      6  N   UNL     1       3.042   5.699  18.188  0.00  0.00    +0.000 N 
ATOM      7  C   UNL     1       4.083   6.398  17.538  0.00  0.00    +0.000 C 
ATOM      8  O   UNL     1       4.127   7.624  17.528  0.00  0.00    +0.000 OA
ATOM      9  C   UNL     1       2.945   4.248  18.369  0.00  0.00    +0.000 C 
ATOM     10  C   UNL     1       3.477   3.857  19.765  0.00  0.00    +0.000 C 
ENDROOT
BRANCH   7  11
ATOM     11  C   UNL     1       5.183   5.654  16.831  0.00  0.00    +0.000 A 
ATOM     12  C   UNL     1       5.040   5.309  15.476  0.00  0.00    +0.000 A 
ATOM     13  C   UNL     1       6.096   4.770  14.745  0.00  0.00    +0.000 A 
ATOM     14  C   UNL     1       7.275   4.439  15.387  0.00  0.00    +0.000 A 
ATOM     15  C   UNL     1       7.393   4.629  16.758  0.00  0.00    +0.000 A 
ATOM     16  C   UNL     1       6.355   5.248  17.483  0.00  0.00    +0.000 A 
ATOM     17 CL   UNL     1       6.640   5.456  19.180  0.00  0.00    +0.000 Cl
ENDBRANCH   7  11
TORSDOF 1
ENDMDL
MODEL 8
REMARK VINA RESULT:      -6.2      1.517      1.800
REMARK  Name = 
REMARK  2 active torsions:
REMARK  status: ('A' for Active; 'I' for Inactive)
REMARK    1  A    between atoms: C_1  and  N_2
REMARK    2  A    between atoms: C_7  and  C_9
REMARK                            x       y       z     vdW  Elec       q    Type
REMARK                         _______ _______ _______ _____ _____    ______ ____
ROOT
ATOM      1  C   UNL     1       8.171   5.764  18.887  0.00  0.00    +0.000 C 
ATOM      2  N   UNL     1       7.449   4.698  18.195  0.00  0.00    +0.000 NA
ATOM      3  C   UNL     1       7.385   4.939  16.747  0.00  0.00    +0.000 C 
ATOM      4  C   UNL     1       6.381   4.076  15.959  0.00  0.00    +0.000 C 
ATOM      5  C   UNL     1       4.948   4.633  15.954  0.00  0.00    +0.000 C 
ATOM      6  N   UNL     1       4.273   4.578  17.255  0.00  0.00    +0.000 N 
ATOM      7  C   UNL     1       3.119   3.774  17.385  0.00  0.00    +0.000 C 
ATOM      8  O   UNL     1       2.671   3.135  16.438  0.00  0.00    +0.000 OA
ATOM      9  C   UNL     1       4.967   5.288  18.333  0.00  0.00    +0.000 C 
ATOM     10  C   UNL     1       6.157   4.442  18.836  0.00  0.00    +0.000 C 
ENDROOT
BRANCH   7  11
ATOM     11  C   UNL     1       2.397   3.673  18.701  0.00  0.00    +0.000 A 
ATOM     12  C   UNL     1       2.223   2.420  19.313  0.00  0.00    +0.000 A 
ATOM     13  C   UNL     1       1.710   2.303  20.602  0.00  0.00    +0.000 A 
ATOM     14  C   UNL     1       1.235   3.426  21.255  0.00  0.00    +0.000 A 
ATOM     15  C   UNL     1       1.255   4.658  20.615  0.00  0.00    +0.000 A 
ATOM     16  C   UNL     1       1.848   4.791  19.343  0.00  0.00    +0.000 A 
ATOM     17 CL   UNL     1       1.837   6.387  18.668  0.00  0.00    +0.000 Cl
ENDBRANCH   7  11
TORSDOF 1
ENDMDL
MODEL 9
REMARK VINA RESULT:      -6.2      1.900      2.140
REMARK  Name = 
REMARK  2 active torsions:
REMARK  status: ('A' for Active; 'I' for Inactive)
REMARK    1  A    between atoms: C_1  and  N_2
REMARK    2  A    between atoms: C_7  and  C_9
REMARK                            x       y       z     vdW  Elec       q    Type
REMARK                         _______ _______ _______ _____ _____    ______ ____
ROOT
ATOM      1  C   UNL     1       8.160   4.491  17.641  0.00  0.00    +0.000 C 
ATOM      2  N   UNL     1       6.859   4.707  17.010  0.00  0.00    +0.000 NA
ATOM      3  C   UNL     1       6.696   6.100  16.568  0.00  0.00    +0.000 C 
ATOM      4  C   UNL     1       5.265   6.530  16.195  0.00  0.00    +0.000 C 
ATOM      5  C   UNL     1       4.415   6.979  17.395  0.00  0.00    +0.000 C 
ATOM      6  N   UNL     1       4.059   5.900  18.323  0.00  0.00    +0.000 N 
ATOM      7  C   UNL     1       2.695   5.571  18.484  0.00  0.00    +0.000 C 
ATOM      8  O   UNL     1       1.812   6.170  17.878  0.00  0.00    +0.000 OA
ATOM      9  C   UNL     1       5.202   5.185  18.896  0.00  0.00    +0.000 C 
ATOM     10  C   UNL     1       5.778   4.198  17.857  0.00  0.00    +0.000 C 
ENDROOT
BRANCH   7  11
ATOM     11  C   UNL     1       2.277   4.463  19.413  0.00  0.00    +0.000 A 
ATOM     12  C   UNL     1       2.113   4.720  20.784  0.00  0.00    +0.000 A 
ATOM     13  C   UNL     1       1.571   3.769  21.645  0.00  0.00    +0.000 A 
ATOM     14  C   UNL     1       1.306   2.495  21.179  0.00  0.00    +0.000 A 
ATOM     15  C   UNL     1       1.599   2.165  19.862  0.00  0.00    +0.000 A 
ATOM     16  C   UNL     1       2.073   3.149  18.970  0.00  0.00    +0.000 A 
ATOM     17 CL   UNL     1       2.369   2.617  17.348  0.00  0.00    +0.000 Cl
ENDBRANCH   7  11
TORSDOF 1
ENDMDL
