MODEL 1
REMARK VINA RESULT:      -6.5      0.000      0.000
REMARK  Name = 
REMARK  6 active torsions:
REMARK  status: ('A' for Active; 'I' for Inactive)
REMARK    1  A    between atoms: C_1  and  O_2
REMARK    2  A    between atoms: O_2  and  C_3
REMARK    3  A    between atoms: C_6  and  C_7
REMARK    4  A    between atoms: C_7  and  C_9
REMARK    5  A    between atoms: C_9  and  N_10
REMARK    6  A    between atoms: C_13  and  C_14
REMARK                            x       y       z     vdW  Elec       q    Type
REMARK                         _______ _______ _______ _____ _____    ______ ____
ROOT
ATOM      1  C   UNL     1       6.240   5.469  19.228  0.00  0.00    +0.000 C 
ATOM      2  O   UNL     1       7.059   5.138  20.084  0.00  0.00    +0.000 OA
ENDROOT
BRANCH   1   6
ATOM      3  C   UNL     1       2.231   3.976  19.542  0.00  0.00    +0.000 A 
ATOM      4  C   UNL     1       3.315   3.105  19.420  0.00  0.00    +0.000 A 
ATOM      5  C   UNL     1       4.616   3.604  19.321  0.00  0.00    +0.000 A 
ATOM      6  C   UNL     1       4.841   4.985  19.338  0.00  0.00    +0.000 A 
ATOM      7  C   UNL     1       3.753   5.860  19.419  0.00  0.00    +0.000 A 
ATOM      8  C   UNL     1       2.451   5.353  19.524  0.00  0.00    +0.000 A 
BRANCH   3  10
ATOM      9  C   UNL     1       0.797   2.271  18.743  0.00  0.00    +0.000 C 
ATOM     10  O   UNL     1       1.006   3.377  19.615  0.00  0.00    +0.000 OA
ENDBRANCH   3  10
ENDBRANCH   1   6
BRANCH   1  11
ATOM     11  C   UNL     1       6.641   6.366  18.079  0.00  0.00    +0.000 C 
BRANCH  11  12
ATOM     12  N   UNL     1       6.412   5.703  16.773  0.00  0.00    +0.000 N 
ATOM     13  C   UNL     1       5.502   6.212  15.908  0.00  0.00    +0.000 A 
ATOM     14  C   UNL     1       5.233   5.573  14.704  0.00  0.00    +0.000 A 
ATOM     15  C   UNL     1       5.901   4.397  14.377  0.00  0.00    +0.000 A 
ATOM     16  C   UNL     1       5.596   3.650  13.111  0.00  0.00    +0.000 C 
ATOM     17  C   UNL     1       6.867   3.916  15.258  0.00  0.00    +0.000 A 
ATOM     18  C   UNL     1       7.116   4.591  16.448  0.00  0.00    +0.000 A 
ENDBRANCH  11  12
ENDBRANCH   1  11
TORSDOF 4
ENDMDL
MODEL 2
REMARK VINA RESULT:      -6.4      2.412      4.082
REMARK  Name = 
REMARK  6 active torsions:
REMARK  status: ('A' for Active; 'I' for Inactive)
REMARK    1  A    between atoms: C_1  and  O_2
REMARK    2  A    between atoms: O_2  and  C_3
REMARK    3  A    between atoms: C_6  and  C_7
REMARK    4  A    between atoms: C_7  and  C_9
REMARK    5  A    between atoms: C_9  and  N_10
REMARK    6  A    between atoms: C_13  and  C_14
REMARK                            x       y       z     vdW  Elec       q    Type
REMARK                         _______ _______ _______ _____ _____    ______ ____
ROOT
ATOM      1  C   UNL     1       2.839   3.920  17.715  0.00  0.00    +0.000 C 
ATOM      2  O   UNL     1       1.971   3.415  17.002  0.00  0.00    +0.000 OA
ENDROOT
BRANCH   1   6
ATOM      3  C   UNL     1       1.790   7.172  20.307  0.00  0.00    +0.000 A 
ATOM      4  C   UNL     1       1.689   5.849  20.737  0.00  0.00    +0.000 A 
ATOM      5  C   UNL     1       2.036   4.799  19.884  0.00  0.00    +0.000 A 
ATOM      6  C   UNL     1       2.484   5.068  18.586  0.00  0.00    +0.000 A 
ATOM      7  C   UNL     1       2.547   6.392  18.139  0.00  0.00    +0.000 A 
ATOM      8  C   UNL     1       2.203   7.440  19.002  0.00  0.00    +0.000 A 
BRANCH   3  10
ATOM      9  C   UNL     1       0.926   9.343  20.686  0.00  0.00    +0.000 C 
ATOM     10  O   UNL     1       1.409   8.114  21.219  0.00  0.00    +0.000 OA
ENDBRANCH   3  10
ENDBRANCH   1   6
BRANCH   1  11
ATOM     11  C   UNL     1       4.249   3.375  17.718  0.00  0.00    +0.000 C 
BRANCH  11  12
ATOM     12  N   UNL     1       5.248   4.471  17.703  0.00  0.00    +0.000 N 
ATOM     13  C   UNL     1       5.968   4.743  18.817  0.00  0.00    +0.000 A 
ATOM     14  C   UNL     1       6.868   5.801  18.839  0.00  0.00    +0.000 A 
ATOM     15  C   UNL     1       7.037   6.593  17.708  0.00  0.00    +0.000 A 
ATOM     16  C   UNL     1       7.959   7.778  17.712  0.00  0.00    +0.000 C 
ATOM     17  C   UNL     1       6.322   6.268  16.557  0.00  0.00    +0.000 A 
ATOM     18  C   UNL     1       5.439   5.193  16.572  0.00  0.00    +0.000 A 
ENDBRANCH  11  12
ENDBRANCH   1  11
TORSDOF 4
ENDMDL
MODEL 3
REMARK VINA RESULT:      -6.4      0.317      1.161
REMARK  Name = 
REMARK  6 active torsions:
REMARK  status: ('A' for Active; 'I' for Inactive)
REMARK    1  A    between atoms: C_1  and  O_2
REMARK    2  A    between atoms: O_2  and  C_3
REMARK    3  A    between atoms: C_6  and  C_7
REMARK    4  A    between atoms: C_7  and  C_9
REMARK    5  A    between atoms: C_9  and  N_10
REMARK    6  A    between atoms: C_13  and  C_14
REMARK                            x       y       z     vdW  Elec       q    Type
REMARK                         _______ _______ _______ _____ _____    ______ ____
ROOT
ATOM      1  C   UNL     1       6.337   5.498  19.258  0.00  0.00    +0.000 C 
ATOM      2  O   UNL     1       7.208   5.316  20.108  0.00  0.00    +0.000 OA
ENDROOT
BRANCH   1   6
ATOM      3  C   UNL     1       2.538   3.572  19.761  0.00  0.00    +0.000 A 
ATOM      4  C   UNL     1       3.707   2.826  19.603  0.00  0.00    +0.000 A 
ATOM      5  C   UNL     1       4.938   3.466  19.443  0.00  0.00    +0.000 A 
ATOM      6  C   UNL     1       5.007   4.863  19.434  0.00  0.00    +0.000 A 
ATOM      7  C   UNL     1       3.832   5.612  19.551  0.00  0.00    +0.000 A 
ATOM      8  C   UNL     1       2.601   4.964  19.718  0.00  0.00    +0.000 A 
BRANCH   3  10
ATOM      9  C   UNL     1       0.744   2.468  18.682  0.00  0.00    +0.000 C 
ATOM     10  O   UNL     1       1.392   2.841  19.893  0.00  0.00    +0.000 OA
ENDBRANCH   3  10
ENDBRANCH   1   6
BRANCH   1  11
ATOM     11  C   UNL     1       6.606   6.367  18.051  0.00  0.00    +0.000 C 
BRANCH  11  12
ATOM     12  N   UNL     1       6.350   5.631  16.790  0.00  0.00    +0.000 N 
ATOM     13  C   UNL     1       7.075   4.526  16.494  0.00  0.00    +0.000 A 
ATOM     14  C   UNL     1       6.889   3.854  15.293  0.00  0.00    +0.000 A 
ATOM     15  C   UNL     1       5.946   4.316  14.379  0.00  0.00    +0.000 A 
ATOM     16  C   UNL     1       5.755   3.649  13.047  0.00  0.00    +0.000 C 
ATOM     17  C   UNL     1       5.176   5.425  14.722  0.00  0.00    +0.000 A 
ATOM     18  C   UNL     1       5.386   6.062  15.941  0.00  0.00    +0.000 A 
ENDBRANCH  11  12
ENDBRANCH   1  11
TORSDOF 4
ENDMDL
MODEL 4
REMARK VINA RESULT:      -6.3      2.404      4.209
REMARK  Name = 
REMARK  6 active torsions:
REMARK  status: ('A' for Active; 'I' for Inactive)
REMARK    1  A    between atoms: C_1  and  O_2
REMARK    2  A    between atoms: O_2  and  C_3
REMARK    3  A    between atoms: C_6  and  C_7
REMARK    4  A    between atoms: C_7  and  C_9
REMARK    5  A    between atoms: C_9  and  N_10
REMARK    6  A    between atoms: C_13  and  C_14
REMARK                            x       y       z     vdW  Elec       q    Type
REMARK                         _______ _______ _______ _____ _____    ______ ____
ROOT
ATOM      1  C   UNL     1       2.840   3.881  17.799  0.00  0.00    +0.000 C 
ATOM      2  O   UNL     1       1.972   3.382  17.085  0.00  0.00    +0.000 OA
ENDROOT
BRANCH   1   6
ATOM      3  C   UNL     1       1.864   7.295  20.206  0.00  0.00    +0.000 A 
ATOM      4  C   UNL     1       2.315   7.445  18.894  0.00  0.00    +0.000 A 
ATOM      5  C   UNL     1       2.626   6.325  18.119  0.00  0.00    +0.000 A 
ATOM      6  C   UNL     1       2.495   5.040  18.659  0.00  0.00    +0.000 A 
ATOM      7  C   UNL     1       2.083   4.889  19.986  0.00  0.00    +0.000 A 
ATOM      8  C   UNL     1       1.766   6.017  20.755  0.00  0.00    +0.000 A 
BRANCH   3  10
ATOM      9  C   UNL     1       0.933   9.469  20.128  0.00  0.00    +0.000 C 
ATOM     10  O   UNL     1       1.605   8.458  20.872  0.00  0.00    +0.000 OA
ENDBRANCH   3  10
ENDBRANCH   1   6
BRANCH   1  11
ATOM     11  C   UNL     1       4.244   3.318  17.817  0.00  0.00    +0.000 C 
BRANCH  11  12
ATOM     12  N   UNL     1       5.256   4.401  17.844  0.00  0.00    +0.000 N 
ATOM     13  C   UNL     1       5.874   4.719  19.006  0.00  0.00    +0.000 A 
ATOM     14  C   UNL     1       6.785   5.767  19.063  0.00  0.00    +0.000 A 
ATOM     15  C   UNL     1       7.069   6.502  17.916  0.00  0.00    +0.000 A 
ATOM     16  C   UNL     1       8.005   7.676  17.951  0.00  0.00    +0.000 C 
ATOM     17  C   UNL     1       6.459   6.129  16.720  0.00  0.00    +0.000 A 
ATOM     18  C   UNL     1       5.563   5.066  16.703  0.00  0.00    +0.000 A 
ENDBRANCH  11  12
ENDBRANCH   1  11
TORSDOF 4
ENDMDL
MODEL 5
REMARK VINA RESULT:      -6.2      2.344      5.477
REMARK  Name = 
REMARK  6 active torsions:
REMARK  status: ('A' for Active; 'I' for Inactive)
REMARK    1  A    between atoms: C_1  and  O_2
REMARK    2  A    between atoms: O_2  and  C_3
REMARK    3  A    between atoms: C_6  and  C_7
REMARK    4  A    between atoms: C_7  and  C_9
REMARK    5  A    between atoms: C_9  and  N_10
REMARK    6  A    between atoms: C_13  and  C_14
REMARK                            x       y       z     vdW  Elec       q    Type
REMARK                         _______ _______ _______ _____ _____    ______ ____
ROOT
ATOM      1  C   UNL     1       6.780   4.884  17.586  0.00  0.00    +0.000 C 
ATOM      2  O   UNL     1       7.745   4.439  18.207  0.00  0.00    +0.000 OA
ENDROOT
BRANCH   1   6
ATOM      3  C   UNL     1       6.355   3.997  13.411  0.00  0.00    +0.000 A 
ATOM      4  C   UNL     1       5.567   3.354  14.366  0.00  0.00    +0.000 A 
ATOM      5  C   UNL     1       5.713   3.655  15.722  0.00  0.00    +0.000 A 
ATOM      6  C   UNL     1       6.659   4.601  16.134  0.00  0.00    +0.000 A 
ATOM      7  C   UNL     1       7.478   5.215  15.182  0.00  0.00    +0.000 A 
ATOM      8  C   UNL     1       7.322   4.914  13.823  0.00  0.00    +0.000 A 
BRANCH   3  10
ATOM      9  C   UNL     1       4.798   3.259  11.789  0.00  0.00    +0.000 C 
ATOM     10  O   UNL     1       6.137   3.612  12.119  0.00  0.00    +0.000 OA
ENDBRANCH   3  10
ENDBRANCH   1   6
BRANCH   1  11
ATOM     11  C   UNL     1       5.720   5.702  18.287  0.00  0.00    +0.000 C 
BRANCH  11  12
ATOM     12  N   UNL     1       4.474   4.921  18.472  0.00  0.00    +0.000 N 
ATOM     13  C   UNL     1       3.333   5.315  17.858  0.00  0.00    +0.000 A 
ATOM     14  C   UNL     1       2.142   4.629  18.063  0.00  0.00    +0.000 A 
ATOM     15  C   UNL     1       2.115   3.523  18.907  0.00  0.00    +0.000 A 
ATOM     16  C   UNL     1       0.837   2.790  19.197  0.00  0.00    +0.000 C 
ATOM     17  C   UNL     1       3.308   3.105  19.492  0.00  0.00    +0.000 A 
ATOM     18  C   UNL     1       4.482   3.812  19.252  0.00  0.00    +0.000 A 
ENDBRANCH  11  12
ENDBRANCH   1  11
TORSDOF 4
ENDMDL
MODEL 6
REMARK VINA RESULT:      -6.2      2.292      5.498
REMARK  Name = 
REMARK  6 active torsions:
REMARK  status: ('A' for Active; 'I' for Inactive)
REMARK    1  A    between atoms: C_1  and  O_2
REMARK    2  A    between atoms: O_2  and  C_3
REMARK    3  A    between atoms: C_6  and  C_7
REMARK    4  A    between atoms: C_7  and  C_9
REMARK    5  A    between atoms: C_9  and  N_10
REMARK    6  A    between atoms: C_13  and  C_14
REMARK                            x       y       z     vdW  Elec       q    Type
REMARK                         _______ _______ _______ _____ _____    ______ ____
ROOT
ATOM      1  C   UNL     1       6.592   4.873  17.910  0.00  0.00    +0.000 C 
ATOM      2  O   UNL     1       7.588   4.522  18.543  0.00  0.00    +0.000 OA
ENDROOT
BRANCH   1   6
ATOM      3  C   UNL     1       6.420   4.048  13.704  0.00  0.00    +0.000 A 
ATOM      4  C   UNL     1       7.293   5.011  14.213  0.00  0.00    +0.000 A 
ATOM      5  C   UNL     1       7.342   5.267  15.585  0.00  0.00    +0.000 A 
ATOM      6  C   UNL     1       6.507   4.563  16.461  0.00  0.00    +0.000 A 
ATOM      7  C   UNL     1       5.603   3.628  15.949  0.00  0.00    +0.000 A 
ATOM      8  C   UNL     1       5.564   3.371  14.572  0.00  0.00    +0.000 A 
BRANCH   3  10
ATOM      9  C   UNL     1       5.643   2.844  11.821  0.00  0.00    +0.000 C 
ATOM     10  O   UNL     1       6.447   3.894  12.348  0.00  0.00    +0.000 OA
ENDBRANCH   3  10
ENDBRANCH   1   6
BRANCH   1  11
ATOM     11  C   UNL     1       5.458   5.600  18.596  0.00  0.00    +0.000 C 
BRANCH  11  12
ATOM     12  N   UNL     1       4.229   4.771  18.627  0.00  0.00    +0.000 N 
ATOM     13  C   UNL     1       3.115   5.190  17.980  0.00  0.00    +0.000 A 
ATOM     14  C   UNL     1       1.938   4.455  18.043  0.00  0.00    +0.000 A 
ATOM     15  C   UNL     1       1.896   3.274  18.777  0.00  0.00    +0.000 A 
ATOM     16  C   UNL     1       0.628   2.482  18.915  0.00  0.00    +0.000 C 
ATOM     17  C   UNL     1       3.064   2.835  19.396  0.00  0.00    +0.000 A 
ATOM     18  C   UNL     1       4.226   3.593  19.298  0.00  0.00    +0.000 A 
ENDBRANCH  11  12
ENDBRANCH   1  11
TORSDOF 4
ENDMDL
MODEL 7
REMARK VINA RESULT:      -6.2      2.468      6.008
REMARK  Name = 
REMARK  6 active torsions:
REMARK  status: ('A' for Active; 'I' for Inactive)
REMARK    1  A    between atoms: C_1  and  O_2
REMARK    2  A    between atoms: O_2  and  C_3
REMARK    3  A    between atoms: C_6  and  C_7
REMARK    4  A    between atoms: C_7  and  C_9
REMARK    5  A    between atoms: C_9  and  N_10
REMARK    6  A    between atoms: C_13  and  C_14
REMARK                            x       y       z     vdW  Elec       q    Type
REMARK                         _______ _______ _______ _____ _____    ______ ____
ROOT
ATOM      1  C   UNL     1       4.404   3.465  18.816  0.00  0.00    +0.000 C 
ATOM      2  O   UNL     1       4.881   2.880  19.788  0.00  0.00    +0.000 OA
ENDROOT
BRANCH   1   6
ATOM      3  C   UNL     1       6.970   4.967  15.725  0.00  0.00    +0.000 A 
ATOM      4  C   UNL     1       5.789   4.292  15.414  0.00  0.00    +0.000 A 
ATOM      5  C   UNL     1       4.960   3.811  16.430  0.00  0.00    +0.000 A 
ATOM      6  C   UNL     1       5.314   3.997  17.772  0.00  0.00    +0.000 A 
ATOM      7  C   UNL     1       6.517   4.637  18.085  0.00  0.00    +0.000 A 
ATOM      8  C   UNL     1       7.340   5.122  17.061  0.00  0.00    +0.000 A 
BRANCH   3  10
ATOM      9  C   UNL     1       7.282   4.902  13.380  0.00  0.00    +0.000 C 
ATOM     10  O   UNL     1       7.708   5.378  14.653  0.00  0.00    +0.000 OA
ENDBRANCH   3  10
ENDBRANCH   1   6
BRANCH   1  11
ATOM     11  C   UNL     1       2.908   3.635  18.674  0.00  0.00    +0.000 C 
BRANCH  11  12
ATOM     12  N   UNL     1       2.460   4.937  19.221  0.00  0.00    +0.000 N 
ATOM     13  C   UNL     1       2.708   6.079  18.536  0.00  0.00    +0.000 A 
ATOM     14  C   UNL     1       2.346   7.314  19.058  0.00  0.00    +0.000 A 
ATOM     15  C   UNL     1       1.722   7.387  20.299  0.00  0.00    +0.000 A 
ATOM     16  C   UNL     1       1.366   8.706  20.921  0.00  0.00    +0.000 C 
ATOM     17  C   UNL     1       1.432   6.199  20.967  0.00  0.00    +0.000 A 
ATOM     18  C   UNL     1       1.800   4.981  20.404  0.00  0.00    +0.000 A 
ENDBRANCH  11  12
ENDBRANCH   1  11
TORSDOF 4
ENDMDL
MODEL 8
REMARK VINA RESULT:      -6.2      2.274      5.540
REMARK  Name = 
REMARK  6 active torsions:
REMARK  status: ('A' for Active; 'I' for Inactive)
REMARK    1  A    between atoms: C_1  and  O_2
REMARK    2  A    between atoms: O_2  and  C_3
REMARK    3  A    between atoms: C_6  and  C_7
REMARK    4  A    between atoms: C_7  and  C_9
REMARK    5  A    between atoms: C_9  and  N_10
REMARK    6  A    between atoms: C_13  and  C_14
REMARK                            x       y       z     vdW  Elec       q    Type
REMARK                         _______ _______ _______ _____ _____    ______ ____
ROOT
ATOM      1  C   UNL     1       6.268   4.995  17.999  0.00  0.00    +0.000 C 
ATOM      2  O   UNL     1       7.173   4.613  18.740  0.00  0.00    +0.000 OA
ENDROOT
BRANCH   1   6
ATOM      3  C   UNL     1       6.416   4.056  13.817  0.00  0.00    +0.000 A 
ATOM      4  C   UNL     1       5.567   3.361  14.680  0.00  0.00    +0.000 A 
ATOM      5  C   UNL     1       5.526   3.679  16.040  0.00  0.00    +0.000 A 
ATOM      6  C   UNL     1       6.344   4.695  16.548  0.00  0.00    +0.000 A 
ATOM      7  C   UNL     1       7.224   5.364  15.692  0.00  0.00    +0.000 A 
ATOM      8  C   UNL     1       7.255   5.044  14.328  0.00  0.00    +0.000 A 
BRANCH   3  10
ATOM      9  C   UNL     1       5.095   3.363  11.979  0.00  0.00    +0.000 C 
ATOM     10  O   UNL     1       6.383   3.649  12.514  0.00  0.00    +0.000 OA
ENDBRANCH   3  10
ENDBRANCH   1   6
BRANCH   1  11
ATOM     11  C   UNL     1       5.084   5.753  18.554  0.00  0.00    +0.000 C 
BRANCH  11  12
ATOM     12  N   UNL     1       3.897   4.874  18.684  0.00  0.00    +0.000 N 
ATOM     13  C   UNL     1       3.957   3.770  19.468  0.00  0.00    +0.000 A 
ATOM     14  C   UNL     1       2.875   2.904  19.558  0.00  0.00    +0.000 A 
ATOM     15  C   UNL     1       1.713   3.167  18.839  0.00  0.00    +0.000 A 
ATOM     16  C   UNL     1       0.544   2.226  18.869  0.00  0.00    +0.000 C 
ATOM     17  C   UNL     1       1.653   4.332  18.077  0.00  0.00    +0.000 A 
ATOM     18  C   UNL     1       2.755   5.180  18.022  0.00  0.00    +0.000 A 
ENDBRANCH  11  12
ENDBRANCH   1  11
TORSDOF 4
ENDMDL
MODEL 9
REMARK VINA RESULT:      -6.1      2.323      5.599
REMARK  Name = 
REMARK  6 active torsions:
REMARK  status: ('A' for Active; 'I' for Inactive)
REMARK    1  A    between atoms: C_1  and  O_2
REMARK    2  A    between atoms: O_2  and  C_3
REMARK    3  A    between atoms: C_6  and  C_7
REMARK    4  A    between atoms: C_7  and  C_9
REMARK    5  A    between atoms: C_9  and  N_10
REMARK    6  A    between atoms: C_13  and  C_14
REMARK                            x       y       z     vdW  Elec       q    Type
REMARK                         _______ _______ _______ _____ _____    ______ ____
ROOT
ATOM      1  C   UNL     1       6.547   4.825  17.829  0.00  0.00    +0.000 C 
ATOM      2  O   UNL     1       7.541   4.415  18.428  0.00  0.00    +0.000 OA
ENDROOT
BRANCH   1   6
ATOM      3  C   UNL     1       6.201   4.037  13.627  0.00  0.00    +0.000 A 
ATOM      4  C   UNL     1       7.203   4.872  14.122  0.00  0.00    +0.000 A 
ATOM      5  C   UNL     1       7.307   5.118  15.493  0.00  0.00    +0.000 A 
ATOM      6  C   UNL     1       6.399   4.532  16.382  0.00  0.00    +0.000 A 
ATOM      7  C   UNL     1       5.369   3.728  15.884  0.00  0.00    +0.000 A 
ATOM      8  C   UNL     1       5.274   3.480  14.509  0.00  0.00    +0.000 A 
BRANCH   3  10
ATOM      9  C   UNL     1       5.949   2.561  11.795  0.00  0.00    +0.000 C 
ATOM     10  O   UNL     1       6.186   3.881  12.271  0.00  0.00    +0.000 OA
ENDBRANCH   3  10
ENDBRANCH   1   6
BRANCH   1  11
ATOM     11  C   UNL     1       5.477   5.610  18.555  0.00  0.00    +0.000 C 
BRANCH  11  12
ATOM     12  N   UNL     1       4.224   4.826  18.675  0.00  0.00    +0.000 N 
ATOM     13  C   UNL     1       4.218   3.665  19.373  0.00  0.00    +0.000 A 
ATOM     14  C   UNL     1       3.069   2.888  19.450  0.00  0.00    +0.000 A 
ATOM     15  C   UNL     1       1.907   3.302  18.805  0.00  0.00    +0.000 A 
ATOM     16  C   UNL     1       0.663   2.462  18.819  0.00  0.00    +0.000 C 
ATOM     17  C   UNL     1       1.920   4.522  18.132  0.00  0.00    +0.000 A 
ATOM     18  C   UNL     1       3.088   5.276  18.089  0.00  0.00    +0.000 A 
ENDBRANCH  11  12
ENDBRANCH   1  11
TORSDOF 4
ENDMDL
