MODEL 1
REMARK VINA RESULT:      -7.7      0.000      0.000
REMARK  Name = 
REMARK  5 active torsions:
REMARK  status: ('A' for Active; 'I' for Inactive)
REMARK    1  A    between atoms: C_1  and  C_2
REMARK    2  A    between atoms: C_2  and  O_3
REMARK    3  A    between atoms: C_2  and  C_17
REMARK    4  A    between atoms: O_3  and  C_4
REMARK    5  A    between atoms: C_6  and  C_7
REMARK                            x       y       z     vdW  Elec       q    Type
REMARK                         _______ _______ _______ _____ _____    ______ ____
ROOT
ATOM      1  C   UNL     1       4.670   4.236  17.138  0.00  0.00    +0.000 A 
ATOM      2  N   UNL     1       4.542   4.088  15.800  0.00  0.00    +0.000 NA
ATOM      3  C   UNL     1       5.509   4.607  15.006  0.00  0.00    +0.000 A 
ATOM      4  C   UNL     1       6.559   5.348  15.544  0.00  0.00    +0.000 A 
ATOM      5  C   UNL     1       6.695   5.499  16.905  0.00  0.00    +0.000 A 
ATOM      6  N   UNL     1       7.743   6.206  17.366  0.00  0.00    +0.000 NA
ATOM      7  C   UNL     1       7.919   6.288  18.702  0.00  0.00    +0.000 A 
ATOM      8  C   UNL     1       7.103   5.654  19.620  0.00  0.00    +0.000 A 
ATOM      9  C   UNL     1       6.009   4.943  19.137  0.00  0.00    +0.000 A 
ATOM     10  C   UNL     1       5.760   4.881  17.746  0.00  0.00    +0.000 A 
ENDROOT
BRANCH   3  11
ATOM     11  C   UNL     1       5.510   4.310  13.525  0.00  0.00    +0.000 C 
ATOM     12  C   UNL     1       6.774   4.361  12.706  0.00  0.00    +0.000 C 
ATOM     13  C   UNL     1       6.140   3.036  13.012  0.00  0.00    +0.000 C 
ENDBRANCH   3  11
BRANCH   1  14
ATOM     14  O   UNL     1       3.671   3.752  17.973  0.00  0.00    +0.000 OA
BRANCH  14  16
ATOM     15  C   UNL     1       2.415   5.787  18.402  0.00  0.00    +0.000 C 
ATOM     16  C   UNL     1       2.376   4.358  17.854  0.00  0.00    +0.000 C 
BRANCH  16  17
ATOM     17  C   UNL     1       1.312   3.506  18.602  0.00  0.00    +0.000 C 
ATOM     18  C   UNL     1       1.812   2.083  18.856  0.00  0.00    +0.000 C 
ATOM     19  N   UNL     1       2.377   2.139  20.169  0.00  0.00    +0.000 N 
ATOM     20  C   UNL     1       1.914   3.213  20.895  0.00  0.00    +0.000 C 
ATOM     21  O   UNL     1       2.188   3.448  22.056  0.00  0.00    +0.000 OA
ATOM     22  C   UNL     1       0.958   3.979  20.021  0.00  0.00    +0.000 C 
ATOM     23  H   UNL     1       2.982   1.441  20.591  0.00  0.00    +0.000 HD
ENDBRANCH  16  17
ENDBRANCH  14  16
ENDBRANCH   1  14
TORSDOF 4
ENDMDL
MODEL 2
REMARK VINA RESULT:      -7.6      2.681      6.522
REMARK  Name = 
REMARK  5 active torsions:
REMARK  status: ('A' for Active; 'I' for Inactive)
REMARK    1  A    between atoms: C_1  and  C_2
REMARK    2  A    between atoms: C_2  and  O_3
REMARK    3  A    between atoms: C_2  and  C_17
REMARK    4  A    between atoms: O_3  and  C_4
REMARK    5  A    between atoms: C_6  and  C_7
REMARK                            x       y       z     vdW  Elec       q    Type
REMARK                         _______ _______ _______ _____ _____    ______ ____
ROOT
ATOM      1  C   UNL     1       3.179   6.012  18.475  0.00  0.00    +0.000 A 
ATOM      2  N   UNL     1       2.950   4.959  19.293  0.00  0.00    +0.000 NA
ATOM      3  C   UNL     1       2.102   5.135  20.335  0.00  0.00    +0.000 A 
ATOM      4  C   UNL     1       1.551   6.384  20.610  0.00  0.00    +0.000 A 
ATOM      5  C   UNL     1       1.779   7.457  19.779  0.00  0.00    +0.000 A 
ATOM      6  N   UNL     1       1.199   8.633  20.084  0.00  0.00    +0.000 NA
ATOM      7  C   UNL     1       1.360   9.664  19.228  0.00  0.00    +0.000 A 
ATOM      8  C   UNL     1       2.055   9.567  18.038  0.00  0.00    +0.000 A 
ATOM      9  C   UNL     1       2.670   8.354  17.739  0.00  0.00    +0.000 A 
ATOM     10  C   UNL     1       2.570   7.268  18.639  0.00  0.00    +0.000 A 
ENDROOT
BRANCH   3  11
ATOM     11  C   UNL     1       1.670   3.949  21.164  0.00  0.00    +0.000 C 
ATOM     12  C   UNL     1       1.508   2.576  20.564  0.00  0.00    +0.000 C 
ATOM     13  C   UNL     1       2.659   2.853  21.487  0.00  0.00    +0.000 C 
ENDBRANCH   3  11
BRANCH   1  14
ATOM     14  O   UNL     1       4.078   5.873  17.426  0.00  0.00    +0.000 OA
BRANCH  14  16
ATOM     15  C   UNL     1       6.219   7.008  17.260  0.00  0.00    +0.000 C 
ATOM     16  C   UNL     1       5.467   5.776  17.770  0.00  0.00    +0.000 C 
BRANCH  16  17
ATOM     17  C   UNL     1       6.077   4.471  17.182  0.00  0.00    +0.000 C 
ATOM     18  C   UNL     1       5.164   3.854  16.123  0.00  0.00    +0.000 C 
ATOM     19  N   UNL     1       5.651   4.383  14.887  0.00  0.00    +0.000 N 
ATOM     20  C   UNL     1       6.943   4.849  14.989  0.00  0.00    +0.000 C 
ATOM     21  O   UNL     1       7.607   5.286  14.068  0.00  0.00    +0.000 OA
ATOM     22  C   UNL     1       7.394   4.641  16.409  0.00  0.00    +0.000 C 
ATOM     23  H   UNL     1       5.171   4.357  13.993  0.00  0.00    +0.000 HD
ENDBRANCH  16  17
ENDBRANCH  14  16
ENDBRANCH   1  14
TORSDOF 4
ENDMDL
MODEL 3
REMARK VINA RESULT:      -7.5      1.885      5.984
REMARK  Name = 
REMARK  5 active torsions:
REMARK  status: ('A' for Active; 'I' for Inactive)
REMARK    1  A    between atoms: C_1  and  C_2
REMARK    2  A    between atoms: C_2  and  O_3
REMARK    3  A    between atoms: C_2  and  C_17
REMARK    4  A    between atoms: O_3  and  C_4
REMARK    5  A    between atoms: C_6  and  C_7
REMARK                            x       y       z     vdW  Elec       q    Type
REMARK                         _______ _______ _______ _____ _____    ______ ____
ROOT
ATOM      1  C   UNL     1       4.104   4.670  17.348  0.00  0.00    +0.000 A 
ATOM      2  N   UNL     1       3.976   6.016  17.354  0.00  0.00    +0.000 NA
ATOM      3  C   UNL     1       2.874   6.549  17.936  0.00  0.00    +0.000 A 
ATOM      4  C   UNL     1       1.860   5.735  18.434  0.00  0.00    +0.000 A 
ATOM      5  C   UNL     1       1.988   4.364  18.433  0.00  0.00    +0.000 A 
ATOM      6  N   UNL     1       0.985   3.631  18.950  0.00  0.00    +0.000 NA
ATOM      7  C   UNL     1       1.143   2.291  19.019  0.00  0.00    +0.000 A 
ATOM      8  C   UNL     1       2.295   1.638  18.623  0.00  0.00    +0.000 A 
ATOM      9  C   UNL     1       3.319   2.401  18.069  0.00  0.00    +0.000 A 
ATOM     10  C   UNL     1       3.167   3.799  17.929  0.00  0.00    +0.000 A 
ENDROOT
BRANCH   3  11
ATOM     11  C   UNL     1       2.772   8.042  18.134  0.00  0.00    +0.000 C 
ATOM     12  C   UNL     1       1.558   8.821  17.696  0.00  0.00    +0.000 C 
ATOM     13  C   UNL     1       1.815   8.604  19.159  0.00  0.00    +0.000 C 
ENDBRANCH   3  11
BRANCH   1  14
ATOM     14  O   UNL     1       5.202   4.096  16.720  0.00  0.00    +0.000 OA
BRANCH  14  16
ATOM     15  C   UNL     1       6.051   4.208  14.447  0.00  0.00    +0.000 C 
ATOM     16  C   UNL     1       5.925   4.921  15.796  0.00  0.00    +0.000 C 
BRANCH  16  17
ATOM     17  C   UNL     1       7.328   5.270  16.371  0.00  0.00    +0.000 C 
ATOM     18  C   UNL     1       7.418   6.744  16.770  0.00  0.00    +0.000 C 
ATOM     19  N   UNL     1       7.083   6.753  18.160  0.00  0.00    +0.000 N 
ATOM     20  C   UNL     1       7.237   5.516  18.745  0.00  0.00    +0.000 C 
ATOM     21  O   UNL     1       7.082   5.273  19.927  0.00  0.00    +0.000 OA
ATOM     22  C   UNL     1       7.706   4.561  17.681  0.00  0.00    +0.000 C 
ATOM     23  H   UNL     1       6.843   7.569  18.713  0.00  0.00    +0.000 HD
ENDBRANCH  16  17
ENDBRANCH  14  16
ENDBRANCH   1  14
TORSDOF 4
ENDMDL
MODEL 4
REMARK VINA RESULT:      -7.4      0.951      1.255
REMARK  Name = 
REMARK  5 active torsions:
REMARK  status: ('A' for Active; 'I' for Inactive)
REMARK    1  A    between atoms: C_1  and  C_2
REMARK    2  A    between atoms: C_2  and  O_3
REMARK    3  A    between atoms: C_2  and  C_17
REMARK    4  A    between atoms: O_3  and  C_4
REMARK    5  A    between atoms: C_6  and  C_7
REMARK                            x       y       z     vdW  Elec       q    Type
REMARK                         _______ _______ _______ _____ _____    ______ ____
ROOT
ATOM      1  C   UNL     1       4.530   4.442  16.610  0.00  0.00    +0.000 A 
ATOM      2  N   UNL     1       4.707   4.021  15.337  0.00  0.00    +0.000 NA
ATOM      3  C   UNL     1       5.971   3.979  14.850  0.00  0.00    +0.000 A 
ATOM      4  C   UNL     1       7.047   4.438  15.605  0.00  0.00    +0.000 A 
ATOM      5  C   UNL     1       6.872   4.865  16.902  0.00  0.00    +0.000 A 
ATOM      6  N   UNL     1       7.955   5.274  17.589  0.00  0.00    +0.000 NA
ATOM      7  C   UNL     1       7.795   5.620  18.884  0.00  0.00    +0.000 A 
ATOM      8  C   UNL     1       6.588   5.538  19.552  0.00  0.00    +0.000 A 
ATOM      9  C   UNL     1       5.469   5.134  18.830  0.00  0.00    +0.000 A 
ATOM     10  C   UNL     1       5.587   4.818  17.457  0.00  0.00    +0.000 A 
ENDROOT
BRANCH   3  11
ATOM     11  C   UNL     1       6.241   3.344  13.507  0.00  0.00    +0.000 C 
ATOM     12  C   UNL     1       5.306   3.528  12.338  0.00  0.00    +0.000 C 
ATOM     13  C   UNL     1       6.646   4.206  12.333  0.00  0.00    +0.000 C 
ENDBRANCH   3  11
BRANCH   1  14
ATOM     14  O   UNL     1       3.242   4.538  17.121  0.00  0.00    +0.000 OA
BRANCH  14  16
ATOM     15  C   UNL     1       2.543   2.250  17.541  0.00  0.00    +0.000 C 
ATOM     16  C   UNL     1       2.883   3.611  18.155  0.00  0.00    +0.000 C 
BRANCH  16  17
ATOM     17  C   UNL     1       1.686   4.162  18.980  0.00  0.00    +0.000 C 
ATOM     18  C   UNL     1       0.654   3.071  19.267  0.00  0.00    +0.000 C 
ATOM     19  N   UNL     1       1.027   2.563  20.551  0.00  0.00    +0.000 N 
ATOM     20  C   UNL     1       1.817   3.445  21.255  0.00  0.00    +0.000 C 
ATOM     21  O   UNL     1       2.212   3.282  22.393  0.00  0.00    +0.000 OA
ATOM     22  C   UNL     1       2.025   4.662  20.394  0.00  0.00    +0.000 C 
ATOM     23  H   UNL     1       0.698   1.701  20.974  0.00  0.00    +0.000 HD
ENDBRANCH  16  17
ENDBRANCH  14  16
ENDBRANCH   1  14
TORSDOF 4
ENDMDL
MODEL 5
REMARK VINA RESULT:      -7.4      2.546      6.400
REMARK  Name = 
REMARK  5 active torsions:
REMARK  status: ('A' for Active; 'I' for Inactive)
REMARK    1  A    between atoms: C_1  and  C_2
REMARK    2  A    between atoms: C_2  and  O_3
REMARK    3  A    between atoms: C_2  and  C_17
REMARK    4  A    between atoms: O_3  and  C_4
REMARK    5  A    between atoms: C_6  and  C_7
REMARK                            x       y       z     vdW  Elec       q    Type
REMARK                         _______ _______ _______ _____ _____    ______ ____
ROOT
ATOM      1  C   UNL     1       3.412   5.937  18.691  0.00  0.00    +0.000 A 
ATOM      2  N   UNL     1       3.251   4.951  19.602  0.00  0.00    +0.000 NA
ATOM      3  C   UNL     1       2.379   5.158  20.618  0.00  0.00    +0.000 A 
ATOM      4  C   UNL     1       1.734   6.383  20.772  0.00  0.00    +0.000 A 
ATOM      5  C   UNL     1       1.893   7.389  19.846  0.00  0.00    +0.000 A 
ATOM      6  N   UNL     1       1.225   8.542  20.037  0.00  0.00    +0.000 NA
ATOM      7  C   UNL     1       1.321   9.499  19.089  0.00  0.00    +0.000 A 
ATOM      8  C   UNL     1       2.037   9.343  17.917  0.00  0.00    +0.000 A 
ATOM      9  C   UNL     1       2.743   8.157  17.737  0.00  0.00    +0.000 A 
ATOM     10  C   UNL     1       2.711   7.154  18.733  0.00  0.00    +0.000 A 
ENDROOT
BRANCH   3  11
ATOM     11  C   UNL     1       2.024   4.025  21.551  0.00  0.00    +0.000 C 
ATOM     12  C   UNL     1       1.165   2.869  21.107  0.00  0.00    +0.000 C 
ATOM     13  C   UNL     1       2.633   2.658  21.344  0.00  0.00    +0.000 C 
ENDBRANCH   3  11
BRANCH   1  14
ATOM     14  O   UNL     1       4.333   5.769  17.664  0.00  0.00    +0.000 OA
BRANCH  14  16
ATOM     15  C   UNL     1       3.958   3.386  17.378  0.00  0.00    +0.000 C 
ATOM     16  C   UNL     1       4.043   4.753  16.694  0.00  0.00    +0.000 C 
BRANCH  16  17
ATOM     17  C   UNL     1       5.127   4.749  15.579  0.00  0.00    +0.000 C 
ATOM     18  C   UNL     1       5.846   6.095  15.492  0.00  0.00    +0.000 C 
ATOM     19  N   UNL     1       7.002   5.930  16.318  0.00  0.00    +0.000 N 
ATOM     20  C   UNL     1       7.317   4.605  16.521  0.00  0.00    +0.000 C 
ATOM     21  O   UNL     1       8.288   4.198  17.130  0.00  0.00    +0.000 OA
ATOM     22  C   UNL     1       6.297   3.774  15.791  0.00  0.00    +0.000 C 
ATOM     23  H   UNL     1       7.605   6.671  16.662  0.00  0.00    +0.000 HD
ENDBRANCH  16  17
ENDBRANCH  14  16
ENDBRANCH   1  14
TORSDOF 4
ENDMDL
MODEL 6
REMARK VINA RESULT:      -7.3      2.129      5.918
REMARK  Name = 
REMARK  5 active torsions:
REMARK  status: ('A' for Active; 'I' for Inactive)
REMARK    1  A    between atoms: C_1  and  C_2
REMARK    2  A    between atoms: C_2  and  O_3
REMARK    3  A    between atoms: C_2  and  C_17
REMARK    4  A    between atoms: O_3  and  C_4
REMARK    5  A    between atoms: C_6  and  C_7
REMARK                            x       y       z     vdW  Elec       q    Type
REMARK                         _______ _______ _______ _____ _____    ______ ____
ROOT
ATOM      1  C   UNL     1       4.077   5.059  18.105  0.00  0.00    +0.000 A 
ATOM      2  N   UNL     1       3.744   6.315  17.733  0.00  0.00    +0.000 NA
ATOM      3  C   UNL     1       2.815   6.973  18.468  0.00  0.00    +0.000 A 
ATOM      4  C   UNL     1       2.157   6.344  19.523  0.00  0.00    +0.000 A 
ATOM      5  C   UNL     1       2.496   5.066  19.907  0.00  0.00    +0.000 A 
ATOM      6  N   UNL     1       1.841   4.521  20.949  0.00  0.00    +0.000 NA
ATOM      7  C   UNL     1       2.225   3.298  21.374  0.00  0.00    +0.000 A 
ATOM      8  C   UNL     1       3.279   2.595  20.822  0.00  0.00    +0.000 A 
ATOM      9  C   UNL     1       3.937   3.156  19.732  0.00  0.00    +0.000 A 
ATOM     10  C   UNL     1       3.526   4.409  19.223  0.00  0.00    +0.000 A 
ENDROOT
BRANCH   3  11
ATOM     11  C   UNL     1       2.544   8.436  18.209  0.00  0.00    +0.000 C 
ATOM     12  C   UNL     1       1.251   8.907  17.595  0.00  0.00    +0.000 C 
ATOM     13  C   UNL     1       1.526   9.174  19.046  0.00  0.00    +0.000 C 
ENDBRANCH   3  11
BRANCH   1  14
ATOM     14  O   UNL     1       4.994   4.346  17.344  0.00  0.00    +0.000 OA
BRANCH  14  16
ATOM     15  C   UNL     1       5.445   4.224  14.959  0.00  0.00    +0.000 C 
ATOM     16  C   UNL     1       5.604   5.039  16.246  0.00  0.00    +0.000 C 
BRANCH  16  17
ATOM     17  C   UNL     1       7.106   5.310  16.548  0.00  0.00    +0.000 C 
ATOM     18  C   UNL     1       7.351   6.779  16.893  0.00  0.00    +0.000 C 
ATOM     19  N   UNL     1       7.277   6.822  18.321  0.00  0.00    +0.000 N 
ATOM     20  C   UNL     1       7.466   5.584  18.893  0.00  0.00    +0.000 C 
ATOM     21  O   UNL     1       7.516   5.362  20.088  0.00  0.00    +0.000 OA
ATOM     22  C   UNL     1       7.677   4.592  17.782  0.00  0.00    +0.000 C 
ATOM     23  H   UNL     1       7.190   7.657  18.892  0.00  0.00    +0.000 HD
ENDBRANCH  16  17
ENDBRANCH  14  16
ENDBRANCH   1  14
TORSDOF 4
ENDMDL
MODEL 7
REMARK VINA RESULT:      -7.3      2.621      6.229
REMARK  Name = 
REMARK  5 active torsions:
REMARK  status: ('A' for Active; 'I' for Inactive)
REMARK    1  A    between atoms: C_1  and  C_2
REMARK    2  A    between atoms: C_2  and  O_3
REMARK    3  A    between atoms: C_2  and  C_17
REMARK    4  A    between atoms: O_3  and  C_4
REMARK    5  A    between atoms: C_6  and  C_7
REMARK                            x       y       z     vdW  Elec       q    Type
REMARK                         _______ _______ _______ _____ _____    ______ ____
ROOT
ATOM      1  C   UNL     1       2.692   5.923  18.278  0.00  0.00    +0.000 A 
ATOM      2  N   UNL     1       2.537   4.866  19.107  0.00  0.00    +0.000 NA
ATOM      3  C   UNL     1       1.944   5.079  20.307  0.00  0.00    +0.000 A 
ATOM      4  C   UNL     1       1.584   6.362  20.712  0.00  0.00    +0.000 A 
ATOM      5  C   UNL     1       1.737   7.440  19.870  0.00  0.00    +0.000 A 
ATOM      6  N   UNL     1       1.349   8.652  20.309  0.00  0.00    +0.000 NA
ATOM      7  C   UNL     1       1.428   9.695  19.456  0.00  0.00    +0.000 A 
ATOM      8  C   UNL     1       1.849   9.578  18.145  0.00  0.00    +0.000 A 
ATOM      9  C   UNL     1       2.269   8.326  17.704  0.00  0.00    +0.000 A 
ATOM     10  C   UNL     1       2.254   7.222  18.586  0.00  0.00    +0.000 A 
ENDROOT
BRANCH   3  11
ATOM     11  C   UNL     1       1.581   3.908  21.188  0.00  0.00    +0.000 C 
ATOM     12  C   UNL     1       1.482   2.505  20.645  0.00  0.00    +0.000 C 
ATOM     13  C   UNL     1       2.627   2.876  21.542  0.00  0.00    +0.000 C 
ENDBRANCH   3  11
BRANCH   1  14
ATOM     14  O   UNL     1       3.337   5.741  17.061  0.00  0.00    +0.000 OA
BRANCH  14  16
ATOM     15  C   UNL     1       5.182   6.524  15.689  0.00  0.00    +0.000 C 
ATOM     16  C   UNL     1       4.756   5.948  17.042  0.00  0.00    +0.000 C 
BRANCH  16  17
ATOM     17  C   UNL     1       5.499   4.613  17.335  0.00  0.00    +0.000 C 
ATOM     18  C   UNL     1       6.753   4.470  16.473  0.00  0.00    +0.000 C 
ATOM     19  N   UNL     1       7.805   4.985  17.294  0.00  0.00    +0.000 N 
ATOM     20  C   UNL     1       7.468   5.000  18.630  0.00  0.00    +0.000 C 
ATOM     21  O   UNL     1       8.207   5.329  19.538  0.00  0.00    +0.000 OA
ATOM     22  C   UNL     1       6.067   4.465  18.755  0.00  0.00    +0.000 C 
ATOM     23  H   UNL     1       8.739   5.236  16.986  0.00  0.00    +0.000 HD
ENDBRANCH  16  17
ENDBRANCH  14  16
ENDBRANCH   1  14
TORSDOF 4
ENDMDL
MODEL 8
REMARK VINA RESULT:      -7.2      2.019      3.982
REMARK  Name = 
REMARK  5 active torsions:
REMARK  status: ('A' for Active; 'I' for Inactive)
REMARK    1  A    between atoms: C_1  and  C_2
REMARK    2  A    between atoms: C_2  and  O_3
REMARK    3  A    between atoms: C_2  and  C_17
REMARK    4  A    between atoms: O_3  and  C_4
REMARK    5  A    between atoms: C_6  and  C_7
REMARK                            x       y       z     vdW  Elec       q    Type
REMARK                         _______ _______ _______ _____ _____    ______ ____
ROOT
ATOM      1  C   UNL     1       3.293   4.636  17.545  0.00  0.00    +0.000 A 
ATOM      2  N   UNL     1       2.654   5.672  18.135  0.00  0.00    +0.000 NA
ATOM      3  C   UNL     1       3.190   6.910  18.003  0.00  0.00    +0.000 A 
ATOM      4  C   UNL     1       4.409   7.100  17.356  0.00  0.00    +0.000 A 
ATOM      5  C   UNL     1       5.061   6.048  16.752  0.00  0.00    +0.000 A 
ATOM      6  N   UNL     1       6.224   6.299  16.121  0.00  0.00    +0.000 NA
ATOM      7  C   UNL     1       6.824   5.284  15.463  0.00  0.00    +0.000 A 
ATOM      8  C   UNL     1       6.289   4.013  15.371  0.00  0.00    +0.000 A 
ATOM      9  C   UNL     1       5.098   3.756  16.044  0.00  0.00    +0.000 A 
ATOM     10  C   UNL     1       4.469   4.779  16.789  0.00  0.00    +0.000 A 
ENDROOT
BRANCH   3  11
ATOM     11  C   UNL     1       2.423   8.119  18.481  0.00  0.00    +0.000 C 
ATOM     12  C   UNL     1       2.460   9.429  17.736  0.00  0.00    +0.000 C 
ATOM     13  C   UNL     1       1.211   8.596  17.714  0.00  0.00    +0.000 C 
ENDBRANCH   3  11
BRANCH   1  14
ATOM     14  O   UNL     1       2.790   3.351  17.701  0.00  0.00    +0.000 OA
BRANCH  14  16
ATOM     15  C   UNL     1       3.783   1.261  18.440  0.00  0.00    +0.000 C 
ATOM     16  C   UNL     1       3.222   2.622  18.859  0.00  0.00    +0.000 C 
BRANCH  16  17
ATOM     17  C   UNL     1       2.042   2.452  19.858  0.00  0.00    +0.000 C 
ATOM     18  C   UNL     1       2.515   2.562  21.308  0.00  0.00    +0.000 C 
ATOM     19  N   UNL     1       2.314   3.939  21.639  0.00  0.00    +0.000 N 
ATOM     20  C   UNL     1       1.412   4.554  20.800  0.00  0.00    +0.000 C 
ATOM     21  O   UNL     1       1.019   5.700  20.908  0.00  0.00    +0.000 OA
ATOM     22  C   UNL     1       0.953   3.534  19.794  0.00  0.00    +0.000 C 
ATOM     23  H   UNL     1       2.698   4.425  22.443  0.00  0.00    +0.000 HD
ENDBRANCH  16  17
ENDBRANCH  14  16
ENDBRANCH   1  14
TORSDOF 4
ENDMDL
MODEL 9
REMARK VINA RESULT:      -7.2      2.519      6.419
REMARK  Name = 
REMARK  5 active torsions:
REMARK  status: ('A' for Active; 'I' for Inactive)
REMARK    1  A    between atoms: C_1  and  C_2
REMARK    2  A    between atoms: C_2  and  O_3
REMARK    3  A    between atoms: C_2  and  C_17
REMARK    4  A    between atoms: O_3  and  C_4
REMARK    5  A    between atoms: C_6  and  C_7
REMARK                            x       y       z     vdW  Elec       q    Type
REMARK                         _______ _______ _______ _____ _____    ______ ____
ROOT
ATOM      1  C   UNL     1       3.053   5.553  18.442  0.00  0.00    +0.000 A 
ATOM      2  N   UNL     1       2.780   4.573  19.334  0.00  0.00    +0.000 NA
ATOM      3  C   UNL     1       2.025   4.888  20.414  0.00  0.00    +0.000 A 
ATOM      4  C   UNL     1       1.616   6.198  20.648  0.00  0.00    +0.000 A 
ATOM      5  C   UNL     1       1.889   7.198  19.741  0.00  0.00    +0.000 A 
ATOM      6  N   UNL     1       1.447   8.440  20.011  0.00  0.00    +0.000 NA
ATOM      7  C   UNL     1       1.648   9.403  19.087  0.00  0.00    +0.000 A 
ATOM      8  C   UNL     1       2.249   9.173  17.864  0.00  0.00    +0.000 A 
ATOM      9  C   UNL     1       2.723   7.891  17.601  0.00  0.00    +0.000 A 
ATOM     10  C   UNL     1       2.580   6.870  18.568  0.00  0.00    +0.000 A 
ENDROOT
BRANCH   3  11
ATOM     11  C   UNL     1       1.538   3.797  21.338  0.00  0.00    +0.000 C 
ATOM     12  C   UNL     1       1.280   2.395  20.846  0.00  0.00    +0.000 C 
ATOM     13  C   UNL     1       2.464   2.668  21.728  0.00  0.00    +0.000 C 
ENDBRANCH   3  11
BRANCH   1  14
ATOM     14  O   UNL     1       3.862   5.269  17.349  0.00  0.00    +0.000 OA
BRANCH  14  16
ATOM     15  C   UNL     1       5.455   4.177  18.823  0.00  0.00    +0.000 C 
ATOM     16  C   UNL     1       4.742   4.143  17.469  0.00  0.00    +0.000 C 
BRANCH  16  17
ATOM     17  C   UNL     1       5.770   4.137  16.301  0.00  0.00    +0.000 C 
ATOM     18  C   UNL     1       5.328   5.055  15.162  0.00  0.00    +0.000 C 
ATOM     19  N   UNL     1       5.976   6.299  15.440  0.00  0.00    +0.000 N 
ATOM     20  C   UNL     1       7.053   6.151  16.286  0.00  0.00    +0.000 C 
ATOM     21  O   UNL     1       7.809   7.042  16.624  0.00  0.00    +0.000 OA
ATOM     22  C   UNL     1       7.163   4.692  16.637  0.00  0.00    +0.000 C 
ATOM     23  H   UNL     1       5.760   7.196  15.017  0.00  0.00    +0.000 HD
ENDBRANCH  16  17
ENDBRANCH  14  16
ENDBRANCH   1  14
TORSDOF 4
ENDMDL
