MODEL 1
REMARK VINA RESULT:      -7.4      0.000      0.000
REMARK  Name = 
REMARK  9 active torsions:
REMARK  status: ('A' for Active; 'I' for Inactive)
REMARK    1  A    between atoms: C_1  and  O_2
REMARK    2  A    between atoms: O_2  and  C_3
REMARK    3  A    between atoms: C_3  and  C_4
REMARK    4  A    between atoms: C_4  and  N_5
REMARK    5  A    between atoms: C_6  and  C_8
REMARK    6  A    between atoms: C_8  and  S_9
REMARK    7  A    between atoms: S_9  and  C_10
REMARK    8  A    between atoms: C_13  and  C_14
REMARK    9  A    between atoms: N_24  and  C_25
REMARK                            x       y       z     vdW  Elec       q    Type
REMARK                         _______ _______ _______ _____ _____    ______ ____
ROOT
ATOM      1  C   UNL     1       3.370   6.366  18.049  0.00  0.00    +0.000 C 
ATOM      2  N   UNL     1       3.450   7.582  17.594  0.00  0.00    +0.000 NA
ATOM      3  C   UNL     1       2.415   8.249  18.234  0.00  0.00    +0.000 C 
ATOM      4  C   UNL     1       2.135   9.555  18.083  0.00  0.00    +0.000 C 
ATOM      5  C   UNL     1       1.666   7.294  19.112  0.00  0.00    +0.000 C 
ATOM      6  O   UNL     1       0.686   7.525  19.798  0.00  0.00    +0.000 OA
ATOM      7  N   UNL     1       2.375   6.135  18.957  0.00  0.00    +0.000 N 
ENDROOT
BRANCH   4   8
ATOM      8  C   UNL     1       1.081  10.295  18.790  0.00  0.00    +0.000 A 
ATOM      9  C   UNL     1       1.353  10.995  19.971  0.00  0.00    +0.000 A 
ATOM     10  C   UNL     1       0.342  11.699  20.627  0.00  0.00    +0.000 A 
ATOM     11  C   UNL     1      -0.957  11.716  20.114  0.00  0.00    +0.000 A 
ATOM     12 CL   UNL     1      -2.162  12.607  20.978  0.00  0.00    +0.000 Cl
ATOM     13  C   UNL     1      -1.242  11.017  18.937  0.00  0.00    +0.000 A 
ATOM     14 CL   UNL     1      -2.824  10.982  18.239  0.00  0.00    +0.000 Cl
ATOM     15  C   UNL     1      -0.226  10.308  18.279  0.00  0.00    +0.000 A 
ENDBRANCH   4   8
BRANCH   7  16
ATOM     16  C   UNL     1       2.098   4.961  19.680  0.00  0.00    +0.000 A 
ATOM     17  C   UNL     1       2.562   4.819  20.992  0.00  0.00    +0.000 A 
ATOM     18  C   UNL     1       2.267   3.662  21.718  0.00  0.00    +0.000 A 
ATOM     19  C   UNL     1       1.543   2.626  21.126  0.00  0.00    +0.000 A 
ATOM     20  C   UNL     1       1.107   2.746  19.808  0.00  0.00    +0.000 A 
ATOM     21  C   UNL     1       1.381   3.910  19.096  0.00  0.00    +0.000 A 
ATOM     22  F   UNL     1       0.998   3.982  17.812  0.00  0.00    +0.000 F 
ENDBRANCH   7  16
BRANCH   1  23
ATOM     23  S   UNL     1       4.305   5.026  17.446  0.00  0.00    +0.000 S 
BRANCH  23  24
ATOM     24  C   UNL     1       5.163   5.712  16.011  0.00  0.00    +0.000 C 
BRANCH  24  26
ATOM     25  N   UNL     1       6.617   6.981  17.552  0.00  0.00    +0.000 N 
ATOM     26  C   UNL     1       6.559   6.186  16.418  0.00  0.00    +0.000 C 
ATOM     27  O   UNL     1       7.558   5.919  15.750  0.00  0.00    +0.000 OA
ATOM     28  H   UNL     1       5.827   6.952  18.187  0.00  0.00    +0.000 HD
BRANCH  25  29
ATOM     29  C   UNL     1       7.903   7.384  18.109  0.00  0.00    +0.000 C 
BRANCH  29  30
ATOM     30  C   UNL     1       8.198   8.875  17.920  0.00  0.00    +0.000 C 
BRANCH  30  32
ATOM     31  C   UNL     1       9.253  10.745  18.908  0.00  0.00    +0.000 C 
ATOM     32  O   UNL     1       9.046   9.338  18.977  0.00  0.00    +0.000 OA
ENDBRANCH  30  32
ENDBRANCH  29  30
ENDBRANCH  25  29
ENDBRANCH  24  26
ENDBRANCH  23  24
ENDBRANCH   1  23
TORSDOF 8
ENDMDL
MODEL 2
REMARK VINA RESULT:      -7.3      1.897      3.172
REMARK  Name = 
REMARK  9 active torsions:
REMARK  status: ('A' for Active; 'I' for Inactive)
REMARK    1  A    between atoms: C_1  and  O_2
REMARK    2  A    between atoms: O_2  and  C_3
REMARK    3  A    between atoms: C_3  and  C_4
REMARK    4  A    between atoms: C_4  and  N_5
REMARK    5  A    between atoms: C_6  and  C_8
REMARK    6  A    between atoms: C_8  and  S_9
REMARK    7  A    between atoms: S_9  and  C_10
REMARK    8  A    between atoms: C_13  and  C_14
REMARK    9  A    between atoms: N_24  and  C_25
REMARK                            x       y       z     vdW  Elec       q    Type
REMARK                         _______ _______ _______ _____ _____    ______ ____
ROOT
ATOM      1  C   UNL     1       3.406   6.253  18.085  0.00  0.00    +0.000 C 
ATOM      2  N   UNL     1       3.497   7.457  17.602  0.00  0.00    +0.000 NA
ATOM      3  C   UNL     1       2.464   8.146  18.222  0.00  0.00    +0.000 C 
ATOM      4  C   UNL     1       2.195   9.450  18.038  0.00  0.00    +0.000 C 
ATOM      5  C   UNL     1       1.705   7.218  19.119  0.00  0.00    +0.000 C 
ATOM      6  O   UNL     1       0.725   7.472  19.795  0.00  0.00    +0.000 OA
ATOM      7  N   UNL     1       2.406   6.050  18.994  0.00  0.00    +0.000 N 
ENDROOT
BRANCH   4   8
ATOM      8  C   UNL     1       1.144  10.215  18.723  0.00  0.00    +0.000 A 
ATOM      9  C   UNL     1       1.415  10.934  19.893  0.00  0.00    +0.000 A 
ATOM     10  C   UNL     1       0.407  11.661  20.529  0.00  0.00    +0.000 A 
ATOM     11  C   UNL     1      -0.888  11.683  20.006  0.00  0.00    +0.000 A 
ATOM     12 CL   UNL     1      -2.090  12.602  20.844  0.00  0.00    +0.000 Cl
ATOM     13  C   UNL     1      -1.173  10.965  18.840  0.00  0.00    +0.000 A 
ATOM     14 CL   UNL     1      -2.749  10.933  18.132  0.00  0.00    +0.000 Cl
ATOM     15  C   UNL     1      -0.160  10.232  18.203  0.00  0.00    +0.000 A 
ENDBRANCH   4   8
BRANCH   7  16
ATOM     16  C   UNL     1       2.118   4.896  19.744  0.00  0.00    +0.000 A 
ATOM     17  C   UNL     1       2.601   4.769  21.051  0.00  0.00    +0.000 A 
ATOM     18  C   UNL     1       2.295   3.632  21.803  0.00  0.00    +0.000 A 
ATOM     19  C   UNL     1       1.540   2.601  21.243  0.00  0.00    +0.000 A 
ATOM     20  C   UNL     1       1.084   2.705  19.930  0.00  0.00    +0.000 A 
ATOM     21  C   UNL     1       1.369   3.849  19.192  0.00  0.00    +0.000 A 
ATOM     22  F   UNL     1       0.965   3.905  17.914  0.00  0.00    +0.000 F 
ENDBRANCH   7  16
BRANCH   1  23
ATOM     23  S   UNL     1       4.333   4.891  17.517  0.00  0.00    +0.000 S 
BRANCH  23  24
ATOM     24  C   UNL     1       6.044   5.458  17.636  0.00  0.00    +0.000 C 
BRANCH  24  26
ATOM     25  N   UNL     1       6.175   5.113  15.195  0.00  0.00    +0.000 N 
ATOM     26  C   UNL     1       6.832   4.996  16.409  0.00  0.00    +0.000 C 
ATOM     27  O   UNL     1       7.957   4.507  16.504  0.00  0.00    +0.000 OA
ATOM     28  H   UNL     1       5.382   5.743  15.148  0.00  0.00    +0.000 HD
BRANCH  25  29
ATOM     29  C   UNL     1       6.871   4.826  13.946  0.00  0.00    +0.000 C 
BRANCH  29  30
ATOM     30  C   UNL     1       6.298   3.615  13.203  0.00  0.00    +0.000 C 
BRANCH  30  32
ATOM     31  C   UNL     1       4.600   3.212  11.610  0.00  0.00    +0.000 C 
ATOM     32  O   UNL     1       4.944   3.879  12.819  0.00  0.00    +0.000 OA
ENDBRANCH  30  32
ENDBRANCH  29  30
ENDBRANCH  25  29
ENDBRANCH  24  26
ENDBRANCH  23  24
ENDBRANCH   1  23
TORSDOF 8
ENDMDL
MODEL 3
REMARK VINA RESULT:      -7.1      0.743      1.368
REMARK  Name = 
REMARK  9 active torsions:
REMARK  status: ('A' for Active; 'I' for Inactive)
REMARK    1  A    between atoms: C_1  and  O_2
REMARK    2  A    between atoms: O_2  and  C_3
REMARK    3  A    between atoms: C_3  and  C_4
REMARK    4  A    between atoms: C_4  and  N_5
REMARK    5  A    between atoms: C_6  and  C_8
REMARK    6  A    between atoms: C_8  and  S_9
REMARK    7  A    between atoms: S_9  and  C_10
REMARK    8  A    between atoms: C_13  and  C_14
REMARK    9  A    between atoms: N_24  and  C_25
REMARK                            x       y       z     vdW  Elec       q    Type
REMARK                         _______ _______ _______ _____ _____    ______ ____
ROOT
ATOM      1  C   UNL     1       3.425   6.299  17.958  0.00  0.00    +0.000 C 
ATOM      2  N   UNL     1       3.540   7.493  17.455  0.00  0.00    +0.000 NA
ATOM      3  C   UNL     1       2.502   8.205  18.041  0.00  0.00    +0.000 C 
ATOM      4  C   UNL     1       2.251   9.508  17.829  0.00  0.00    +0.000 C 
ATOM      5  C   UNL     1       1.713   7.301  18.938  0.00  0.00    +0.000 C 
ATOM      6  O   UNL     1       0.722   7.578  19.589  0.00  0.00    +0.000 OA
ATOM      7  N   UNL     1       2.404   6.124  18.849  0.00  0.00    +0.000 N 
ENDROOT
BRANCH   4   8
ATOM      8  C   UNL     1       1.195  10.297  18.477  0.00  0.00    +0.000 A 
ATOM      9  C   UNL     1      -0.152  10.122  18.138  0.00  0.00    +0.000 A 
ATOM     10  C   UNL     1      -1.145  10.875  18.768  0.00  0.00    +0.000 A 
ATOM     11  C   UNL     1      -0.809  11.813  19.747  0.00  0.00    +0.000 A 
ATOM     12 CL   UNL     1      -2.088  12.712  20.487  0.00  0.00    +0.000 Cl
ATOM     13  C   UNL     1       0.534  11.999  20.092  0.00  0.00    +0.000 A 
ATOM     14 CL   UNL     1       1.035  13.143  21.287  0.00  0.00    +0.000 Cl
ATOM     15  C   UNL     1       1.532  11.244  19.456  0.00  0.00    +0.000 A 
ENDBRANCH   4   8
BRANCH   7  16
ATOM     16  C   UNL     1       2.087   4.986  19.613  0.00  0.00    +0.000 A 
ATOM     17  C   UNL     1       2.542   4.877  20.931  0.00  0.00    +0.000 A 
ATOM     18  C   UNL     1       2.207   3.757  21.697  0.00  0.00    +0.000 A 
ATOM     19  C   UNL     1       1.451   2.725  21.140  0.00  0.00    +0.000 A 
ATOM     20  C   UNL     1       1.023   2.811  19.816  0.00  0.00    +0.000 A 
ATOM     21  C   UNL     1       1.337   3.939  19.064  0.00  0.00    +0.000 A 
ATOM     22  F   UNL     1       0.960   3.977  17.777  0.00  0.00    +0.000 F 
ENDBRANCH   7  16
BRANCH   1  23
ATOM     23  S   UNL     1       4.349   4.918  17.434  0.00  0.00    +0.000 S 
BRANCH  23  24
ATOM     24  C   UNL     1       5.423   5.584  16.144  0.00  0.00    +0.000 C 
BRANCH  24  26
ATOM     25  N   UNL     1       6.867   7.416  16.953  0.00  0.00    +0.000 N 
ATOM     26  C   UNL     1       6.745   6.050  16.756  0.00  0.00    +0.000 C 
ATOM     27  O   UNL     1       7.657   5.264  17.011  0.00  0.00    +0.000 OA
ATOM     28  H   UNL     1       6.015   7.967  16.970  0.00  0.00    +0.000 HD
BRANCH  25  29
ATOM     29  C   UNL     1       8.026   7.964  17.648  0.00  0.00    +0.000 C 
BRANCH  29  30
ATOM     30  C   UNL     1       7.900   9.463  17.935  0.00  0.00    +0.000 C 
BRANCH  30  32
ATOM     31  C   UNL     1       9.672  10.965  18.370  0.00  0.00    +0.000 C 
ATOM     32  O   UNL     1       8.915   9.865  18.862  0.00  0.00    +0.000 OA
ENDBRANCH  30  32
ENDBRANCH  29  30
ENDBRANCH  25  29
ENDBRANCH  24  26
ENDBRANCH  23  24
ENDBRANCH   1  23
TORSDOF 8
ENDMDL
MODEL 4
REMARK VINA RESULT:      -6.9      1.887      3.439
REMARK  Name = 
REMARK  9 active torsions:
REMARK  status: ('A' for Active; 'I' for Inactive)
REMARK    1  A    between atoms: C_1  and  O_2
REMARK    2  A    between atoms: O_2  and  C_3
REMARK    3  A    between atoms: C_3  and  C_4
REMARK    4  A    between atoms: C_4  and  N_5
REMARK    5  A    between atoms: C_6  and  C_8
REMARK    6  A    between atoms: C_8  and  S_9
REMARK    7  A    between atoms: S_9  and  C_10
REMARK    8  A    between atoms: C_13  and  C_14
REMARK    9  A    between atoms: N_24  and  C_25
REMARK                            x       y       z     vdW  Elec       q    Type
REMARK                         _______ _______ _______ _____ _____    ______ ____
ROOT
ATOM      1  C   UNL     1       3.625   6.341  18.265  0.00  0.00    +0.000 C 
ATOM      2  N   UNL     1       3.720   7.543  17.776  0.00  0.00    +0.000 NA
ATOM      3  C   UNL     1       2.571   8.180  18.222  0.00  0.00    +0.000 C 
ATOM      4  C   UNL     1       2.260   9.464  17.974  0.00  0.00    +0.000 C 
ATOM      5  C   UNL     1       1.738   7.221  19.016  0.00  0.00    +0.000 C 
ATOM      6  O   UNL     1       0.656   7.427  19.535  0.00  0.00    +0.000 OA
ATOM      7  N   UNL     1       2.513   6.093  19.021  0.00  0.00    +0.000 N 
ENDROOT
BRANCH   4   8
ATOM      8  C   UNL     1       1.079  10.176  18.480  0.00  0.00    +0.000 A 
ATOM      9  C   UNL     1      -0.161  10.069  17.840  0.00  0.00    +0.000 A 
ATOM     10  C   UNL     1      -1.276  10.747  18.337  0.00  0.00    +0.000 A 
ATOM     11  C   UNL     1      -1.171  11.541  19.481  0.00  0.00    +0.000 A 
ATOM     12 CL   UNL     1      -2.590  12.354  20.042  0.00  0.00    +0.000 Cl
ATOM     13  C   UNL     1       0.064  11.658  20.127  0.00  0.00    +0.000 A 
ATOM     14 CL   UNL     1       0.282  12.625  21.543  0.00  0.00    +0.000 Cl
ATOM     15  C   UNL     1       1.185  10.979  19.626  0.00  0.00    +0.000 A 
ENDBRANCH   4   8
BRANCH   7  16
ATOM     16  C   UNL     1       2.180   4.934  19.743  0.00  0.00    +0.000 A 
ATOM     17  C   UNL     1       2.642   4.766  21.053  0.00  0.00    +0.000 A 
ATOM     18  C   UNL     1       2.292   3.625  21.779  0.00  0.00    +0.000 A 
ATOM     19  C   UNL     1       1.513   2.628  21.188  0.00  0.00    +0.000 A 
ATOM     20  C   UNL     1       1.077   2.772  19.872  0.00  0.00    +0.000 A 
ATOM     21  C   UNL     1       1.407   3.922  19.161  0.00  0.00    +0.000 A 
ATOM     22  F   UNL     1       1.022   4.016  17.879  0.00  0.00    +0.000 F 
ENDBRANCH   7  16
BRANCH   1  23
ATOM     23  S   UNL     1       4.699   5.028  17.869  0.00  0.00    +0.000 S 
BRANCH  23  24
ATOM     24  C   UNL     1       6.257   5.853  17.474  0.00  0.00    +0.000 C 
BRANCH  24  26
ATOM     25  N   UNL     1       6.307   5.405  15.047  0.00  0.00    +0.000 N 
ATOM     26  C   UNL     1       6.914   5.175  16.271  0.00  0.00    +0.000 C 
ATOM     27  O   UNL     1       7.889   4.435  16.394  0.00  0.00    +0.000 OA
ATOM     28  H   UNL     1       5.688   6.204  14.971  0.00  0.00    +0.000 HD
BRANCH  25  29
ATOM     29  C   UNL     1       6.917   4.918  13.815  0.00  0.00    +0.000 C 
BRANCH  29  30
ATOM     30  C   UNL     1       6.402   3.539  13.393  0.00  0.00    +0.000 C 
BRANCH  30  32
ATOM     31  C   UNL     1       5.159   2.696  11.569  0.00  0.00    +0.000 C 
ATOM     32  O   UNL     1       5.226   3.686  12.590  0.00  0.00    +0.000 OA
ENDBRANCH  30  32
ENDBRANCH  29  30
ENDBRANCH  25  29
ENDBRANCH  24  26
ENDBRANCH  23  24
ENDBRANCH   1  23
TORSDOF 8
ENDMDL
MODEL 5
REMARK VINA RESULT:      -6.8      0.952      1.288
REMARK  Name = 
REMARK  9 active torsions:
REMARK  status: ('A' for Active; 'I' for Inactive)
REMARK    1  A    between atoms: C_1  and  O_2
REMARK    2  A    between atoms: O_2  and  C_3
REMARK    3  A    between atoms: C_3  and  C_4
REMARK    4  A    between atoms: C_4  and  N_5
REMARK    5  A    between atoms: C_6  and  C_8
REMARK    6  A    between atoms: C_8  and  S_9
REMARK    7  A    between atoms: S_9  and  C_10
REMARK    8  A    between atoms: C_13  and  C_14
REMARK    9  A    between atoms: N_24  and  C_25
REMARK                            x       y       z     vdW  Elec       q    Type
REMARK                         _______ _______ _______ _____ _____    ______ ____
ROOT
ATOM      1  C   UNL     1       3.404   6.311  18.051  0.00  0.00    +0.000 C 
ATOM      2  N   UNL     1       3.486   7.523  17.589  0.00  0.00    +0.000 NA
ATOM      3  C   UNL     1       2.444   8.193  18.215  0.00  0.00    +0.000 C 
ATOM      4  C   UNL     1       2.164   9.498  18.051  0.00  0.00    +0.000 C 
ATOM      5  C   UNL     1       1.689   7.244  19.092  0.00  0.00    +0.000 C 
ATOM      6  O   UNL     1       0.703   7.477  19.767  0.00  0.00    +0.000 OA
ATOM      7  N   UNL     1       2.401   6.084  18.952  0.00  0.00    +0.000 N 
ENDROOT
BRANCH   4   8
ATOM      8  C   UNL     1       1.103  10.242  18.743  0.00  0.00    +0.000 A 
ATOM      9  C   UNL     1       1.366  10.960  19.915  0.00  0.00    +0.000 A 
ATOM     10  C   UNL     1       0.348  11.667  20.558  0.00  0.00    +0.000 A 
ATOM     11  C   UNL     1      -0.949  11.669  20.040  0.00  0.00    +0.000 A 
ATOM     12 CL   UNL     1      -2.163  12.564  20.886  0.00  0.00    +0.000 Cl
ATOM     13  C   UNL     1      -1.226  10.952  18.871  0.00  0.00    +0.000 A 
ATOM     14 CL   UNL     1      -2.804  10.897  18.168  0.00  0.00    +0.000 Cl
ATOM     15  C   UNL     1      -0.203  10.239  18.227  0.00  0.00    +0.000 A 
ENDBRANCH   4   8
BRANCH   7  16
ATOM     16  C   UNL     1       2.119   4.915  19.680  0.00  0.00    +0.000 A 
ATOM     17  C   UNL     1       2.574   4.782  20.997  0.00  0.00    +0.000 A 
ATOM     18  C   UNL     1       2.274   3.630  21.728  0.00  0.00    +0.000 A 
ATOM     19  C   UNL     1       1.554   2.590  21.138  0.00  0.00    +0.000 A 
ATOM     20  C   UNL     1       1.127   2.701  19.816  0.00  0.00    +0.000 A 
ATOM     21  C   UNL     1       1.405   3.860  19.099  0.00  0.00    +0.000 A 
ATOM     22  F   UNL     1       1.031   3.924  17.811  0.00  0.00    +0.000 F 
ENDBRANCH   7  16
BRANCH   1  23
ATOM     23  S   UNL     1       4.346   4.967  17.466  0.00  0.00    +0.000 S 
BRANCH  23  24
ATOM     24  C   UNL     1       5.006   5.560  15.892  0.00  0.00    +0.000 C 
BRANCH  24  26
ATOM     25  N   UNL     1       6.475   7.236  16.954  0.00  0.00    +0.000 N 
ATOM     26  C   UNL     1       6.403   6.146  16.101  0.00  0.00    +0.000 C 
ATOM     27  O   UNL     1       7.389   5.706  15.510  0.00  0.00    +0.000 OA
ATOM     28  H   UNL     1       5.703   7.384  17.594  0.00  0.00    +0.000 HD
BRANCH  25  29
ATOM     29  C   UNL     1       7.767   7.796  17.331  0.00  0.00    +0.000 C 
BRANCH  29  30
ATOM     30  C   UNL     1       8.247   7.326  18.708  0.00  0.00    +0.000 C 
BRANCH  30  32
ATOM     31  C   UNL     1       8.157   4.982  18.998  0.00  0.00    +0.000 C 
ATOM     32  O   UNL     1       7.457   6.213  19.142  0.00  0.00    +0.000 OA
ENDBRANCH  30  32
ENDBRANCH  29  30
ENDBRANCH  25  29
ENDBRANCH  24  26
ENDBRANCH  23  24
ENDBRANCH   1  23
TORSDOF 8
ENDMDL
MODEL 6
REMARK VINA RESULT:      -6.6      0.900      1.242
REMARK  Name = 
REMARK  9 active torsions:
REMARK  status: ('A' for Active; 'I' for Inactive)
REMARK    1  A    between atoms: C_1  and  O_2
REMARK    2  A    between atoms: O_2  and  C_3
REMARK    3  A    between atoms: C_3  and  C_4
REMARK    4  A    between atoms: C_4  and  N_5
REMARK    5  A    between atoms: C_6  and  C_8
REMARK    6  A    between atoms: C_8  and  S_9
REMARK    7  A    between atoms: S_9  and  C_10
REMARK    8  A    between atoms: C_13  and  C_14
REMARK    9  A    between atoms: N_24  and  C_25
REMARK                            x       y       z     vdW  Elec       q    Type
REMARK                         _______ _______ _______ _____ _____    ______ ____
ROOT
ATOM      1  C   UNL     1       3.423   6.252  17.871  0.00  0.00    +0.000 C 
ATOM      2  N   UNL     1       3.523   7.487  17.478  0.00  0.00    +0.000 NA
ATOM      3  C   UNL     1       2.488   8.136  18.137  0.00  0.00    +0.000 C 
ATOM      4  C   UNL     1       2.226   9.451  18.046  0.00  0.00    +0.000 C 
ATOM      5  C   UNL     1       1.716   7.149  18.958  0.00  0.00    +0.000 C 
ATOM      6  O   UNL     1       0.731   7.358  19.642  0.00  0.00    +0.000 OA
ATOM      7  N   UNL     1       2.413   5.989  18.755  0.00  0.00    +0.000 N 
ENDROOT
BRANCH   4   8
ATOM      8  C   UNL     1       1.172  10.169  18.775  0.00  0.00    +0.000 A 
ATOM      9  C   UNL     1       1.436  10.800  19.996  0.00  0.00    +0.000 A 
ATOM     10  C   UNL     1       0.425  11.484  20.674  0.00  0.00    +0.000 A 
ATOM     11  C   UNL     1      -0.865  11.550  20.143  0.00  0.00    +0.000 A 
ATOM     12 CL   UNL     1      -2.070  12.413  21.034  0.00  0.00    +0.000 Cl
ATOM     13  C   UNL     1      -1.142  10.921  18.925  0.00  0.00    +0.000 A 
ATOM     14 CL   UNL     1      -2.712  10.949  18.202  0.00  0.00    +0.000 Cl
ATOM     15  C   UNL     1      -0.126  10.231  18.245  0.00  0.00    +0.000 A 
ENDBRANCH   4   8
BRANCH   7  16
ATOM     16  C   UNL     1       2.113   4.785  19.417  0.00  0.00    +0.000 A 
ATOM     17  C   UNL     1       1.615   3.694  18.696  0.00  0.00    +0.000 A 
ATOM     18  C   UNL     1       1.339   2.491  19.350  0.00  0.00    +0.000 A 
ATOM     19  C   UNL     1       1.520   2.383  20.730  0.00  0.00    +0.000 A 
ATOM     20  C   UNL     1       1.982   3.476  21.460  0.00  0.00    +0.000 A 
ATOM     21  C   UNL     1       2.281   4.665  20.801  0.00  0.00    +0.000 A 
ATOM     22  F   UNL     1       2.675   5.721  21.530  0.00  0.00    +0.000 F 
ENDBRANCH   7  16
BRANCH   1  23
ATOM     23  S   UNL     1       4.349   4.931  17.215  0.00  0.00    +0.000 S 
BRANCH  23  24
ATOM     24  C   UNL     1       5.493   5.735  16.072  0.00  0.00    +0.000 C 
BRANCH  24  26
ATOM     25  N   UNL     1       6.928   7.414  17.175  0.00  0.00    +0.000 N 
ATOM     26  C   UNL     1       6.792   6.088  16.798  0.00  0.00    +0.000 C 
ATOM     27  O   UNL     1       7.678   5.255  16.988  0.00  0.00    +0.000 OA
ATOM     28  H   UNL     1       6.086   7.977  17.225  0.00  0.00    +0.000 HD
BRANCH  25  29
ATOM     29  C   UNL     1       8.063   7.841  17.986  0.00  0.00    +0.000 C 
BRANCH  29  30
ATOM     30  C   UNL     1       8.260   9.360  17.991  0.00  0.00    +0.000 C 
BRANCH  30  32
ATOM     31  C   UNL     1       9.471  11.100  19.034  0.00  0.00    +0.000 C 
ATOM     32  O   UNL     1       9.058   9.741  19.117  0.00  0.00    +0.000 OA
ENDBRANCH  30  32
ENDBRANCH  29  30
ENDBRANCH  25  29
ENDBRANCH  24  26
ENDBRANCH  23  24
ENDBRANCH   1  23
TORSDOF 8
ENDMDL
MODEL 7
REMARK VINA RESULT:      -6.6      1.074      1.789
REMARK  Name = 
REMARK  9 active torsions:
REMARK  status: ('A' for Active; 'I' for Inactive)
REMARK    1  A    between atoms: C_1  and  O_2
REMARK    2  A    between atoms: O_2  and  C_3
REMARK    3  A    between atoms: C_3  and  C_4
REMARK    4  A    between atoms: C_4  and  N_5
REMARK    5  A    between atoms: C_6  and  C_8
REMARK    6  A    between atoms: C_8  and  S_9
REMARK    7  A    between atoms: S_9  and  C_10
REMARK    8  A    between atoms: C_13  and  C_14
REMARK    9  A    between atoms: N_24  and  C_25
REMARK                            x       y       z     vdW  Elec       q    Type
REMARK                         _______ _______ _______ _____ _____    ______ ____
ROOT
ATOM      1  C   UNL     1       3.506   6.190  18.052  0.00  0.00    +0.000 C 
ATOM      2  N   UNL     1       3.616   7.380  17.541  0.00  0.00    +0.000 NA
ATOM      3  C   UNL     1       2.543   8.078  18.077  0.00  0.00    +0.000 C 
ATOM      4  C   UNL     1       2.275   9.373  17.839  0.00  0.00    +0.000 C 
ATOM      5  C   UNL     1       1.737   7.168  18.953  0.00  0.00    +0.000 C 
ATOM      6  O   UNL     1       0.716   7.432  19.562  0.00  0.00    +0.000 OA
ATOM      7  N   UNL     1       2.454   6.004  18.905  0.00  0.00    +0.000 N 
ENDROOT
BRANCH   4   8
ATOM      8  C   UNL     1       1.178  10.147  18.437  0.00  0.00    +0.000 A 
ATOM      9  C   UNL     1      -0.142   9.989  18.002  0.00  0.00    +0.000 A 
ATOM     10  C   UNL     1      -1.175  10.728  18.584  0.00  0.00    +0.000 A 
ATOM     11  C   UNL     1      -0.904  11.636  19.611  0.00  0.00    +0.000 A 
ATOM     12 CL   UNL     1      -2.228  12.519  20.288  0.00  0.00    +0.000 Cl
ATOM     13  C   UNL     1       0.413  11.805  20.052  0.00  0.00    +0.000 A 
ATOM     14 CL   UNL     1       0.834  12.911  21.312  0.00  0.00    +0.000 Cl
ATOM     15  C   UNL     1       1.450  11.064  19.464  0.00  0.00    +0.000 A 
ENDBRANCH   4   8
BRANCH   7  16
ATOM     16  C   UNL     1       2.129   4.869  19.670  0.00  0.00    +0.000 A 
ATOM     17  C   UNL     1       2.594   4.752  20.984  0.00  0.00    +0.000 A 
ATOM     18  C   UNL     1       2.252   3.636  21.751  0.00  0.00    +0.000 A 
ATOM     19  C   UNL     1       1.480   2.613  21.198  0.00  0.00    +0.000 A 
ATOM     20  C   UNL     1       1.043   2.705  19.878  0.00  0.00    +0.000 A 
ATOM     21  C   UNL     1       1.364   3.831  19.125  0.00  0.00    +0.000 A 
ATOM     22  F   UNL     1       0.977   3.876  17.841  0.00  0.00    +0.000 F 
ENDBRANCH   7  16
BRANCH   1  23
ATOM     23  S   UNL     1       4.476   4.822  17.582  0.00  0.00    +0.000 S 
BRANCH  23  24
ATOM     24  C   UNL     1       5.123   5.291  15.962  0.00  0.00    +0.000 C 
BRANCH  24  26
ATOM     25  N   UNL     1       6.501   7.128  16.869  0.00  0.00    +0.000 N 
ATOM     26  C   UNL     1       6.489   5.961  16.121  0.00  0.00    +0.000 C 
ATOM     27  O   UNL     1       7.499   5.516  15.579  0.00  0.00    +0.000 OA
ATOM     28  H   UNL     1       5.717   7.298  17.488  0.00  0.00    +0.000 HD
BRANCH  25  29
ATOM     29  C   UNL     1       7.762   7.783  17.198  0.00  0.00    +0.000 C 
BRANCH  29  30
ATOM     30  C   UNL     1       8.253   7.464  18.613  0.00  0.00    +0.000 C 
BRANCH  30  32
ATOM     31  C   UNL     1       8.278   5.229  19.379  0.00  0.00    +0.000 C 
ATOM     32  O   UNL     1       7.483   6.389  19.162  0.00  0.00    +0.000 OA
ENDBRANCH  30  32
ENDBRANCH  29  30
ENDBRANCH  25  29
ENDBRANCH  24  26
ENDBRANCH  23  24
ENDBRANCH   1  23
TORSDOF 8
ENDMDL
MODEL 8
REMARK VINA RESULT:      -6.5      2.503      4.028
REMARK  Name = 
REMARK  9 active torsions:
REMARK  status: ('A' for Active; 'I' for Inactive)
REMARK    1  A    between atoms: C_1  and  O_2
REMARK    2  A    between atoms: O_2  and  C_3
REMARK    3  A    between atoms: C_3  and  C_4
REMARK    4  A    between atoms: C_4  and  N_5
REMARK    5  A    between atoms: C_6  and  C_8
REMARK    6  A    between atoms: C_8  and  S_9
REMARK    7  A    between atoms: S_9  and  C_10
REMARK    8  A    between atoms: C_13  and  C_14
REMARK    9  A    between atoms: N_24  and  C_25
REMARK                            x       y       z     vdW  Elec       q    Type
REMARK                         _______ _______ _______ _____ _____    ______ ____
ROOT
ATOM      1  C   UNL     1       3.969   5.910  17.305  0.00  0.00    +0.000 C 
ATOM      2  N   UNL     1       4.063   7.172  17.005  0.00  0.00    +0.000 NA
ATOM      3  C   UNL     1       2.994   7.756  17.669  0.00  0.00    +0.000 C 
ATOM      4  C   UNL     1       2.712   9.071  17.662  0.00  0.00    +0.000 C 
ATOM      5  C   UNL     1       2.208   6.702  18.387  0.00  0.00    +0.000 C 
ATOM      6  O   UNL     1       1.195   6.847  19.046  0.00  0.00    +0.000 OA
ATOM      7  N   UNL     1       2.932   5.570  18.129  0.00  0.00    +0.000 N 
ENDROOT
BRANCH   4   8
ATOM      8  C   UNL     1       1.620   9.720  18.400  0.00  0.00    +0.000 A 
ATOM      9  C   UNL     1       1.830  10.274  19.667  0.00  0.00    +0.000 A 
ATOM     10  C   UNL     1       0.783  10.894  20.353  0.00  0.00    +0.000 A 
ATOM     11  C   UNL     1      -0.490  10.969  19.783  0.00  0.00    +0.000 A 
ATOM     12 CL   UNL     1      -1.741  11.749  20.687  0.00  0.00    +0.000 Cl
ATOM     13  C   UNL     1      -0.713  10.415  18.519  0.00  0.00    +0.000 A 
ATOM     14 CL   UNL     1      -2.259  10.460  17.746  0.00  0.00    +0.000 Cl
ATOM     15  C   UNL     1       0.339   9.791  17.831  0.00  0.00    +0.000 A 
ENDBRANCH   4   8
BRANCH   7  16
ATOM     16  C   UNL     1       2.628   4.317  18.690  0.00  0.00    +0.000 A 
ATOM     17  C   UNL     1       1.551   3.571  18.199  0.00  0.00    +0.000 A 
ATOM     18  C   UNL     1       1.263   2.316  18.741  0.00  0.00    +0.000 A 
ATOM     19  C   UNL     1       2.022   1.818  19.802  0.00  0.00    +0.000 A 
ATOM     20  C   UNL     1       3.074   2.571  20.320  0.00  0.00    +0.000 A 
ATOM     21  C   UNL     1       3.374   3.809  19.760  0.00  0.00    +0.000 A 
ATOM     22  F   UNL     1       4.357   4.540  20.308  0.00  0.00    +0.000 F 
ENDBRANCH   7  16
BRANCH   1  23
ATOM     23  S   UNL     1       4.941   4.653  16.592  0.00  0.00    +0.000 S 
BRANCH  23  24
ATOM     24  C   UNL     1       6.415   5.525  16.017  0.00  0.00    +0.000 C 
BRANCH  24  26
ATOM     25  N   UNL     1       6.015   4.010  14.109  0.00  0.00    +0.000 N 
ATOM     26  C   UNL     1       6.817   5.011  14.633  0.00  0.00    +0.000 C 
ATOM     27  O   UNL     1       7.816   5.429  14.049  0.00  0.00    +0.000 OA
ATOM     28  H   UNL     1       5.088   3.895  14.503  0.00  0.00    +0.000 HD
BRANCH  25  29
ATOM     29  C   UNL     1       6.221   3.534  12.746  0.00  0.00    +0.000 C 
BRANCH  29  30
ATOM     30  C   UNL     1       4.912   3.324  11.979  0.00  0.00    +0.000 C 
BRANCH  30  32
ATOM     31  C   UNL     1       6.259   1.489  11.346  0.00  0.00    +0.000 C 
ATOM     32  O   UNL     1       5.002   2.136  11.184  0.00  0.00    +0.000 OA
ENDBRANCH  30  32
ENDBRANCH  29  30
ENDBRANCH  25  29
ENDBRANCH  24  26
ENDBRANCH  23  24
ENDBRANCH   1  23
TORSDOF 8
ENDMDL
MODEL 9
REMARK VINA RESULT:      -6.5      2.709      4.203
REMARK  Name = 
REMARK  9 active torsions:
REMARK  status: ('A' for Active; 'I' for Inactive)
REMARK    1  A    between atoms: C_1  and  O_2
REMARK    2  A    between atoms: O_2  and  C_3
REMARK    3  A    between atoms: C_3  and  C_4
REMARK    4  A    between atoms: C_4  and  N_5
REMARK    5  A    between atoms: C_6  and  C_8
REMARK    6  A    between atoms: C_8  and  S_9
REMARK    7  A    between atoms: S_9  and  C_10
REMARK    8  A    between atoms: C_13  and  C_14
REMARK    9  A    between atoms: N_24  and  C_25
REMARK                            x       y       z     vdW  Elec       q    Type
REMARK                         _______ _______ _______ _____ _____    ______ ____
ROOT
ATOM      1  C   UNL     1       4.191   5.695  17.166  0.00  0.00    +0.000 C 
ATOM      2  N   UNL     1       4.119   6.961  16.878  0.00  0.00    +0.000 NA
ATOM      3  C   UNL     1       3.115   7.439  17.708  0.00  0.00    +0.000 C 
ATOM      4  C   UNL     1       2.715   8.721  17.769  0.00  0.00    +0.000 C 
ATOM      5  C   UNL     1       2.551   6.312  18.517  0.00  0.00    +0.000 C 
ATOM      6  O   UNL     1       1.641   6.358  19.326  0.00  0.00    +0.000 OA
ATOM      7  N   UNL     1       3.328   5.254  18.131  0.00  0.00    +0.000 N 
ENDROOT
BRANCH   4   8
ATOM      8  C   UNL     1       1.693   9.260  18.676  0.00  0.00    +0.000 A 
ATOM      9  C   UNL     1       0.570   9.935  18.184  0.00  0.00    +0.000 A 
ATOM     10  C   UNL     1      -0.395  10.437  19.060  0.00  0.00    +0.000 A 
ATOM     11  C   UNL     1      -0.255  10.271  20.440  0.00  0.00    +0.000 A 
ATOM     12 CL   UNL     1      -1.487  10.918  21.467  0.00  0.00    +0.000 Cl
ATOM     13  C   UNL     1       0.865   9.602  20.943  0.00  0.00    +0.000 A 
ATOM     14 CL   UNL     1       1.118   9.361  22.636  0.00  0.00    +0.000 Cl
ATOM     15  C   UNL     1       1.837   9.100  20.063  0.00  0.00    +0.000 A 
ENDBRANCH   4   8
BRANCH   7  16
ATOM     16  C   UNL     1       3.231   3.976  18.709  0.00  0.00    +0.000 A 
ATOM     17  C   UNL     1       4.266   3.491  19.516  0.00  0.00    +0.000 A 
ATOM     18  C   UNL     1       4.160   2.230  20.109  0.00  0.00    +0.000 A 
ATOM     19  C   UNL     1       3.040   1.433  19.868  0.00  0.00    +0.000 A 
ATOM     20  C   UNL     1       2.020   1.895  19.037  0.00  0.00    +0.000 A 
ATOM     21  C   UNL     1       2.118   3.162  18.469  0.00  0.00    +0.000 A 
ATOM     22  F   UNL     1       1.151   3.566  17.631  0.00  0.00    +0.000 F 
ENDBRANCH   7  16
BRANCH   1  23
ATOM     23  S   UNL     1       5.154   4.538  16.290  0.00  0.00    +0.000 S 
BRANCH  23  24
ATOM     24  C   UNL     1       6.623   5.477  15.814  0.00  0.00    +0.000 C 
BRANCH  24  26
ATOM     25  N   UNL     1       6.358   4.026  13.834  0.00  0.00    +0.000 N 
ATOM     26  C   UNL     1       7.078   5.058  14.415  0.00  0.00    +0.000 C 
ATOM     27  O   UNL     1       8.051   5.573  13.865  0.00  0.00    +0.000 OA
ATOM     28  H   UNL     1       5.437   3.826  14.208  0.00  0.00    +0.000 HD
BRANCH  25  29
ATOM     29  C   UNL     1       6.615   3.629  12.454  0.00  0.00    +0.000 C 
BRANCH  29  30
ATOM     30  C   UNL     1       5.494   2.774  11.856  0.00  0.00    +0.000 C 
BRANCH  30  32
ATOM     31  C   UNL     1       3.470   3.105  10.682  0.00  0.00    +0.000 C 
ATOM     32  O   UNL     1       4.296   3.553  11.751  0.00  0.00    +0.000 OA
ENDBRANCH  30  32
ENDBRANCH  29  30
ENDBRANCH  25  29
ENDBRANCH  24  26
ENDBRANCH  23  24
ENDBRANCH   1  23
TORSDOF 8
ENDMDL
