MODEL 1
REMARK VINA RESULT:      -6.5      0.000      0.000
REMARK  Name = 
REMARK  6 active torsions:
REMARK  status: ('A' for Active; 'I' for Inactive)
REMARK    1  A    between atoms: C_1  and  O_2
REMARK    2  A    between atoms: O_2  and  C_3
REMARK    3  A    between atoms: C_8  and  N_9
REMARK    4  A    between atoms: N_12  and  C_13
REMARK    5  A    between atoms: C_13  and  C_14
REMARK    6  A    between atoms: C_17  and  C_18
REMARK                            x       y       z     vdW  Elec       q    Type
REMARK                         _______ _______ _______ _____ _____    ______ ____
ROOT
ATOM      1  N   UNL     1       4.666   5.500  18.212  0.00  0.00    +0.000 N 
ATOM      2  C   UNL     1       4.423   5.214  16.790  0.00  0.00    +0.000 C 
ATOM      3  C   UNL     1       5.249   6.178  15.889  0.00  0.00    +0.000 C 
ATOM      4  N   UNL     1       6.695   6.319  16.213  0.00  0.00    +0.000 NA
ATOM      5  C   UNL     1       6.801   6.615  17.663  0.00  0.00    +0.000 C 
ATOM      6  C   UNL     1       6.086   5.603  18.586  0.00  0.00    +0.000 C 
ENDROOT
BRANCH   1  12
ATOM      7  C   UNL     1       3.222   4.495  19.976  0.00  0.00    +0.000 A 
ATOM      8  C   UNL     1       2.123   4.649  20.844  0.00  0.00    +0.000 A 
ATOM      9  C   UNL     1       1.455   5.865  20.955  0.00  0.00    +0.000 A 
ATOM     10  C   UNL     1       1.867   6.938  20.186  0.00  0.00    +0.000 A 
ATOM     11  C   UNL     1       2.932   6.785  19.295  0.00  0.00    +0.000 A 
ATOM     12  C   UNL     1       3.643   5.573  19.149  0.00  0.00    +0.000 A 
BRANCH   7  14
ATOM     13  C   UNL     1       3.363   2.279  19.098  0.00  0.00    +0.000 C 
ATOM     14  O   UNL     1       3.922   3.310  19.903  0.00  0.00    +0.000 OA
ENDBRANCH   7  14
ENDBRANCH   1  12
BRANCH   4  15
ATOM     15  C   UNL     1       7.425   5.102  15.817  0.00  0.00    +0.000 C 
BRANCH  15  16
ATOM     16  C   UNL     1       7.142   4.678  14.399  0.00  0.00    +0.000 A 
ATOM     17  C   UNL     1       7.709   5.146  13.228  0.00  0.00    +0.000 A 
ATOM     18  C   UNL     1       7.150   4.527  12.071  0.00  0.00    +0.000 A 
ATOM     19  C   UNL     1       6.185   3.598  12.396  0.00  0.00    +0.000 A 
ATOM     20  S   UNL     1       5.960   3.477  14.080  0.00  0.00    +0.000 S 
BRANCH  19  21
ATOM     21  C   UNL     1       5.397   2.774  11.507  0.00  0.00    +0.000 C 
ATOM     22  O   UNL     1       4.196   2.936  11.279  0.00  0.00    +0.000 OA
ENDBRANCH  19  21
ENDBRANCH  15  16
ENDBRANCH   4  15
TORSDOF 5
ENDMDL
MODEL 2
REMARK VINA RESULT:      -6.3      1.490      1.971
REMARK  Name = 
REMARK  6 active torsions:
REMARK  status: ('A' for Active; 'I' for Inactive)
REMARK    1  A    between atoms: C_1  and  O_2
REMARK    2  A    between atoms: O_2  and  C_3
REMARK    3  A    between atoms: C_8  and  N_9
REMARK    4  A    between atoms: N_12  and  C_13
REMARK    5  A    between atoms: C_13  and  C_14
REMARK    6  A    between atoms: C_17  and  C_18
REMARK                            x       y       z     vdW  Elec       q    Type
REMARK                         _______ _______ _______ _____ _____    ______ ____
ROOT
ATOM      1  N   UNL     1       3.807   4.482  18.169  0.00  0.00    +0.000 N 
ATOM      2  C   UNL     1       4.171   5.897  18.000  0.00  0.00    +0.000 C 
ATOM      3  C   UNL     1       5.673   6.032  17.613  0.00  0.00    +0.000 C 
ATOM      4  N   UNL     1       6.155   5.172  16.499  0.00  0.00    +0.000 NA
ATOM      5  C   UNL     1       5.736   3.779  16.795  0.00  0.00    +0.000 C 
ATOM      6  C   UNL     1       4.225   3.601  17.066  0.00  0.00    +0.000 C 
ENDROOT
BRANCH   1  12
ATOM      7  C   UNL     1       3.492   3.098  20.218  0.00  0.00    +0.000 A 
ATOM      8  C   UNL     1       2.615   2.641  21.221  0.00  0.00    +0.000 A 
ATOM      9  C   UNL     1       1.311   3.118  21.312  0.00  0.00    +0.000 A 
ATOM     10  C   UNL     1       0.861   4.045  20.390  0.00  0.00    +0.000 A 
ATOM     11  C   UNL     1       1.712   4.478  19.370  0.00  0.00    +0.000 A 
ATOM     12  C   UNL     1       3.044   4.025  19.237  0.00  0.00    +0.000 A 
BRANCH   7  14
ATOM     13  C   UNL     1       5.099   1.413  20.748  0.00  0.00    +0.000 C 
ATOM     14  O   UNL     1       4.801   2.671  20.155  0.00  0.00    +0.000 OA
ENDBRANCH   7  14
ENDBRANCH   1  12
BRANCH   4  15
ATOM     15  C   UNL     1       5.638   5.669  15.212  0.00  0.00    +0.000 C 
BRANCH  15  16
ATOM     16  C   UNL     1       6.070   4.830  14.037  0.00  0.00    +0.000 A 
ATOM     17  C   UNL     1       7.250   4.892  13.319  0.00  0.00    +0.000 A 
ATOM     18  C   UNL     1       7.278   3.957  12.243  0.00  0.00    +0.000 A 
ATOM     19  C   UNL     1       6.126   3.203  12.182  0.00  0.00    +0.000 A 
ATOM     20  S   UNL     1       5.025   3.622  13.413  0.00  0.00    +0.000 S 
BRANCH  19  21
ATOM     21  C   UNL     1       5.783   2.164  11.238  0.00  0.00    +0.000 C 
ATOM     22  O   UNL     1       6.406   1.110  11.094  0.00  0.00    +0.000 OA
ENDBRANCH  19  21
ENDBRANCH  15  16
ENDBRANCH   4  15
TORSDOF 5
ENDMDL
MODEL 3
REMARK VINA RESULT:      -6.2      1.093      2.002
REMARK  Name = 
REMARK  6 active torsions:
REMARK  status: ('A' for Active; 'I' for Inactive)
REMARK    1  A    between atoms: C_1  and  O_2
REMARK    2  A    between atoms: O_2  and  C_3
REMARK    3  A    between atoms: C_8  and  N_9
REMARK    4  A    between atoms: N_12  and  C_13
REMARK    5  A    between atoms: C_13  and  C_14
REMARK    6  A    between atoms: C_17  and  C_18
REMARK                            x       y       z     vdW  Elec       q    Type
REMARK                         _______ _______ _______ _____ _____    ______ ____
ROOT
ATOM      1  N   UNL     1       4.592   4.554  18.425  0.00  0.00    +0.000 N 
ATOM      2  C   UNL     1       4.406   4.274  16.993  0.00  0.00    +0.000 C 
ATOM      3  C   UNL     1       4.865   5.488  16.135  0.00  0.00    +0.000 C 
ATOM      4  N   UNL     1       6.204   6.057  16.445  0.00  0.00    +0.000 NA
ATOM      5  C   UNL     1       6.258   6.302  17.907  0.00  0.00    +0.000 C 
ATOM      6  C   UNL     1       5.921   5.075  18.784  0.00  0.00    +0.000 C 
ENDROOT
BRANCH   1  12
ATOM      7  C   UNL     1       2.520   5.095  19.700  0.00  0.00    +0.000 A 
ATOM      8  C   UNL     1       1.636   4.740  20.738  0.00  0.00    +0.000 A 
ATOM      9  C   UNL     1       1.786   3.547  21.439  0.00  0.00    +0.000 A 
ATOM     10  C   UNL     1       2.834   2.702  21.123  0.00  0.00    +0.000 A 
ATOM     11  C   UNL     1       3.738   3.062  20.121  0.00  0.00    +0.000 A 
ATOM     12  C   UNL     1       3.626   4.260  19.379  0.00  0.00    +0.000 A 
BRANCH   7  14
ATOM     13  C   UNL     1       2.213   7.462  19.692  0.00  0.00    +0.000 C 
ATOM     14  O   UNL     1       2.344   6.247  18.965  0.00  0.00    +0.000 OA
ENDBRANCH   7  14
ENDBRANCH   1  12
BRANCH   4  15
ATOM     15  C   UNL     1       7.264   5.148  15.972  0.00  0.00    +0.000 C 
BRANCH  15  16
ATOM     16  C   UNL     1       7.090   4.735  14.533  0.00  0.00    +0.000 A 
ATOM     17  C   UNL     1       7.703   5.251  13.406  0.00  0.00    +0.000 A 
ATOM     18  C   UNL     1       7.249   4.625  12.209  0.00  0.00    +0.000 A 
ATOM     19  C   UNL     1       6.315   3.643  12.459  0.00  0.00    +0.000 A 
ATOM     20  S   UNL     1       5.993   3.482  14.125  0.00  0.00    +0.000 S 
BRANCH  19  21
ATOM     21  C   UNL     1       5.626   2.797  11.511  0.00  0.00    +0.000 C 
ATOM     22  O   UNL     1       4.407   2.798  11.325  0.00  0.00    +0.000 OA
ENDBRANCH  19  21
ENDBRANCH  15  16
ENDBRANCH   4  15
TORSDOF 5
ENDMDL
MODEL 4
REMARK VINA RESULT:      -6.2      1.064      1.179
REMARK  Name = 
REMARK  6 active torsions:
REMARK  status: ('A' for Active; 'I' for Inactive)
REMARK    1  A    between atoms: C_1  and  O_2
REMARK    2  A    between atoms: O_2  and  C_3
REMARK    3  A    between atoms: C_8  and  N_9
REMARK    4  A    between atoms: N_12  and  C_13
REMARK    5  A    between atoms: C_13  and  C_14
REMARK    6  A    between atoms: C_17  and  C_18
REMARK                            x       y       z     vdW  Elec       q    Type
REMARK                         _______ _______ _______ _____ _____    ______ ____
ROOT
ATOM      1  N   UNL     1       4.346   4.693  18.158  0.00  0.00    +0.000 N 
ATOM      2  C   UNL     1       4.295   4.657  16.689  0.00  0.00    +0.000 C 
ATOM      3  C   UNL     1       5.107   5.841  16.086  0.00  0.00    +0.000 C 
ATOM      4  N   UNL     1       6.483   6.043  16.614  0.00  0.00    +0.000 NA
ATOM      5  C   UNL     1       6.394   6.071  18.095  0.00  0.00    +0.000 C 
ATOM      6  C   UNL     1       5.695   4.846  18.726  0.00  0.00    +0.000 C 
ENDROOT
BRANCH   1  12
ATOM      7  C   UNL     1       2.376   3.357  18.899  0.00  0.00    +0.000 A 
ATOM      8  C   UNL     1       1.217   3.289  19.697  0.00  0.00    +0.000 A 
ATOM      9  C   UNL     1       0.896   4.306  20.591  0.00  0.00    +0.000 A 
ATOM     10  C   UNL     1       1.720   5.412  20.687  0.00  0.00    +0.000 A 
ATOM     11  C   UNL     1       2.852   5.505  19.874  0.00  0.00    +0.000 A 
ATOM     12  C   UNL     1       3.222   4.499  18.953  0.00  0.00    +0.000 A 
BRANCH   7  14
ATOM     13  C   UNL     1       3.613   1.341  18.569  0.00  0.00    +0.000 C 
ATOM     14  O   UNL     1       2.730   2.328  18.052  0.00  0.00    +0.000 OA
ENDBRANCH   7  14
ENDBRANCH   1  12
BRANCH   4  15
ATOM     15  C   UNL     1       7.381   4.991  16.108  0.00  0.00    +0.000 C 
BRANCH  15  16
ATOM     16  C   UNL     1       7.124   4.636  14.666  0.00  0.00    +0.000 A 
ATOM     17  C   UNL     1       7.671   5.199  13.528  0.00  0.00    +0.000 A 
ATOM     18  C   UNL     1       7.148   4.622  12.334  0.00  0.00    +0.000 A 
ATOM     19  C   UNL     1       6.231   3.627  12.598  0.00  0.00    +0.000 A 
ATOM     20  S   UNL     1       6.006   3.397  14.272  0.00  0.00    +0.000 S 
BRANCH  19  21
ATOM     21  C   UNL     1       5.489   2.818  11.658  0.00  0.00    +0.000 C 
ATOM     22  O   UNL     1       5.783   1.664  11.338  0.00  0.00    +0.000 OA
ENDBRANCH  19  21
ENDBRANCH  15  16
ENDBRANCH   4  15
TORSDOF 5
ENDMDL
MODEL 5
REMARK VINA RESULT:      -6.0      2.228      7.501
REMARK  Name = 
REMARK  6 active torsions:
REMARK  status: ('A' for Active; 'I' for Inactive)
REMARK    1  A    between atoms: C_1  and  O_2
REMARK    2  A    between atoms: O_2  and  C_3
REMARK    3  A    between atoms: C_8  and  N_9
REMARK    4  A    between atoms: N_12  and  C_13
REMARK    5  A    between atoms: C_13  and  C_14
REMARK    6  A    between atoms: C_17  and  C_18
REMARK                            x       y       z     vdW  Elec       q    Type
REMARK                         _______ _______ _______ _____ _____    ______ ____
ROOT
ATOM      1  N   UNL     1       6.092   4.576  15.442  0.00  0.00    +0.000 N 
ATOM      2  C   UNL     1       7.198   4.905  16.354  0.00  0.00    +0.000 C 
ATOM      3  C   UNL     1       6.840   6.148  17.220  0.00  0.00    +0.000 C 
ATOM      4  N   UNL     1       5.516   6.130  17.898  0.00  0.00    +0.000 NA
ATOM      5  C   UNL     1       4.494   5.800  16.873  0.00  0.00    +0.000 C 
ATOM      6  C   UNL     1       4.768   4.502  16.080  0.00  0.00    +0.000 C 
ENDROOT
BRANCH   1  12
ATOM      7  C   UNL     1       7.321   4.807  13.286  0.00  0.00    +0.000 A 
ATOM      8  C   UNL     1       7.393   4.481  11.918  0.00  0.00    +0.000 A 
ATOM      9  C   UNL     1       6.499   3.583  11.341  0.00  0.00    +0.000 A 
ATOM     10  C   UNL     1       5.510   3.014  12.122  0.00  0.00    +0.000 A 
ATOM     11  C   UNL     1       5.407   3.359  13.472  0.00  0.00    +0.000 A 
ATOM     12  C   UNL     1       6.292   4.263  14.103  0.00  0.00    +0.000 A 
BRANCH   7  14
ATOM     13  C   UNL     1       9.286   6.143  13.050  0.00  0.00    +0.000 C 
ATOM     14  O   UNL     1       8.236   5.652  13.875  0.00  0.00    +0.000 OA
ENDBRANCH   7  14
ENDBRANCH   1  12
BRANCH   4  15
ATOM     15  C   UNL     1       5.533   5.181  19.024  0.00  0.00    +0.000 C 
BRANCH  15  16
ATOM     16  C   UNL     1       4.167   4.935  19.611  0.00  0.00    +0.000 A 
ATOM     17  C   UNL     1       3.181   5.854  19.919  0.00  0.00    +0.000 A 
ATOM     18  C   UNL     1       2.034   5.241  20.502  0.00  0.00    +0.000 A 
ATOM     19  C   UNL     1       2.173   3.874  20.608  0.00  0.00    +0.000 A 
ATOM     20  S   UNL     1       3.676   3.340  20.008  0.00  0.00    +0.000 S 
BRANCH  19  21
ATOM     21  C   UNL     1       1.234   2.915  21.144  0.00  0.00    +0.000 C 
ATOM     22  O   UNL     1       1.354   2.347  22.232  0.00  0.00    +0.000 OA
ENDBRANCH  19  21
ENDBRANCH  15  16
ENDBRANCH   4  15
TORSDOF 5
ENDMDL
MODEL 6
REMARK VINA RESULT:      -5.9      2.930      4.880
REMARK  Name = 
REMARK  6 active torsions:
REMARK  status: ('A' for Active; 'I' for Inactive)
REMARK    1  A    between atoms: C_1  and  O_2
REMARK    2  A    between atoms: O_2  and  C_3
REMARK    3  A    between atoms: C_8  and  N_9
REMARK    4  A    between atoms: N_12  and  C_13
REMARK    5  A    between atoms: C_13  and  C_14
REMARK    6  A    between atoms: C_17  and  C_18
REMARK                            x       y       z     vdW  Elec       q    Type
REMARK                         _______ _______ _______ _____ _____    ______ ____
ROOT
ATOM      1  N   UNL     1       2.014   7.160  20.115  0.00  0.00    +0.000 N 
ATOM      2  C   UNL     1       1.995   5.856  20.795  0.00  0.00    +0.000 C 
ATOM      3  C   UNL     1       1.818   4.704  19.763  0.00  0.00    +0.000 C 
ATOM      4  N   UNL     1       2.716   4.727  18.577  0.00  0.00    +0.000 NA
ATOM      5  C   UNL     1       2.635   6.083  17.981  0.00  0.00    +0.000 C 
ATOM      6  C   UNL     1       2.925   7.241  18.962  0.00  0.00    +0.000 C 
ENDROOT
BRANCH   1  12
ATOM      7  C   UNL     1       0.983   9.407  19.805  0.00  0.00    +0.000 A 
ATOM      8  C   UNL     1       0.321  10.503  20.392  0.00  0.00    +0.000 A 
ATOM      9  C   UNL     1      -0.082  10.475  21.723  0.00  0.00    +0.000 A 
ATOM     10  C   UNL     1       0.188   9.357  22.490  0.00  0.00    +0.000 A 
ATOM     11  C   UNL     1       0.876   8.279  21.928  0.00  0.00    +0.000 A 
ATOM     12  C   UNL     1       1.303   8.259  20.581  0.00  0.00    +0.000 A 
BRANCH   7  14
ATOM     13  C   UNL     1       1.920  10.598  17.959  0.00  0.00    +0.000 C 
ATOM     14  O   UNL     1       1.336   9.407  18.472  0.00  0.00    +0.000 OA
ENDBRANCH   7  14
ENDBRANCH   1  12
BRANCH   4  15
ATOM     15  C   UNL     1       4.085   4.348  18.969  0.00  0.00    +0.000 C 
BRANCH  15  16
ATOM     16  C   UNL     1       5.122   4.744  17.950  0.00  0.00    +0.000 A 
ATOM     17  C   UNL     1       6.173   5.632  18.087  0.00  0.00    +0.000 A 
ATOM     18  C   UNL     1       6.919   5.778  16.881  0.00  0.00    +0.000 A 
ATOM     19  C   UNL     1       6.424   4.988  15.866  0.00  0.00    +0.000 A 
ATOM     20  S   UNL     1       5.072   4.081  16.369  0.00  0.00    +0.000 S 
BRANCH  19  21
ATOM     21  C   UNL     1       6.904   4.864  14.509  0.00  0.00    +0.000 C 
ATOM     22  O   UNL     1       7.891   5.450  14.057  0.00  0.00    +0.000 OA
ENDBRANCH  19  21
ENDBRANCH  15  16
ENDBRANCH   4  15
TORSDOF 5
ENDMDL
MODEL 7
REMARK VINA RESULT:      -5.9      4.177      8.491
REMARK  Name = 
REMARK  6 active torsions:
REMARK  status: ('A' for Active; 'I' for Inactive)
REMARK    1  A    between atoms: C_1  and  O_2
REMARK    2  A    between atoms: O_2  and  C_3
REMARK    3  A    between atoms: C_8  and  N_9
REMARK    4  A    between atoms: N_12  and  C_13
REMARK    5  A    between atoms: C_13  and  C_14
REMARK    6  A    between atoms: C_17  and  C_18
REMARK                            x       y       z     vdW  Elec       q    Type
REMARK                         _______ _______ _______ _____ _____    ______ ____
ROOT
ATOM      1  N   UNL     1       4.313   6.173  18.070  0.00  0.00    +0.000 N 
ATOM      2  C   UNL     1       3.888   7.571  17.902  0.00  0.00    +0.000 C 
ATOM      3  C   UNL     1       2.345   7.696  18.061  0.00  0.00    +0.000 C 
ATOM      4  N   UNL     1       1.743   7.047  19.257  0.00  0.00    +0.000 NA
ATOM      5  C   UNL     1       2.239   5.649  19.304  0.00  0.00    +0.000 C 
ATOM      6  C   UNL     1       3.777   5.504  19.267  0.00  0.00    +0.000 C 
ENDROOT
BRANCH   1  12
ATOM      7  C   UNL     1       6.452   4.969  17.636  0.00  0.00    +0.000 A 
ATOM      8  C   UNL     1       7.344   4.436  16.685  0.00  0.00    +0.000 A 
ATOM      9  C   UNL     1       7.033   4.422  15.329  0.00  0.00    +0.000 A 
ATOM     10  C   UNL     1       5.831   4.958  14.904  0.00  0.00    +0.000 A 
ATOM     11  C   UNL     1       4.955   5.523  15.834  0.00  0.00    +0.000 A 
ATOM     12  C   UNL     1       5.225   5.558  17.221  0.00  0.00    +0.000 A 
BRANCH   7  14
ATOM     13  C   UNL     1       7.796   5.758  19.444  0.00  0.00    +0.000 C 
ATOM     14  O   UNL     1       6.730   4.936  18.985  0.00  0.00    +0.000 OA
ENDBRANCH   7  14
ENDBRANCH   1  12
BRANCH   4  15
ATOM     15  C   UNL     1       2.068   7.816  20.471  0.00  0.00    +0.000 C 
BRANCH  15  16
ATOM     16  C   UNL     1       1.045   8.876  20.790  0.00  0.00    +0.000 A 
ATOM     17  C   UNL     1       0.352   9.698  19.921  0.00  0.00    +0.000 A 
ATOM     18  C   UNL     1      -0.505  10.609  20.604  0.00  0.00    +0.000 A 
ATOM     19  C   UNL     1      -0.450  10.445  21.972  0.00  0.00    +0.000 A 
ATOM     20  S   UNL     1       0.626   9.202  22.421  0.00  0.00    +0.000 S 
BRANCH  19  21
ATOM     21  C   UNL     1      -1.166  11.176  22.993  0.00  0.00    +0.000 C 
ATOM     22  O   UNL     1      -1.280  12.403  23.028  0.00  0.00    +0.000 OA
ENDBRANCH  19  21
ENDBRANCH  15  16
ENDBRANCH   4  15
TORSDOF 5
ENDMDL
MODEL 8
REMARK VINA RESULT:      -5.8      2.451      7.378
REMARK  Name = 
REMARK  6 active torsions:
REMARK  status: ('A' for Active; 'I' for Inactive)
REMARK    1  A    between atoms: C_1  and  O_2
REMARK    2  A    between atoms: O_2  and  C_3
REMARK    3  A    between atoms: C_8  and  N_9
REMARK    4  A    between atoms: N_12  and  C_13
REMARK    5  A    between atoms: C_13  and  C_14
REMARK    6  A    between atoms: C_17  and  C_18
REMARK                            x       y       z     vdW  Elec       q    Type
REMARK                         _______ _______ _______ _____ _____    ______ ____
ROOT
ATOM      1  N   UNL     1       5.322   4.853  15.097  0.00  0.00    +0.000 N 
ATOM      2  C   UNL     1       4.698   4.023  16.139  0.00  0.00    +0.000 C 
ATOM      3  C   UNL     1       5.224   4.427  17.547  0.00  0.00    +0.000 C 
ATOM      4  N   UNL     1       5.207   5.878  17.875  0.00  0.00    +0.000 NA
ATOM      5  C   UNL     1       5.871   6.596  16.759  0.00  0.00    +0.000 C 
ATOM      6  C   UNL     1       5.287   6.301  15.359  0.00  0.00    +0.000 C 
ENDROOT
BRANCH   1  12
ATOM      7  C   UNL     1       7.083   4.648  13.345  0.00  0.00    +0.000 A 
ATOM      8  C   UNL     1       7.464   4.111  12.100  0.00  0.00    +0.000 A 
ATOM      9  C   UNL     1       6.646   3.215  11.418  0.00  0.00    +0.000 A 
ATOM     10  C   UNL     1       5.427   2.858  11.965  0.00  0.00    +0.000 A 
ATOM     11  C   UNL     1       5.023   3.412  13.182  0.00  0.00    +0.000 A 
ATOM     12  C   UNL     1       5.819   4.323  13.913  0.00  0.00    +0.000 A 
BRANCH   7  14
ATOM     13  C   UNL     1       9.042   6.011  13.361  0.00  0.00    +0.000 C 
ATOM     14  O   UNL     1       7.912   5.492  14.051  0.00  0.00    +0.000 OA
ENDBRANCH   7  14
ENDBRANCH   1  12
BRANCH   4  15
ATOM     15  C   UNL     1       3.825   6.330  18.111  0.00  0.00    +0.000 C 
BRANCH  15  16
ATOM     16  C   UNL     1       2.925   5.235  18.624  0.00  0.00    +0.000 A 
ATOM     17  C   UNL     1       1.849   4.636  17.995  0.00  0.00    +0.000 A 
ATOM     18  C   UNL     1       1.214   3.662  18.819  0.00  0.00    +0.000 A 
ATOM     19  C   UNL     1       1.833   3.537  20.044  0.00  0.00    +0.000 A 
ATOM     20  S   UNL     1       3.166   4.588  20.193  0.00  0.00    +0.000 S 
BRANCH  19  21
ATOM     21  C   UNL     1       1.482   2.664  21.142  0.00  0.00    +0.000 C 
ATOM     22  O   UNL     1       1.807   2.847  22.317  0.00  0.00    +0.000 OA
ENDBRANCH  19  21
ENDBRANCH  15  16
ENDBRANCH   4  15
TORSDOF 5
ENDMDL
MODEL 9
REMARK VINA RESULT:      -5.8      1.329      2.376
REMARK  Name = 
REMARK  6 active torsions:
REMARK  status: ('A' for Active; 'I' for Inactive)
REMARK    1  A    between atoms: C_1  and  O_2
REMARK    2  A    between atoms: O_2  and  C_3
REMARK    3  A    between atoms: C_8  and  N_9
REMARK    4  A    between atoms: N_12  and  C_13
REMARK    5  A    between atoms: C_13  and  C_14
REMARK    6  A    between atoms: C_17  and  C_18
REMARK                            x       y       z     vdW  Elec       q    Type
REMARK                         _______ _______ _______ _____ _____    ______ ____
ROOT
ATOM      1  N   UNL     1       4.409   4.518  18.364  0.00  0.00    +0.000 N 
ATOM      2  C   UNL     1       5.419   5.575  18.527  0.00  0.00    +0.000 C 
ATOM      3  C   UNL     1       6.818   5.068  18.070  0.00  0.00    +0.000 C 
ATOM      4  N   UNL     1       6.886   4.401  16.742  0.00  0.00    +0.000 NA
ATOM      5  C   UNL     1       5.831   3.357  16.712  0.00  0.00    +0.000 C 
ATOM      6  C   UNL     1       4.410   3.862  17.047  0.00  0.00    +0.000 C 
ENDROOT
BRANCH   1  12
ATOM      7  C   UNL     1       2.338   5.040  19.648  0.00  0.00    +0.000 A 
ATOM      8  C   UNL     1       1.477   4.693  20.708  0.00  0.00    +0.000 A 
ATOM      9  C   UNL     1       1.671   3.528  21.445  0.00  0.00    +0.000 A 
ATOM     10  C   UNL     1       2.739   2.704  21.143  0.00  0.00    +0.000 A 
ATOM     11  C   UNL     1       3.620   3.057  20.118  0.00  0.00    +0.000 A 
ATOM     12  C   UNL     1       3.464   4.227  19.340  0.00  0.00    +0.000 A 
BRANCH   7  14
ATOM     13  C   UNL     1       2.273   7.423  19.520  0.00  0.00    +0.000 C 
ATOM     14  O   UNL     1       2.119   6.162  18.880  0.00  0.00    +0.000 OA
ENDBRANCH   7  14
ENDBRANCH   1  12
BRANCH   4  15
ATOM     15  C   UNL     1       6.744   5.397  15.665  0.00  0.00    +0.000 C 
BRANCH  15  16
ATOM     16  C   UNL     1       6.687   4.778  14.292  0.00  0.00    +0.000 A 
ATOM     17  C   UNL     1       7.596   4.890  13.256  0.00  0.00    +0.000 A 
ATOM     18  C   UNL     1       7.174   4.191  12.088  0.00  0.00    +0.000 A 
ATOM     19  C   UNL     1       5.964   3.555  12.273  0.00  0.00    +0.000 A 
ATOM     20  S   UNL     1       5.349   3.804  13.843  0.00  0.00    +0.000 S 
BRANCH  19  21
ATOM     21  C   UNL     1       5.217   2.756  11.329  0.00  0.00    +0.000 C 
ATOM     22  O   UNL     1       4.028   2.926  11.050  0.00  0.00    +0.000 OA
ENDBRANCH  19  21
ENDBRANCH  15  16
ENDBRANCH   4  15
TORSDOF 5
ENDMDL
