MODEL 1
REMARK VINA RESULT:      -7.5      0.000      0.000
REMARK  Name = 
REMARK  13 active torsions:
REMARK  status: ('A' for Active; 'I' for Inactive)
REMARK    1  A    between atoms: C_1  and  C_2
REMARK    2  A    between atoms: C_2  and  O_3
REMARK    3  A    between atoms: O_3  and  S_4
REMARK    4  A    between atoms: S_4  and  C_7
REMARK    5  A    between atoms: C_8  and  C_9
REMARK    6  A    between atoms: C_9  and  C_10
REMARK    7  A    between atoms: C_9  and  N_17
REMARK    8  A    between atoms: C_10  and  C_11
REMARK    9  A    between atoms: C_18  and  O_20
REMARK   10  A    between atoms: O_20  and  C_21
REMARK   11  A    between atoms: C_21  and  C_22
REMARK   12  A    between atoms: C_21  and  C_23
REMARK   13  A    between atoms: C_21  and  C_24
REMARK                            x       y       z     vdW  Elec       q    Type
REMARK                         _______ _______ _______ _____ _____    ______ ____
ROOT
ATOM      1  C   UNL     1       3.179   6.913  18.203  0.00  0.00    +0.000 C 
ENDROOT
BRANCH   1   2
ATOM      2  N   UNL     1       2.579   8.199  17.895  0.00  0.00    +0.000 N 
ATOM      3  C   UNL     1       1.770   8.819  18.804  0.00  0.00    +0.000 C 
ATOM      4  O   UNL     1       1.563   8.378  19.927  0.00  0.00    +0.000 OA
ATOM      5  H   UNL     1       2.608   8.586  16.960  0.00  0.00    +0.000 HD
BRANCH   3   6
ATOM      6  O   UNL     1       1.256   9.972  18.303  0.00  0.00    +0.000 OA
BRANCH   6   7
ATOM      7  C   UNL     1       0.364  10.755  19.146  0.00  0.00    +0.000 C 
ATOM      8  C   UNL     1       0.830  10.752  20.611  0.00  0.00    +0.000 C 
ATOM      9  C   UNL     1       0.434  12.204  18.635  0.00  0.00    +0.000 C 
ATOM     10  C   UNL     1      -1.086  10.272  18.997  0.00  0.00    +0.000 C 
ENDBRANCH   6   7
ENDBRANCH   3   6
ENDBRANCH   1   2
BRANCH   1  12
ATOM     11  C   UNL     1       5.527   5.931  17.840  0.00  0.00    +0.000 C 
ATOM     12  C   UNL     1       4.526   6.773  17.531  0.00  0.00    +0.000 C 
BRANCH  11  13
ATOM     13  S   UNL     1       7.016   5.991  16.957  0.00  0.00    +0.000 S 
ATOM     14  O   UNL     1       7.810   4.828  17.303  0.00  0.00    +0.000 OA
ATOM     15  O   UNL     1       7.573   7.328  17.058  0.00  0.00    +0.000 OA
BRANCH  13  16
ATOM     16  O   UNL     1       6.474   5.793  15.432  0.00  0.00    +0.000 OA
BRANCH  16  18
ATOM     17  C   UNL     1       5.680   4.085  13.936  0.00  0.00    +0.000 C 
ATOM     18  C   UNL     1       6.831   4.577  14.790  0.00  0.00    +0.000 C 
ENDBRANCH  16  18
ENDBRANCH  13  16
ENDBRANCH  11  13
ENDBRANCH   1  12
BRANCH   1  19
ATOM     19  C   UNL     1       2.278   5.715  17.825  0.00  0.00    +0.000 C 
BRANCH  19  20
ATOM     20  C   UNL     1       1.983   4.777  18.973  0.00  0.00    +0.000 A 
ATOM     21  C   UNL     1       1.233   3.613  18.756  0.00  0.00    +0.000 A 
ATOM     22  C   UNL     1       0.941   2.752  19.814  0.00  0.00    +0.000 A 
ATOM     23  C   UNL     1       1.404   3.038  21.097  0.00  0.00    +0.000 A 
ATOM     24  C   UNL     1       2.178   4.174  21.319  0.00  0.00    +0.000 A 
ATOM     25  C   UNL     1       2.475   5.034  20.262  0.00  0.00    +0.000 A 
ENDBRANCH  19  20
ENDBRANCH   1  19
TORSDOF 9
ENDMDL
MODEL 2
REMARK VINA RESULT:      -7.4      0.588      1.182
REMARK  Name = 
REMARK  13 active torsions:
REMARK  status: ('A' for Active; 'I' for Inactive)
REMARK    1  A    between atoms: C_1  and  C_2
REMARK    2  A    between atoms: C_2  and  O_3
REMARK    3  A    between atoms: O_3  and  S_4
REMARK    4  A    between atoms: S_4  and  C_7
REMARK    5  A    between atoms: C_8  and  C_9
REMARK    6  A    between atoms: C_9  and  C_10
REMARK    7  A    between atoms: C_9  and  N_17
REMARK    8  A    between atoms: C_10  and  C_11
REMARK    9  A    between atoms: C_18  and  O_20
REMARK   10  A    between atoms: O_20  and  C_21
REMARK   11  A    between atoms: C_21  and  C_22
REMARK   12  A    between atoms: C_21  and  C_23
REMARK   13  A    between atoms: C_21  and  C_24
REMARK                            x       y       z     vdW  Elec       q    Type
REMARK                         _______ _______ _______ _____ _____    ______ ____
ROOT
ATOM      1  C   UNL     1       3.106   6.711  18.218  0.00  0.00    +0.000 C 
ENDROOT
BRANCH   1   2
ATOM      2  N   UNL     1       2.433   7.969  17.953  0.00  0.00    +0.000 N 
ATOM      3  C   UNL     1       1.808   8.645  18.962  0.00  0.00    +0.000 C 
ATOM      4  O   UNL     1       1.836   8.279  20.130  0.00  0.00    +0.000 OA
ATOM      5  H   UNL     1       2.268   8.292  17.008  0.00  0.00    +0.000 HD
BRANCH   3   6
ATOM      6  O   UNL     1       1.182   9.758  18.500  0.00  0.00    +0.000 OA
BRANCH   6   7
ATOM      7  C   UNL     1       0.353  10.518  19.423  0.00  0.00    +0.000 C 
ATOM      8  C   UNL     1       1.157  11.633  20.112  0.00  0.00    +0.000 C 
ATOM      9  C   UNL     1      -0.746  11.186  18.579  0.00  0.00    +0.000 C 
ATOM     10  C   UNL     1      -0.330   9.586  20.434  0.00  0.00    +0.000 C 
ENDBRANCH   6   7
ENDBRANCH   3   6
ENDBRANCH   1   2
BRANCH   1  12
ATOM     11  C   UNL     1       5.376   5.694  17.565  0.00  0.00    +0.000 C 
ATOM     12  C   UNL     1       4.426   6.643  17.484  0.00  0.00    +0.000 C 
BRANCH  11  13
ATOM     13  S   UNL     1       6.846   5.858  16.665  0.00  0.00    +0.000 S 
ATOM     14  O   UNL     1       7.667   4.686  16.895  0.00  0.00    +0.000 OA
ATOM     15  O   UNL     1       7.381   7.192  16.871  0.00  0.00    +0.000 OA
BRANCH  13  16
ATOM     16  O   UNL     1       6.278   5.781  15.139  0.00  0.00    +0.000 OA
BRANCH  16  18
ATOM     17  C   UNL     1       6.313   3.930  13.603  0.00  0.00    +0.000 C 
ATOM     18  C   UNL     1       5.608   4.582  14.776  0.00  0.00    +0.000 C 
ENDBRANCH  16  18
ENDBRANCH  13  16
ENDBRANCH  11  13
ENDBRANCH   1  12
BRANCH   1  19
ATOM     19  C   UNL     1       2.248   5.475  17.867  0.00  0.00    +0.000 C 
BRANCH  19  20
ATOM     20  C   UNL     1       1.955   4.570  19.043  0.00  0.00    +0.000 A 
ATOM     21  C   UNL     1       2.452   4.885  20.314  0.00  0.00    +0.000 A 
ATOM     22  C   UNL     1       2.201   4.045  21.400  0.00  0.00    +0.000 A 
ATOM     23  C   UNL     1       1.443   2.889  21.229  0.00  0.00    +0.000 A 
ATOM     24  C   UNL     1       0.915   2.582  19.978  0.00  0.00    +0.000 A 
ATOM     25  C   UNL     1       1.161   3.423  18.892  0.00  0.00    +0.000 A 
ENDBRANCH  19  20
ENDBRANCH   1  19
TORSDOF 9
ENDMDL
MODEL 3
REMARK VINA RESULT:      -7.3      1.309      2.282
REMARK  Name = 
REMARK  13 active torsions:
REMARK  status: ('A' for Active; 'I' for Inactive)
REMARK    1  A    between atoms: C_1  and  C_2
REMARK    2  A    between atoms: C_2  and  O_3
REMARK    3  A    between atoms: O_3  and  S_4
REMARK    4  A    between atoms: S_4  and  C_7
REMARK    5  A    between atoms: C_8  and  C_9
REMARK    6  A    between atoms: C_9  and  C_10
REMARK    7  A    between atoms: C_9  and  N_17
REMARK    8  A    between atoms: C_10  and  C_11
REMARK    9  A    between atoms: C_18  and  O_20
REMARK   10  A    between atoms: O_20  and  C_21
REMARK   11  A    between atoms: C_21  and  C_22
REMARK   12  A    between atoms: C_21  and  C_23
REMARK   13  A    between atoms: C_21  and  C_24
REMARK                            x       y       z     vdW  Elec       q    Type
REMARK                         _______ _______ _______ _____ _____    ______ ____
ROOT
ATOM      1  C   UNL     1       3.298   6.740  18.359  0.00  0.00    +0.000 C 
ENDROOT
BRANCH   1   2
ATOM      2  N   UNL     1       2.784   8.050  17.999  0.00  0.00    +0.000 N 
ATOM      3  C   UNL     1       1.923   8.706  18.831  0.00  0.00    +0.000 C 
ATOM      4  O   UNL     1       1.595   8.277  19.930  0.00  0.00    +0.000 OA
ATOM      5  H   UNL     1       2.914   8.432  17.071  0.00  0.00    +0.000 HD
BRANCH   3   6
ATOM      6  O   UNL     1       1.505   9.878  18.287  0.00  0.00    +0.000 OA
BRANCH   6   7
ATOM      7  C   UNL     1       0.560  10.691  19.038  0.00  0.00    +0.000 C 
ATOM      8  C   UNL     1       0.830  10.613  20.549  0.00  0.00    +0.000 C 
ATOM      9  C   UNL     1       0.785  12.148  18.596  0.00  0.00    +0.000 C 
ATOM     10  C   UNL     1      -0.885  10.310  18.686  0.00  0.00    +0.000 C 
ENDBRANCH   6   7
ENDBRANCH   3   6
ENDBRANCH   1   2
BRANCH   1  12
ATOM     11  C   UNL     1       5.610   5.622  18.230  0.00  0.00    +0.000 C 
ATOM     12  C   UNL     1       4.726   6.576  17.889  0.00  0.00    +0.000 C 
BRANCH  11  13
ATOM     13  S   UNL     1       7.223   5.669  17.602  0.00  0.00    +0.000 S 
ATOM     14  O   UNL     1       7.163   5.924  16.177  0.00  0.00    +0.000 OA
ATOM     15  O   UNL     1       7.967   4.535  18.123  0.00  0.00    +0.000 OA
BRANCH  13  16
ATOM     16  O   UNL     1       7.794   7.013  18.329  0.00  0.00    +0.000 OA
BRANCH  16  18
ATOM     17  C   UNL     1       8.504   9.311  18.307  0.00  0.00    +0.000 C 
ATOM     18  C   UNL     1       7.867   8.181  17.523  0.00  0.00    +0.000 C 
ENDBRANCH  16  18
ENDBRANCH  13  16
ENDBRANCH  11  13
ENDBRANCH   1  12
BRANCH   1  19
ATOM     19  C   UNL     1       2.433   5.578  17.823  0.00  0.00    +0.000 C 
BRANCH  19  20
ATOM     20  C   UNL     1       1.990   4.595  18.885  0.00  0.00    +0.000 A 
ATOM     21  C   UNL     1       2.270   4.844  20.235  0.00  0.00    +0.000 A 
ATOM     22  C   UNL     1       1.881   3.933  21.217  0.00  0.00    +0.000 A 
ATOM     23  C   UNL     1       1.200   2.770  20.863  0.00  0.00    +0.000 A 
ATOM     24  C   UNL     1       0.887   2.528  19.528  0.00  0.00    +0.000 A 
ATOM     25  C   UNL     1       1.271   3.439  18.544  0.00  0.00    +0.000 A 
ENDBRANCH  19  20
ENDBRANCH   1  19
TORSDOF 9
ENDMDL
MODEL 4
REMARK VINA RESULT:      -7.2      1.739      4.960
REMARK  Name = 
REMARK  13 active torsions:
REMARK  status: ('A' for Active; 'I' for Inactive)
REMARK    1  A    between atoms: C_1  and  C_2
REMARK    2  A    between atoms: C_2  and  O_3
REMARK    3  A    between atoms: O_3  and  S_4
REMARK    4  A    between atoms: S_4  and  C_7
REMARK    5  A    between atoms: C_8  and  C_9
REMARK    6  A    between atoms: C_9  and  C_10
REMARK    7  A    between atoms: C_9  and  N_17
REMARK    8  A    between atoms: C_10  and  C_11
REMARK    9  A    between atoms: C_18  and  O_20
REMARK   10  A    between atoms: O_20  and  C_21
REMARK   11  A    between atoms: C_21  and  C_22
REMARK   12  A    between atoms: C_21  and  C_23
REMARK   13  A    between atoms: C_21  and  C_24
REMARK                            x       y       z     vdW  Elec       q    Type
REMARK                         _______ _______ _______ _____ _____    ______ ____
ROOT
ATOM      1  C   UNL     1       3.114   6.984  17.617  0.00  0.00    +0.000 C 
ENDROOT
BRANCH   1   2
ATOM      2  N   UNL     1       2.833   6.164  18.781  0.00  0.00    +0.000 N 
ATOM      3  C   UNL     1       2.067   5.040  18.665  0.00  0.00    +0.000 C 
ATOM      4  O   UNL     1       1.641   4.627  17.594  0.00  0.00    +0.000 OA
ATOM      5  H   UNL     1       3.052   6.481  19.717  0.00  0.00    +0.000 HD
BRANCH   3   6
ATOM      6  O   UNL     1       1.864   4.452  19.873  0.00  0.00    +0.000 OA
BRANCH   6   7
ATOM      7  C   UNL     1       2.420   3.126  20.098  0.00  0.00    +0.000 C 
ATOM      8  C   UNL     1       3.926   3.090  19.796  0.00  0.00    +0.000 C 
ATOM      9  C   UNL     1       2.235   2.820  21.594  0.00  0.00    +0.000 C 
ATOM     10  C   UNL     1       1.642   2.068  19.301  0.00  0.00    +0.000 C 
ENDBRANCH   6   7
ENDBRANCH   3   6
ENDBRANCH   1   2
BRANCH   1  12
ATOM     11  C   UNL     1       5.537   6.122  17.651  0.00  0.00    +0.000 C 
ATOM     12  C   UNL     1       4.462   6.635  17.026  0.00  0.00    +0.000 C 
BRANCH  11  13
ATOM     13  S   UNL     1       7.006   5.855  16.774  0.00  0.00    +0.000 S 
ATOM     14  O   UNL     1       7.662   4.679  17.309  0.00  0.00    +0.000 OA
ATOM     15  O   UNL     1       7.720   7.114  16.652  0.00  0.00    +0.000 OA
BRANCH  13  16
ATOM     16  O   UNL     1       6.417   5.474  15.302  0.00  0.00    +0.000 OA
BRANCH  16  18
ATOM     17  C   UNL     1       6.052   3.899  13.521  0.00  0.00    +0.000 C 
ATOM     18  C   UNL     1       6.328   4.089  14.999  0.00  0.00    +0.000 C 
ENDBRANCH  16  18
ENDBRANCH  13  16
ENDBRANCH  11  13
ENDBRANCH   1  12
BRANCH   1  19
ATOM     19  C   UNL     1       3.048   8.500  17.909  0.00  0.00    +0.000 C 
BRANCH  19  20
ATOM     20  C   UNL     1       1.814   8.930  18.671  0.00  0.00    +0.000 A 
ATOM     21  C   UNL     1       0.811   9.666  18.029  0.00  0.00    +0.000 A 
ATOM     22  C   UNL     1      -0.321  10.082  18.731  0.00  0.00    +0.000 A 
ATOM     23  C   UNL     1      -0.467   9.757  20.078  0.00  0.00    +0.000 A 
ATOM     24  C   UNL     1       0.508   8.997  20.719  0.00  0.00    +0.000 A 
ATOM     25  C   UNL     1       1.638   8.577  20.018  0.00  0.00    +0.000 A 
ENDBRANCH  19  20
ENDBRANCH   1  19
TORSDOF 9
ENDMDL
MODEL 5
REMARK VINA RESULT:      -7.2      0.764      1.185
REMARK  Name = 
REMARK  13 active torsions:
REMARK  status: ('A' for Active; 'I' for Inactive)
REMARK    1  A    between atoms: C_1  and  C_2
REMARK    2  A    between atoms: C_2  and  O_3
REMARK    3  A    between atoms: O_3  and  S_4
REMARK    4  A    between atoms: S_4  and  C_7
REMARK    5  A    between atoms: C_8  and  C_9
REMARK    6  A    between atoms: C_9  and  C_10
REMARK    7  A    between atoms: C_9  and  N_17
REMARK    8  A    between atoms: C_10  and  C_11
REMARK    9  A    between atoms: C_18  and  O_20
REMARK   10  A    between atoms: O_20  and  C_21
REMARK   11  A    between atoms: C_21  and  C_22
REMARK   12  A    between atoms: C_21  and  C_23
REMARK   13  A    between atoms: C_21  and  C_24
REMARK                            x       y       z     vdW  Elec       q    Type
REMARK                         _______ _______ _______ _____ _____    ______ ____
ROOT
ATOM      1  C   UNL     1       3.206   6.568  18.303  0.00  0.00    +0.000 C 
ENDROOT
BRANCH   1   2
ATOM      2  N   UNL     1       2.826   7.942  18.028  0.00  0.00    +0.000 N 
ATOM      3  C   UNL     1       2.054   8.636  18.915  0.00  0.00    +0.000 C 
ATOM      4  O   UNL     1       1.704   8.182  19.996  0.00  0.00    +0.000 OA
ATOM      5  H   UNL     1       2.979   8.362  17.119  0.00  0.00    +0.000 HD
BRANCH   3   6
ATOM      6  O   UNL     1       1.753   9.874  18.445  0.00  0.00    +0.000 OA
BRANCH   6   7
ATOM      7  C   UNL     1       0.462  10.450  18.794  0.00  0.00    +0.000 C 
ATOM      8  C   UNL     1       0.154  10.273  20.290  0.00  0.00    +0.000 C 
ATOM      9  C   UNL     1       0.563  11.959  18.512  0.00  0.00    +0.000 C 
ATOM     10  C   UNL     1      -0.648   9.877  17.901  0.00  0.00    +0.000 C 
ENDBRANCH   6   7
ENDBRANCH   3   6
ENDBRANCH   1   2
BRANCH   1  12
ATOM     11  C   UNL     1       5.496   5.406  18.166  0.00  0.00    +0.000 C 
ATOM     12  C   UNL     1       4.561   6.256  17.707  0.00  0.00    +0.000 C 
BRANCH  11  13
ATOM     13  S   UNL     1       7.010   5.252  17.340  0.00  0.00    +0.000 S 
ATOM     14  O   UNL     1       7.983   4.682  18.250  0.00  0.00    +0.000 OA
ATOM     15  O   UNL     1       7.291   6.488  16.631  0.00  0.00    +0.000 OA
BRANCH  13  16
ATOM     16  O   UNL     1       6.637   4.118  16.230  0.00  0.00    +0.000 OA
BRANCH  16  18
ATOM     17  C   UNL     1       5.582   4.261  14.073  0.00  0.00    +0.000 C 
ATOM     18  C   UNL     1       6.853   4.472  14.871  0.00  0.00    +0.000 C 
ENDBRANCH  16  18
ENDBRANCH  13  16
ENDBRANCH  11  13
ENDBRANCH   1  12
BRANCH   1  19
ATOM     19  C   UNL     1       2.166   5.538  17.809  0.00  0.00    +0.000 C 
BRANCH  19  20
ATOM     20  C   UNL     1       1.888   4.421  18.789  0.00  0.00    +0.000 A 
ATOM     21  C   UNL     1       1.626   4.714  20.134  0.00  0.00    +0.000 A 
ATOM     22  C   UNL     1       1.386   3.686  21.048  0.00  0.00    +0.000 A 
ATOM     23  C   UNL     1       1.395   2.359  20.626  0.00  0.00    +0.000 A 
ATOM     24  C   UNL     1       1.622   2.057  19.286  0.00  0.00    +0.000 A 
ATOM     25  C   UNL     1       1.857   3.082  18.369  0.00  0.00    +0.000 A 
ENDBRANCH  19  20
ENDBRANCH   1  19
TORSDOF 9
ENDMDL
MODEL 6
REMARK VINA RESULT:      -7.2      3.939      6.165
REMARK  Name = 
REMARK  13 active torsions:
REMARK  status: ('A' for Active; 'I' for Inactive)
REMARK    1  A    between atoms: C_1  and  C_2
REMARK    2  A    between atoms: C_2  and  O_3
REMARK    3  A    between atoms: O_3  and  S_4
REMARK    4  A    between atoms: S_4  and  C_7
REMARK    5  A    between atoms: C_8  and  C_9
REMARK    6  A    between atoms: C_9  and  C_10
REMARK    7  A    between atoms: C_9  and  N_17
REMARK    8  A    between atoms: C_10  and  C_11
REMARK    9  A    between atoms: C_18  and  O_20
REMARK   10  A    between atoms: O_20  and  C_21
REMARK   11  A    between atoms: C_21  and  C_22
REMARK   12  A    between atoms: C_21  and  C_23
REMARK   13  A    between atoms: C_21  and  C_24
REMARK                            x       y       z     vdW  Elec       q    Type
REMARK                         _______ _______ _______ _____ _____    ______ ____
ROOT
ATOM      1  C   UNL     1       5.148   4.682  15.948  0.00  0.00    +0.000 C 
ENDROOT
BRANCH   1   2
ATOM      2  N   UNL     1       3.987   4.069  16.569  0.00  0.00    +0.000 N 
ATOM      3  C   UNL     1       3.264   4.752  17.505  0.00  0.00    +0.000 C 
ATOM      4  O   UNL     1       3.498   5.912  17.817  0.00  0.00    +0.000 OA
ATOM      5  H   UNL     1       3.782   3.085  16.453  0.00  0.00    +0.000 HD
BRANCH   3   6
ATOM      6  O   UNL     1       2.264   3.986  18.014  0.00  0.00    +0.000 OA
BRANCH   6   7
ATOM      7  C   UNL     1       2.386   3.512  19.385  0.00  0.00    +0.000 C 
ATOM      8  C   UNL     1       3.857   3.292  19.773  0.00  0.00    +0.000 C 
ATOM      9  C   UNL     1       1.825   4.625  20.286  0.00  0.00    +0.000 C 
ATOM     10  C   UNL     1       1.533   2.254  19.603  0.00  0.00    +0.000 C 
ENDBRANCH   6   7
ENDBRANCH   3   6
ENDBRANCH   1   2
BRANCH   1  12
ATOM     11  C   UNL     1       6.227   3.645  13.857  0.00  0.00    +0.000 C 
ATOM     12  C   UNL     1       5.238   4.302  14.487  0.00  0.00    +0.000 C 
BRANCH  11  13
ATOM     13  S   UNL     1       6.138   3.370  12.150  0.00  0.00    +0.000 S 
ATOM     14  O   UNL     1       6.121   1.941  11.908  0.00  0.00    +0.000 OA
ATOM     15  O   UNL     1       7.103   4.226  11.481  0.00  0.00    +0.000 OA
BRANCH  13  16
ATOM     16  O   UNL     1       4.650   3.951  11.825  0.00  0.00    +0.000 OA
BRANCH  16  18
ATOM     17  C   UNL     1       3.164   3.986   9.934  0.00  0.00    +0.000 C 
ATOM     18  C   UNL     1       3.822   3.139  11.005  0.00  0.00    +0.000 C 
ENDBRANCH  16  18
ENDBRANCH  13  16
ENDBRANCH  11  13
ENDBRANCH   1  12
BRANCH   1  19
ATOM     19  C   UNL     1       6.474   4.336  16.661  0.00  0.00    +0.000 C 
BRANCH  19  20
ATOM     20  C   UNL     1       7.114   5.505  17.376  0.00  0.00    +0.000 A 
ATOM     21  C   UNL     1       7.686   5.328  18.643  0.00  0.00    +0.000 A 
ATOM     22  C   UNL     1       8.262   6.406  19.316  0.00  0.00    +0.000 A 
ATOM     23  C   UNL     1       8.283   7.668  18.727  0.00  0.00    +0.000 A 
ATOM     24  C   UNL     1       7.748   7.850  17.455  0.00  0.00    +0.000 A 
ATOM     25  C   UNL     1       7.175   6.773  16.778  0.00  0.00    +0.000 A 
ENDBRANCH  19  20
ENDBRANCH   1  19
TORSDOF 9
ENDMDL
MODEL 7
REMARK VINA RESULT:      -7.1      1.406      2.235
REMARK  Name = 
REMARK  13 active torsions:
REMARK  status: ('A' for Active; 'I' for Inactive)
REMARK    1  A    between atoms: C_1  and  C_2
REMARK    2  A    between atoms: C_2  and  O_3
REMARK    3  A    between atoms: O_3  and  S_4
REMARK    4  A    between atoms: S_4  and  C_7
REMARK    5  A    between atoms: C_8  and  C_9
REMARK    6  A    between atoms: C_9  and  C_10
REMARK    7  A    between atoms: C_9  and  N_17
REMARK    8  A    between atoms: C_10  and  C_11
REMARK    9  A    between atoms: C_18  and  O_20
REMARK   10  A    between atoms: O_20  and  C_21
REMARK   11  A    between atoms: C_21  and  C_22
REMARK   12  A    between atoms: C_21  and  C_23
REMARK   13  A    between atoms: C_21  and  C_24
REMARK                            x       y       z     vdW  Elec       q    Type
REMARK                         _______ _______ _______ _____ _____    ______ ____
ROOT
ATOM      1  C   UNL     1       2.964   6.327  18.188  0.00  0.00    +0.000 C 
ENDROOT
BRANCH   1   2
ATOM      2  N   UNL     1       2.295   7.564  17.827  0.00  0.00    +0.000 N 
ATOM      3  C   UNL     1       1.865   8.425  18.796  0.00  0.00    +0.000 C 
ATOM      4  O   UNL     1       2.074   8.249  19.989  0.00  0.00    +0.000 OA
ATOM      5  H   UNL     1       1.986   7.741  16.879  0.00  0.00    +0.000 HD
BRANCH   3   6
ATOM      6  O   UNL     1       1.205   9.484  18.260  0.00  0.00    +0.000 OA
BRANCH   6   7
ATOM      7  C   UNL     1       0.410  10.323  19.145  0.00  0.00    +0.000 C 
ATOM      8  C   UNL     1       1.216  11.532  19.646  0.00  0.00    +0.000 C 
ATOM      9  C   UNL     1      -0.764  10.857  18.306  0.00  0.00    +0.000 C 
ATOM     10  C   UNL     1      -0.174   9.495  20.299  0.00  0.00    +0.000 C 
ENDBRANCH   6   7
ENDBRANCH   3   6
ENDBRANCH   1   2
BRANCH   1  12
ATOM     11  C   UNL     1       5.477   6.107  17.688  0.00  0.00    +0.000 C 
ATOM     12  C   UNL     1       4.184   6.104  17.322  0.00  0.00    +0.000 C 
BRANCH  11  13
ATOM     13  S   UNL     1       6.717   5.883  16.501  0.00  0.00    +0.000 S 
ATOM     14  O   UNL     1       6.109   5.878  15.185  0.00  0.00    +0.000 OA
ATOM     15  O   UNL     1       7.586   4.798  16.922  0.00  0.00    +0.000 OA
BRANCH  13  16
ATOM     16  O   UNL     1       7.549   7.276  16.663  0.00  0.00    +0.000 OA
BRANCH  16  18
ATOM     17  C   UNL     1       8.200   9.130  18.050  0.00  0.00    +0.000 C 
ATOM     18  C   UNL     1       7.908   7.644  17.987  0.00  0.00    +0.000 C 
ENDBRANCH  16  18
ENDBRANCH  13  16
ENDBRANCH  11  13
ENDBRANCH   1  12
BRANCH   1  19
ATOM     19  C   UNL     1       2.040   5.091  18.119  0.00  0.00    +0.000 C 
BRANCH  19  20
ATOM     20  C   UNL     1       2.162   4.160  19.305  0.00  0.00    +0.000 A 
ATOM     21  C   UNL     1       3.354   3.459  19.529  0.00  0.00    +0.000 A 
ATOM     22  C   UNL     1       3.468   2.584  20.611  0.00  0.00    +0.000 A 
ATOM     23  C   UNL     1       2.396   2.409  21.484  0.00  0.00    +0.000 A 
ATOM     24  C   UNL     1       1.218   3.125  21.291  0.00  0.00    +0.000 A 
ATOM     25  C   UNL     1       1.104   4.003  20.213  0.00  0.00    +0.000 A 
ENDBRANCH  19  20
ENDBRANCH   1  19
TORSDOF 9
ENDMDL
MODEL 8
REMARK VINA RESULT:      -7.1      1.854      5.074
REMARK  Name = 
REMARK  13 active torsions:
REMARK  status: ('A' for Active; 'I' for Inactive)
REMARK    1  A    between atoms: C_1  and  C_2
REMARK    2  A    between atoms: C_2  and  O_3
REMARK    3  A    between atoms: O_3  and  S_4
REMARK    4  A    between atoms: S_4  and  C_7
REMARK    5  A    between atoms: C_8  and  C_9
REMARK    6  A    between atoms: C_9  and  C_10
REMARK    7  A    between atoms: C_9  and  N_17
REMARK    8  A    between atoms: C_10  and  C_11
REMARK    9  A    between atoms: C_18  and  O_20
REMARK   10  A    between atoms: O_20  and  C_21
REMARK   11  A    between atoms: C_21  and  C_22
REMARK   12  A    between atoms: C_21  and  C_23
REMARK   13  A    between atoms: C_21  and  C_24
REMARK                            x       y       z     vdW  Elec       q    Type
REMARK                         _______ _______ _______ _____ _____    ______ ____
ROOT
ATOM      1  C   UNL     1       2.833   6.698  17.744  0.00  0.00    +0.000 C 
ENDROOT
BRANCH   1   2
ATOM      2  N   UNL     1       2.350   5.841  18.812  0.00  0.00    +0.000 N 
ATOM      3  C   UNL     1       1.589   4.743  18.527  0.00  0.00    +0.000 C 
ATOM      4  O   UNL     1       1.333   4.384  17.385  0.00  0.00    +0.000 OA
ATOM      5  H   UNL     1       2.422   6.115  19.784  0.00  0.00    +0.000 HD
BRANCH   3   6
ATOM      6  O   UNL     1       1.182   4.115  19.660  0.00  0.00    +0.000 OA
BRANCH   6   7
ATOM      7  C   UNL     1       1.942   2.963  20.122  0.00  0.00    +0.000 C 
ATOM      8  C   UNL     1       1.637   2.644  21.595  0.00  0.00    +0.000 C 
ATOM      9  C   UNL     1       1.478   1.763  19.278  0.00  0.00    +0.000 C 
ATOM     10  C   UNL     1       3.443   3.165  19.870  0.00  0.00    +0.000 C 
ENDBRANCH   6   7
ENDBRANCH   3   6
ENDBRANCH   1   2
BRANCH   1  12
ATOM     11  C   UNL     1       5.382   6.391  17.604  0.00  0.00    +0.000 C 
ATOM     12  C   UNL     1       4.129   6.167  17.173  0.00  0.00    +0.000 C 
BRANCH  11  13
ATOM     13  S   UNL     1       6.729   5.717  16.750  0.00  0.00    +0.000 S 
ATOM     14  O   UNL     1       7.178   4.529  17.448  0.00  0.00    +0.000 OA
ATOM     15  O   UNL     1       7.660   6.781  16.418  0.00  0.00    +0.000 OA
BRANCH  13  16
ATOM     16  O   UNL     1       6.005   5.243  15.368  0.00  0.00    +0.000 OA
BRANCH  16  18
ATOM     17  C   UNL     1       6.119   3.800  13.446  0.00  0.00    +0.000 C 
ATOM     18  C   UNL     1       6.257   3.908  14.951  0.00  0.00    +0.000 C 
ENDBRANCH  16  18
ENDBRANCH  13  16
ENDBRANCH  11  13
ENDBRANCH   1  12
BRANCH   1  19
ATOM     19  C   UNL     1       3.016   8.169  18.179  0.00  0.00    +0.000 C 
BRANCH  19  20
ATOM     20  C   UNL     1       1.756   8.822  18.700  0.00  0.00    +0.000 A 
ATOM     21  C   UNL     1       0.867   9.443  17.814  0.00  0.00    +0.000 A 
ATOM     22  C   UNL     1      -0.289  10.063  18.290  0.00  0.00    +0.000 A 
ATOM     23  C   UNL     1      -0.573  10.061  19.654  0.00  0.00    +0.000 A 
ATOM     24  C   UNL     1       0.286   9.418  20.542  0.00  0.00    +0.000 A 
ATOM     25  C   UNL     1       1.440   8.793  20.067  0.00  0.00    +0.000 A 
ENDBRANCH  19  20
ENDBRANCH   1  19
TORSDOF 9
ENDMDL
MODEL 9
REMARK VINA RESULT:      -7.1      1.289      2.498
REMARK  Name = 
REMARK  13 active torsions:
REMARK  status: ('A' for Active; 'I' for Inactive)
REMARK    1  A    between atoms: C_1  and  C_2
REMARK    2  A    between atoms: C_2  and  O_3
REMARK    3  A    between atoms: O_3  and  S_4
REMARK    4  A    between atoms: S_4  and  C_7
REMARK    5  A    between atoms: C_8  and  C_9
REMARK    6  A    between atoms: C_9  and  C_10
REMARK    7  A    between atoms: C_9  and  N_17
REMARK    8  A    between atoms: C_10  and  C_11
REMARK    9  A    between atoms: C_18  and  O_20
REMARK   10  A    between atoms: O_20  and  C_21
REMARK   11  A    between atoms: C_21  and  C_22
REMARK   12  A    between atoms: C_21  and  C_23
REMARK   13  A    between atoms: C_21  and  C_24
REMARK                            x       y       z     vdW  Elec       q    Type
REMARK                         _______ _______ _______ _____ _____    ______ ____
ROOT
ATOM      1  C   UNL     1       3.155   6.597  18.203  0.00  0.00    +0.000 C 
ENDROOT
BRANCH   1   2
ATOM      2  N   UNL     1       2.511   7.831  17.792  0.00  0.00    +0.000 N 
ATOM      3  C   UNL     1       1.844   8.599  18.704  0.00  0.00    +0.000 C 
ATOM      4  O   UNL     1       1.810   8.341  19.900  0.00  0.00    +0.000 OA
ATOM      5  H   UNL     1       2.397   8.069  16.815  0.00  0.00    +0.000 HD
BRANCH   3   6
ATOM      6  O   UNL     1       1.255   9.670  18.112  0.00  0.00    +0.000 OA
BRANCH   6   7
ATOM      7  C   UNL     1       0.234  10.395  18.854  0.00  0.00    +0.000 C 
ATOM      8  C   UNL     1      -1.088  10.458  18.074  0.00  0.00    +0.000 C 
ATOM      9  C   UNL     1      -0.021   9.597  20.144  0.00  0.00    +0.000 C 
ATOM     10  C   UNL     1       0.740  11.789  19.254  0.00  0.00    +0.000 C 
ENDBRANCH   6   7
ENDBRANCH   3   6
ENDBRANCH   1   2
BRANCH   1  12
ATOM     11  C   UNL     1       5.563   5.712  18.016  0.00  0.00    +0.000 C 
ATOM     12  C   UNL     1       4.546   6.496  17.617  0.00  0.00    +0.000 C 
BRANCH  11  13
ATOM     13  S   UNL     1       7.098   5.809  17.221  0.00  0.00    +0.000 S 
ATOM     14  O   UNL     1       6.894   6.284  15.867  0.00  0.00    +0.000 OA
ATOM     15  O   UNL     1       7.841   4.587  17.476  0.00  0.00    +0.000 OA
BRANCH  13  16
ATOM     16  O   UNL     1       7.805   7.007  18.071  0.00  0.00    +0.000 OA
BRANCH  16  18
ATOM     17  C   UNL     1       8.529   9.286  18.336  0.00  0.00    +0.000 C 
ATOM     18  C   UNL     1       7.681   8.317  17.536  0.00  0.00    +0.000 C 
ENDBRANCH  16  18
ENDBRANCH  13  16
ENDBRANCH  11  13
ENDBRANCH   1  12
BRANCH   1  19
ATOM     19  C   UNL     1       2.342   5.334  17.841  0.00  0.00    +0.000 C 
BRANCH  19  20
ATOM     20  C   UNL     1       1.989   4.464  19.026  0.00  0.00    +0.000 A 
ATOM     21  C   UNL     1       2.416   4.820  20.312  0.00  0.00    +0.000 A 
ATOM     22  C   UNL     1       2.109   4.011  21.408  0.00  0.00    +0.000 A 
ATOM     23  C   UNL     1       1.367   2.846  21.231  0.00  0.00    +0.000 A 
ATOM     24  C   UNL     1       0.909   2.499  19.963  0.00  0.00    +0.000 A 
ATOM     25  C   UNL     1       1.210   3.308  18.867  0.00  0.00    +0.000 A 
ENDBRANCH  19  20
ENDBRANCH   1  19
TORSDOF 9
ENDMDL
