MODEL 1
REMARK VINA RESULT:      -7.5      0.000      0.000
REMARK  Name = 
REMARK  11 active torsions:
REMARK  status: ('A' for Active; 'I' for Inactive)
REMARK    1  A    between atoms: C_1  and  C_2
REMARK    2  A    between atoms: C_2  and  C_3
REMARK    3  A    between atoms: C_2  and  C_4
REMARK    4  A    between atoms: C_8  and  C_9
REMARK    5  A    between atoms: C_9  and  C_10
REMARK    6  A    between atoms: C_9  and  C_11
REMARK    7  A    between atoms: C_12  and  N_13
REMARK    8  A    between atoms: N_16  and  S_17
REMARK    9  A    between atoms: S_17  and  N_20
REMARK   10  A    between atoms: N_20  and  C_21
REMARK   11  A    between atoms: N_20  and  C_27
REMARK                            x       y       z     vdW  Elec       q    Type
REMARK                         _______ _______ _______ _____ _____    ______ ____
ROOT
ATOM      1  N   UNL     1       2.989   6.523  19.341  0.00  0.00    +0.000 N 
ATOM      2  C   UNL     1       2.233   7.378  18.556  0.00  0.00    +0.000 C 
ATOM      3  O   UNL     1       1.914   7.147  17.389  0.00  0.00    +0.000 OA
ATOM      4  N   UNL     1       1.897   8.588  19.191  0.00  0.00    +0.000 N 
ATOM      5  H   UNL     1       3.561   7.033  19.996  0.00  0.00    +0.000 HD
ATOM      6  H   UNL     1       1.696   8.542  20.182  0.00  0.00    +0.000 HD
ENDROOT
BRANCH   1  12
ATOM      7  C   UNL     1       4.674   5.255  17.989  0.00  0.00    +0.000 A 
ATOM      8  C   UNL     1       5.104   4.008  17.479  0.00  0.00    +0.000 A 
ATOM      9  C   UNL     1       4.448   2.824  17.782  0.00  0.00    +0.000 A 
ATOM     10  C   UNL     1       3.337   2.856  18.606  0.00  0.00    +0.000 A 
ATOM     11  C   UNL     1       2.871   4.061  19.178  0.00  0.00    +0.000 A 
ATOM     12  C   UNL     1       3.542   5.284  18.866  0.00  0.00    +0.000 A 
BRANCH   7  14
ATOM     13  C   UNL     1       6.880   6.591  17.698  0.00  0.00    +0.000 C 
ATOM     14  C   UNL     1       5.359   6.511  17.440  0.00  0.00    +0.000 C 
ATOM     15  C   UNL     1       5.115   6.619  15.930  0.00  0.00    +0.000 C 
ENDBRANCH   7  14
BRANCH  11  16
ATOM     16  C   UNL     1       1.667   3.966  20.122  0.00  0.00    +0.000 C 
ATOM     17  C   UNL     1       0.666   2.927  19.611  0.00  0.00    +0.000 C 
ATOM     18  C   UNL     1       2.034   3.633  21.583  0.00  0.00    +0.000 C 
ENDBRANCH  11  16
ENDBRANCH   1  12
BRANCH   4  19
ATOM     19  S   UNL     1       1.115   9.825  18.393  0.00  0.00    +0.000 S 
ATOM     20  O   UNL     1       2.095  10.870  18.209  0.00  0.00    +0.000 OA
ATOM     21  O   UNL     1       0.383   9.339  17.257  0.00  0.00    +0.000 OA
BRANCH  19  22
ATOM     22  N   UNL     1       0.006  10.351  19.633  0.00  0.00    +0.000 NA
BRANCH  22  23
ATOM     23  C   UNL     1      -1.450  10.765  19.427  0.00  0.00    +0.000 C 
ATOM     24  C   UNL     1      -1.747  12.141  18.821  0.00  0.00    +0.000 C 
ATOM     25  C   UNL     1      -1.630  12.237  17.302  0.00  0.00    +0.000 C 
ATOM     26  C   UNL     1      -2.290  11.122  16.509  0.00  0.00    +0.000 C 
ATOM     27  C   UNL     1      -2.332   9.754  17.175  0.00  0.00    +0.000 C 
ATOM     28  C   UNL     1      -2.361   9.750  18.702  0.00  0.00    +0.000 C 
ENDBRANCH  22  23
BRANCH  22  29
ATOM     29  C   UNL     1       0.779  10.813  20.885  0.00  0.00    +0.000 C 
ATOM     30  C   UNL     1       0.316  12.008  21.722  0.00  0.00    +0.000 C 
ATOM     31  C   UNL     1      -0.854  11.781  22.673  0.00  0.00    +0.000 C 
ATOM     32  C   UNL     1      -1.022  10.362  23.227  0.00  0.00    +0.000 C 
ATOM     33  C   UNL     1      -0.451   9.243  22.372  0.00  0.00    +0.000 C 
ATOM     34  C   UNL     1       0.918   9.618  21.838  0.00  0.00    +0.000 C 
ENDBRANCH  22  29
ENDBRANCH  19  22
ENDBRANCH   4  19
TORSDOF 7
ENDMDL
MODEL 2
REMARK VINA RESULT:      -7.3      0.440      3.037
REMARK  Name = 
REMARK  11 active torsions:
REMARK  status: ('A' for Active; 'I' for Inactive)
REMARK    1  A    between atoms: C_1  and  C_2
REMARK    2  A    between atoms: C_2  and  C_3
REMARK    3  A    between atoms: C_2  and  C_4
REMARK    4  A    between atoms: C_8  and  C_9
REMARK    5  A    between atoms: C_9  and  C_10
REMARK    6  A    between atoms: C_9  and  C_11
REMARK    7  A    between atoms: C_12  and  N_13
REMARK    8  A    between atoms: N_16  and  S_17
REMARK    9  A    between atoms: S_17  and  N_20
REMARK   10  A    between atoms: N_20  and  C_21
REMARK   11  A    between atoms: N_20  and  C_27
REMARK                            x       y       z     vdW  Elec       q    Type
REMARK                         _______ _______ _______ _____ _____    ______ ____
ROOT
ATOM      1  N   UNL     1       3.060   6.688  19.584  0.00  0.00    +0.000 N 
ATOM      2  C   UNL     1       2.239   7.434  18.753  0.00  0.00    +0.000 C 
ATOM      3  O   UNL     1       1.843   7.056  17.651  0.00  0.00    +0.000 OA
ATOM      4  N   UNL     1       1.933   8.713  19.254  0.00  0.00    +0.000 N 
ATOM      5  H   UNL     1       3.670   7.279  20.127  0.00  0.00    +0.000 HD
ATOM      6  H   UNL     1       1.802   8.791  20.254  0.00  0.00    +0.000 HD
ENDROOT
BRANCH   1  12
ATOM      7  C   UNL     1       3.049   4.189  19.762  0.00  0.00    +0.000 A 
ATOM      8  C   UNL     1       3.687   2.965  19.453  0.00  0.00    +0.000 A 
ATOM      9  C   UNL     1       4.835   2.911  18.676  0.00  0.00    +0.000 A 
ATOM     10  C   UNL     1       5.378   4.085  18.186  0.00  0.00    +0.000 A 
ATOM     11  C   UNL     1       4.777   5.340  18.427  0.00  0.00    +0.000 A 
ATOM     12  C   UNL     1       3.595   5.402  19.230  0.00  0.00    +0.000 A 
BRANCH   7  14
ATOM     13  C   UNL     1       0.529   3.743  20.196  0.00  0.00    +0.000 C 
ATOM     14  C   UNL     1       1.903   4.144  20.778  0.00  0.00    +0.000 C 
ATOM     15  C   UNL     1       2.252   3.176  21.915  0.00  0.00    +0.000 C 
ENDBRANCH   7  14
BRANCH  11  16
ATOM     16  C   UNL     1       5.435   6.566  17.784  0.00  0.00    +0.000 C 
ATOM     17  C   UNL     1       6.958   6.477  17.898  0.00  0.00    +0.000 C 
ATOM     18  C   UNL     1       5.054   6.786  16.305  0.00  0.00    +0.000 C 
ENDBRANCH  11  16
ENDBRANCH   1  12
BRANCH   4  19
ATOM     19  S   UNL     1       1.081   9.836  18.364  0.00  0.00    +0.000 S 
ATOM     20  O   UNL     1       2.015  10.889  18.042  0.00  0.00    +0.000 OA
ATOM     21  O   UNL     1       0.331   9.213  17.310  0.00  0.00    +0.000 OA
BRANCH  19  22
ATOM     22  N   UNL     1      -0.006  10.448  19.585  0.00  0.00    +0.000 NA
BRANCH  22  23
ATOM     23  C   UNL     1      -1.420  10.976  19.353  0.00  0.00    +0.000 C 
ATOM     24  C   UNL     1      -1.604  12.265  18.545  0.00  0.00    +0.000 C 
ATOM     25  C   UNL     1      -1.541  12.113  17.027  0.00  0.00    +0.000 C 
ATOM     26  C   UNL     1      -2.340  10.964  16.437  0.00  0.00    +0.000 C 
ATOM     27  C   UNL     1      -2.491   9.727  17.311  0.00  0.00    +0.000 C 
ATOM     28  C   UNL     1      -2.458   9.962  18.820  0.00  0.00    +0.000 C 
ENDBRANCH  22  23
BRANCH  22  29
ATOM     29  C   UNL     1       0.778  10.848  20.852  0.00  0.00    +0.000 C 
ATOM     30  C   UNL     1       0.374  12.055  21.701  0.00  0.00    +0.000 C 
ATOM     31  C   UNL     1      -0.818  11.880  22.637  0.00  0.00    +0.000 C 
ATOM     32  C   UNL     1      -1.071  10.465  23.168  0.00  0.00    +0.000 C 
ATOM     33  C   UNL     1      -0.555   9.328  22.302  0.00  0.00    +0.000 C 
ATOM     34  C   UNL     1       0.839   9.633  21.788  0.00  0.00    +0.000 C 
ENDBRANCH  22  29
ENDBRANCH  19  22
ENDBRANCH   4  19
TORSDOF 7
ENDMDL
MODEL 3
REMARK VINA RESULT:      -7.1      1.812      4.532
REMARK  Name = 
REMARK  11 active torsions:
REMARK  status: ('A' for Active; 'I' for Inactive)
REMARK    1  A    between atoms: C_1  and  C_2
REMARK    2  A    between atoms: C_2  and  C_3
REMARK    3  A    between atoms: C_2  and  C_4
REMARK    4  A    between atoms: C_8  and  C_9
REMARK    5  A    between atoms: C_9  and  C_10
REMARK    6  A    between atoms: C_9  and  C_11
REMARK    7  A    between atoms: C_12  and  N_13
REMARK    8  A    between atoms: N_16  and  S_17
REMARK    9  A    between atoms: S_17  and  N_20
REMARK   10  A    between atoms: N_20  and  C_21
REMARK   11  A    between atoms: N_20  and  C_27
REMARK                            x       y       z     vdW  Elec       q    Type
REMARK                         _______ _______ _______ _____ _____    ______ ____
ROOT
ATOM      1  N   UNL     1       2.152   6.869  17.801  0.00  0.00    +0.000 N 
ATOM      2  C   UNL     1       1.923   7.849  18.753  0.00  0.00    +0.000 C 
ATOM      3  O   UNL     1       2.475   7.888  19.853  0.00  0.00    +0.000 OA
ATOM      4  N   UNL     1       0.944   8.788  18.380  0.00  0.00    +0.000 N 
ATOM      5  H   UNL     1       1.324   6.684  17.255  0.00  0.00    +0.000 HD
ATOM      6  H   UNL     1       0.914   9.051  17.403  0.00  0.00    +0.000 HD
ENDROOT
BRANCH   1  12
ATOM      7  C   UNL     1       2.578   4.568  18.695  0.00  0.00    +0.000 A 
ATOM      8  C   UNL     1       3.514   3.540  18.955  0.00  0.00    +0.000 A 
ATOM      9  C   UNL     1       4.848   3.651  18.587  0.00  0.00    +0.000 A 
ATOM     10  C   UNL     1       5.282   4.798  17.948  0.00  0.00    +0.000 A 
ATOM     11  C   UNL     1       4.397   5.851  17.628  0.00  0.00    +0.000 A 
ATOM     12  C   UNL     1       3.022   5.744  18.008  0.00  0.00    +0.000 A 
BRANCH   7  14
ATOM     13  C   UNL     1       0.559   3.010  19.175  0.00  0.00    +0.000 C 
ATOM     14  C   UNL     1       1.183   4.416  19.310  0.00  0.00    +0.000 C 
ATOM     15  C   UNL     1       1.226   4.789  20.797  0.00  0.00    +0.000 C 
ENDBRANCH   7  14
BRANCH  11  16
ATOM     16  C   UNL     1       4.979   7.048  16.868  0.00  0.00    +0.000 C 
ATOM     17  C   UNL     1       6.397   7.353  17.355  0.00  0.00    +0.000 C 
ATOM     18  C   UNL     1       5.001   6.873  15.335  0.00  0.00    +0.000 C 
ENDBRANCH  11  16
ENDBRANCH   1  12
BRANCH   4  19
ATOM     19  S   UNL     1       0.403   9.972  19.422  0.00  0.00    +0.000 S 
ATOM     20  O   UNL     1      -0.233   9.283  20.520  0.00  0.00    +0.000 OA
ATOM     21  O   UNL     1       1.427  10.939  19.696  0.00  0.00    +0.000 OA
BRANCH  19  22
ATOM     22  N   UNL     1      -0.855  10.696  18.453  0.00  0.00    +0.000 NA
BRANCH  22  23
ATOM     23  C   UNL     1      -1.328  12.146  18.524  0.00  0.00    +0.000 C 
ATOM     24  C   UNL     1      -1.998  12.642  19.811  0.00  0.00    +0.000 C 
ATOM     25  C   UNL     1      -1.053  13.020  20.948  0.00  0.00    +0.000 C 
ATOM     26  C   UNL     1       0.138  13.884  20.569  0.00  0.00    +0.000 C 
ATOM     27  C   UNL     1       0.691  13.691  19.164  0.00  0.00    +0.000 C 
ATOM     28  C   UNL     1      -0.307  13.228  18.105  0.00  0.00    +0.000 C 
ENDBRANCH  22  23
BRANCH  22  29
ATOM     29  C   UNL     1      -1.766   9.607  17.852  0.00  0.00    +0.000 C 
ATOM     30  C   UNL     1      -3.211   9.418  18.318  0.00  0.00    +0.000 C 
ATOM     31  C   UNL     1      -4.247  10.407  17.793  0.00  0.00    +0.000 C 
ATOM     32  C   UNL     1      -3.972  11.021  16.416  0.00  0.00    +0.000 C 
ATOM     33  C   UNL     1      -2.514  11.085  15.996  0.00  0.00    +0.000 C 
ATOM     34  C   UNL     1      -1.800   9.788  16.328  0.00  0.00    +0.000 C 
ENDBRANCH  22  29
ENDBRANCH  19  22
ENDBRANCH   4  19
TORSDOF 7
ENDMDL
MODEL 4
REMARK VINA RESULT:      -7.0      1.816      3.407
REMARK  Name = 
REMARK  11 active torsions:
REMARK  status: ('A' for Active; 'I' for Inactive)
REMARK    1  A    between atoms: C_1  and  C_2
REMARK    2  A    between atoms: C_2  and  C_3
REMARK    3  A    between atoms: C_2  and  C_4
REMARK    4  A    between atoms: C_8  and  C_9
REMARK    5  A    between atoms: C_9  and  C_10
REMARK    6  A    between atoms: C_9  and  C_11
REMARK    7  A    between atoms: C_12  and  N_13
REMARK    8  A    between atoms: N_16  and  S_17
REMARK    9  A    between atoms: S_17  and  N_20
REMARK   10  A    between atoms: N_20  and  C_21
REMARK   11  A    between atoms: N_20  and  C_27
REMARK                            x       y       z     vdW  Elec       q    Type
REMARK                         _______ _______ _______ _____ _____    ______ ____
ROOT
ATOM      1  N   UNL     1       2.236   6.922  17.880  0.00  0.00    +0.000 N 
ATOM      2  C   UNL     1       1.947   7.874  18.846  0.00  0.00    +0.000 C 
ATOM      3  O   UNL     1       2.465   7.905  19.963  0.00  0.00    +0.000 OA
ATOM      4  N   UNL     1       0.951   8.790  18.463  0.00  0.00    +0.000 N 
ATOM      5  H   UNL     1       1.431   6.725  17.305  0.00  0.00    +0.000 HD
ATOM      6  H   UNL     1       0.941   9.073  17.491  0.00  0.00    +0.000 HD
ENDROOT
BRANCH   1  12
ATOM      7  C   UNL     1       4.499   5.873  17.661  0.00  0.00    +0.000 A 
ATOM      8  C   UNL     1       5.301   4.716  17.807  0.00  0.00    +0.000 A 
ATOM      9  C   UNL     1       4.796   3.533  18.327  0.00  0.00    +0.000 A 
ATOM     10  C   UNL     1       3.470   3.475  18.715  0.00  0.00    +0.000 A 
ATOM     11  C   UNL     1       2.619   4.599  18.628  0.00  0.00    +0.000 A 
ATOM     12  C   UNL     1       3.134   5.820  18.090  0.00  0.00    +0.000 A 
BRANCH   7  14
ATOM     13  C   UNL     1       6.565   7.401  17.296  0.00  0.00    +0.000 C 
ATOM     14  C   UNL     1       5.110   7.057  16.906  0.00  0.00    +0.000 C 
ATOM     15  C   UNL     1       5.060   6.795  15.396  0.00  0.00    +0.000 C 
ENDBRANCH   7  14
BRANCH  11  16
ATOM     16  C   UNL     1       1.185   4.433  19.143  0.00  0.00    +0.000 C 
ATOM     17  C   UNL     1       0.630   3.063  18.746  0.00  0.00    +0.000 C 
ATOM     18  C   UNL     1       1.035   4.613  20.667  0.00  0.00    +0.000 C 
ENDBRANCH  11  16
ENDBRANCH   1  12
BRANCH   4  19
ATOM     19  S   UNL     1       0.341   9.933  19.513  0.00  0.00    +0.000 S 
ATOM     20  O   UNL     1      -0.341   9.201  20.554  0.00  0.00    +0.000 OA
ATOM     21  O   UNL     1       1.338  10.903  19.870  0.00  0.00    +0.000 OA
BRANCH  19  22
ATOM     22  N   UNL     1      -0.874  10.674  18.504  0.00  0.00    +0.000 NA
BRANCH  22  23
ATOM     23  C   UNL     1      -1.320  12.134  18.550  0.00  0.00    +0.000 C 
ATOM     24  C   UNL     1      -2.012  12.654  19.815  0.00  0.00    +0.000 C 
ATOM     25  C   UNL     1      -1.089  13.024  20.973  0.00  0.00    +0.000 C 
ATOM     26  C   UNL     1       0.128  13.860  20.617  0.00  0.00    +0.000 C 
ATOM     27  C   UNL     1       0.713  13.644  19.229  0.00  0.00    +0.000 C 
ATOM     28  C   UNL     1      -0.267  13.192  18.148  0.00  0.00    +0.000 C 
ENDBRANCH  22  23
BRANCH  22  29
ATOM     29  C   UNL     1      -1.791   9.598  17.886  0.00  0.00    +0.000 C 
ATOM     30  C   UNL     1      -3.245   9.428  18.330  0.00  0.00    +0.000 C 
ATOM     31  C   UNL     1      -4.259  10.432  17.790  0.00  0.00    +0.000 C 
ATOM     32  C   UNL     1      -3.955  11.045  16.419  0.00  0.00    +0.000 C 
ATOM     33  C   UNL     1      -2.490  11.090  16.022  0.00  0.00    +0.000 C 
ATOM     34  C   UNL     1      -1.798   9.783  16.362  0.00  0.00    +0.000 C 
ENDBRANCH  22  29
ENDBRANCH  19  22
ENDBRANCH   4  19
TORSDOF 7
ENDMDL
MODEL 5
REMARK VINA RESULT:      -7.0      2.225      8.190
REMARK  Name = 
REMARK  11 active torsions:
REMARK  status: ('A' for Active; 'I' for Inactive)
REMARK    1  A    between atoms: C_1  and  C_2
REMARK    2  A    between atoms: C_2  and  C_3
REMARK    3  A    between atoms: C_2  and  C_4
REMARK    4  A    between atoms: C_8  and  C_9
REMARK    5  A    between atoms: C_9  and  C_10
REMARK    6  A    between atoms: C_9  and  C_11
REMARK    7  A    between atoms: C_12  and  N_13
REMARK    8  A    between atoms: N_16  and  S_17
REMARK    9  A    between atoms: S_17  and  N_20
REMARK   10  A    between atoms: N_20  and  C_21
REMARK   11  A    between atoms: N_20  and  C_27
REMARK                            x       y       z     vdW  Elec       q    Type
REMARK                         _______ _______ _______ _____ _____    ______ ____
ROOT
ATOM      1  N   UNL     1       0.822   9.858  17.767  0.00  0.00    +0.000 N 
ATOM      2  C   UNL     1       1.132   8.781  18.583  0.00  0.00    +0.000 C 
ATOM      3  O   UNL     1       0.708   8.638  19.730  0.00  0.00    +0.000 OA
ATOM      4  N   UNL     1       2.036   7.871  18.006  0.00  0.00    +0.000 N 
ATOM      5  H   UNL     1       1.587  10.084  17.149  0.00  0.00    +0.000 HD
ATOM      6  H   UNL     1       1.947   7.709  17.011  0.00  0.00    +0.000 HD
ENDROOT
BRANCH   1  12
ATOM      7  C   UNL     1       0.581  12.102  18.852  0.00  0.00    +0.000 A 
ATOM      8  C   UNL     1      -0.286  13.114  19.328  0.00  0.00    +0.000 A 
ATOM      9  C   UNL     1      -1.664  13.025  19.190  0.00  0.00    +0.000 A 
ATOM     10  C   UNL     1      -2.213  11.917  18.572  0.00  0.00    +0.000 A 
ATOM     11  C   UNL     1      -1.407  10.884  18.044  0.00  0.00    +0.000 A 
ATOM     12  C   UNL     1       0.013  10.969  18.186  0.00  0.00    +0.000 A 
BRANCH   7  14
ATOM     13  C   UNL     1       2.959  12.865  18.145  0.00  0.00    +0.000 C 
ATOM     14  C   UNL     1       2.063  12.218  19.224  0.00  0.00    +0.000 C 
ATOM     15  C   UNL     1       2.212  13.016  20.524  0.00  0.00    +0.000 C 
ENDBRANCH   7  14
BRANCH  11  16
ATOM     16  C   UNL     1      -2.125   9.734  17.328  0.00  0.00    +0.000 C 
ATOM     17  C   UNL     1      -3.465   9.437  18.003  0.00  0.00    +0.000 C 
ATOM     18  C   UNL     1      -2.363   9.976  15.823  0.00  0.00    +0.000 C 
ENDBRANCH  11  16
ENDBRANCH   1  12
BRANCH   4  19
ATOM     19  S   UNL     1       2.660   6.578  18.855  0.00  0.00    +0.000 S 
ATOM     20  O   UNL     1       3.516   7.139  19.872  0.00  0.00    +0.000 OA
ATOM     21  O   UNL     1       1.631   5.651  19.232  0.00  0.00    +0.000 OA
BRANCH  19  22
ATOM     22  N   UNL     1       3.684   5.864  17.635  0.00  0.00    +0.000 NA
BRANCH  22  23
ATOM     23  C   UNL     1       3.952   4.373  17.440  0.00  0.00    +0.000 C 
ATOM     24  C   UNL     1       4.699   3.607  18.538  0.00  0.00    +0.000 C 
ATOM     25  C   UNL     1       3.858   3.177  19.737  0.00  0.00    +0.000 C 
ATOM     26  C   UNL     1       2.519   2.534  19.419  0.00  0.00    +0.000 C 
ATOM     27  C   UNL     1       1.828   3.007  18.147  0.00  0.00    +0.000 C 
ATOM     28  C   UNL     1       2.743   3.502  17.028  0.00  0.00    +0.000 C 
ENDBRANCH  22  23
BRANCH  22  29
ATOM     29  C   UNL     1       4.667   6.913  17.076  0.00  0.00    +0.000 C 
ATOM     30  C   UNL     1       6.088   7.057  17.625  0.00  0.00    +0.000 C 
ATOM     31  C   UNL     1       7.117   6.026  17.173  0.00  0.00    +0.000 C 
ATOM     32  C   UNL     1       6.902   5.403  15.789  0.00  0.00    +0.000 C 
ATOM     33  C   UNL     1       5.469   5.384  15.285  0.00  0.00    +0.000 C 
ATOM     34  C   UNL     1       4.783   6.709  15.559  0.00  0.00    +0.000 C 
ENDBRANCH  22  29
ENDBRANCH  19  22
ENDBRANCH   4  19
TORSDOF 7
ENDMDL
MODEL 6
REMARK VINA RESULT:      -6.8      1.572      2.823
REMARK  Name = 
REMARK  11 active torsions:
REMARK  status: ('A' for Active; 'I' for Inactive)
REMARK    1  A    between atoms: C_1  and  C_2
REMARK    2  A    between atoms: C_2  and  C_3
REMARK    3  A    between atoms: C_2  and  C_4
REMARK    4  A    between atoms: C_8  and  C_9
REMARK    5  A    between atoms: C_9  and  C_10
REMARK    6  A    between atoms: C_9  and  C_11
REMARK    7  A    between atoms: C_12  and  N_13
REMARK    8  A    between atoms: N_16  and  S_17
REMARK    9  A    between atoms: S_17  and  N_20
REMARK   10  A    between atoms: N_20  and  C_21
REMARK   11  A    between atoms: N_20  and  C_27
REMARK                            x       y       z     vdW  Elec       q    Type
REMARK                         _______ _______ _______ _____ _____    ______ ____
ROOT
ATOM      1  N   UNL     1       3.056   6.688  19.189  0.00  0.00    +0.000 N 
ATOM      2  C   UNL     1       2.322   7.606  18.453  0.00  0.00    +0.000 C 
ATOM      3  O   UNL     1       1.929   7.413  17.302  0.00  0.00    +0.000 OA
ATOM      4  N   UNL     1       2.104   8.826  19.118  0.00  0.00    +0.000 N 
ATOM      5  H   UNL     1       3.695   7.148  19.819  0.00  0.00    +0.000 HD
ATOM      6  H   UNL     1       1.951   8.780  20.117  0.00  0.00    +0.000 HD
ENDROOT
BRANCH   1  12
ATOM      7  C   UNL     1       4.561   5.329  17.719  0.00  0.00    +0.000 A 
ATOM      8  C   UNL     1       4.877   4.062  17.176  0.00  0.00    +0.000 A 
ATOM      9  C   UNL     1       4.169   2.918  17.519  0.00  0.00    +0.000 A 
ATOM     10  C   UNL     1       3.122   3.014  18.418  0.00  0.00    +0.000 A 
ATOM     11  C   UNL     1       2.772   4.240  19.025  0.00  0.00    +0.000 A 
ATOM     12  C   UNL     1       3.496   5.422  18.672  0.00  0.00    +0.000 A 
BRANCH   7  14
ATOM     13  C   UNL     1       6.768   6.683  17.536  0.00  0.00    +0.000 C 
ATOM     14  C   UNL     1       5.284   6.544  17.129  0.00  0.00    +0.000 C 
ATOM     15  C   UNL     1       5.201   6.506  15.598  0.00  0.00    +0.000 C 
ENDBRANCH   7  14
BRANCH  11  16
ATOM     16  C   UNL     1       1.633   4.213  20.050  0.00  0.00    +0.000 C 
ATOM     17  C   UNL     1       0.586   3.168  19.659  0.00  0.00    +0.000 C 
ATOM     18  C   UNL     1       2.091   3.947  21.499  0.00  0.00    +0.000 C 
ENDBRANCH  11  16
ENDBRANCH   1  12
BRANCH   4  19
ATOM     19  S   UNL     1       1.371  10.126  18.375  0.00  0.00    +0.000 S 
ATOM     20  O   UNL     1       2.288  10.578  17.355  0.00  0.00    +0.000 OA
ATOM     21  O   UNL     1       0.012   9.830  18.019  0.00  0.00    +0.000 OA
BRANCH  19  22
ATOM     22  N   UNL     1       1.404  11.293  19.672  0.00  0.00    +0.000 NA
BRANCH  22  23
ATOM     23  C   UNL     1       0.708  11.160  21.025  0.00  0.00    +0.000 C 
ATOM     24  C   UNL     1      -0.782  10.801  21.056  0.00  0.00    +0.000 C 
ATOM     25  C   UNL     1      -1.113   9.322  20.875  0.00  0.00    +0.000 C 
ATOM     26  C   UNL     1      -0.285   8.347  21.694  0.00  0.00    +0.000 C 
ATOM     27  C   UNL     1       1.147   8.765  21.998  0.00  0.00    +0.000 C 
ATOM     28  C   UNL     1       1.406  10.268  22.077  0.00  0.00    +0.000 C 
ENDBRANCH  22  23
BRANCH  22  29
ATOM     29  C   UNL     1       1.812  12.681  19.138  0.00  0.00    +0.000 C 
ATOM     30  C   UNL     1       0.817  13.588  18.410  0.00  0.00    +0.000 C 
ATOM     31  C   UNL     1      -0.191  14.345  19.269  0.00  0.00    +0.000 C 
ATOM     32  C   UNL     1       0.250  14.699  20.693  0.00  0.00    +0.000 C 
ATOM     33  C   UNL     1       1.310  13.797  21.303  0.00  0.00    +0.000 C 
ATOM     34  C   UNL     1       2.404  13.494  20.297  0.00  0.00    +0.000 C 
ENDBRANCH  22  29
ENDBRANCH  19  22
ENDBRANCH   4  19
TORSDOF 7
ENDMDL
MODEL 7
REMARK VINA RESULT:      -6.8      2.247      8.487
REMARK  Name = 
REMARK  11 active torsions:
REMARK  status: ('A' for Active; 'I' for Inactive)
REMARK    1  A    between atoms: C_1  and  C_2
REMARK    2  A    between atoms: C_2  and  C_3
REMARK    3  A    between atoms: C_2  and  C_4
REMARK    4  A    between atoms: C_8  and  C_9
REMARK    5  A    between atoms: C_9  and  C_10
REMARK    6  A    between atoms: C_9  and  C_11
REMARK    7  A    between atoms: C_12  and  N_13
REMARK    8  A    between atoms: N_16  and  S_17
REMARK    9  A    between atoms: S_17  and  N_20
REMARK   10  A    between atoms: N_20  and  C_21
REMARK   11  A    between atoms: N_20  and  C_27
REMARK                            x       y       z     vdW  Elec       q    Type
REMARK                         _______ _______ _______ _____ _____    ______ ____
ROOT
ATOM      1  N   UNL     1       0.832   9.838  17.880  0.00  0.00    +0.000 N 
ATOM      2  C   UNL     1       1.129   8.729  18.658  0.00  0.00    +0.000 C 
ATOM      3  O   UNL     1       0.669   8.529  19.782  0.00  0.00    +0.000 OA
ATOM      4  N   UNL     1       2.063   7.856  18.072  0.00  0.00    +0.000 N 
ATOM      5  H   UNL     1       1.614  10.101  17.300  0.00  0.00    +0.000 HD
ATOM      6  H   UNL     1       2.011   7.738  17.068  0.00  0.00    +0.000 HD
ENDROOT
BRANCH   1  12
ATOM      7  C   UNL     1      -1.420  10.911  18.098  0.00  0.00    +0.000 A 
ATOM      8  C   UNL     1      -2.171  12.053  18.465  0.00  0.00    +0.000 A 
ATOM      9  C   UNL     1      -1.574  13.182  19.007  0.00  0.00    +0.000 A 
ATOM     10  C   UNL     1      -0.203  13.199  19.196  0.00  0.00    +0.000 A 
ATOM     11  C   UNL     1       0.605  12.084  18.882  0.00  0.00    +0.000 A 
ATOM     12  C   UNL     1      -0.006  10.919  18.321  0.00  0.00    +0.000 A 
BRANCH   7  14
ATOM     13  C   UNL     1      -3.532   9.412  17.927  0.00  0.00    +0.000 C 
ATOM     14  C   UNL     1      -2.157   9.803  17.340  0.00  0.00    +0.000 C 
ATOM     15  C   UNL     1      -2.352  10.213  15.876  0.00  0.00    +0.000 C 
ENDBRANCH   7  14
BRANCH  11  16
ATOM     16  C   UNL     1       2.102  12.198  19.189  0.00  0.00    +0.000 C 
ATOM     17  C   UNL     1       2.854  12.763  17.982  0.00  0.00    +0.000 C 
ATOM     18  C   UNL     1       2.431  13.052  20.431  0.00  0.00    +0.000 C 
ENDBRANCH  11  16
ENDBRANCH   1  12
BRANCH   4  19
ATOM     19  S   UNL     1       2.676   6.534  18.883  0.00  0.00    +0.000 S 
ATOM     20  O   UNL     1       3.542   7.058  19.913  0.00  0.00    +0.000 OA
ATOM     21  O   UNL     1       1.638   5.608  19.238  0.00  0.00    +0.000 OA
BRANCH  19  22
ATOM     22  N   UNL     1       3.689   5.843  17.641  0.00  0.00    +0.000 NA
BRANCH  22  23
ATOM     23  C   UNL     1       3.953   4.356  17.415  0.00  0.00    +0.000 C 
ATOM     24  C   UNL     1       4.724   3.572  18.484  0.00  0.00    +0.000 C 
ATOM     25  C   UNL     1       3.908   3.121  19.693  0.00  0.00    +0.000 C 
ATOM     26  C   UNL     1       2.563   2.482  19.392  0.00  0.00    +0.000 C 
ATOM     27  C   UNL     1       1.846   2.976  18.143  0.00  0.00    +0.000 C 
ATOM     28  C   UNL     1       2.737   3.490  17.014  0.00  0.00    +0.000 C 
ENDBRANCH  22  23
BRANCH  22  29
ATOM     29  C   UNL     1       4.668   6.901  17.093  0.00  0.00    +0.000 C 
ATOM     30  C   UNL     1       6.092   7.038  17.636  0.00  0.00    +0.000 C 
ATOM     31  C   UNL     1       7.119   6.015  17.161  0.00  0.00    +0.000 C 
ATOM     32  C   UNL     1       6.896   5.415  15.769  0.00  0.00    +0.000 C 
ATOM     33  C   UNL     1       5.460   5.403  15.273  0.00  0.00    +0.000 C 
ATOM     34  C   UNL     1       4.775   6.723  15.573  0.00  0.00    +0.000 C 
ENDBRANCH  22  29
ENDBRANCH  19  22
ENDBRANCH   4  19
TORSDOF 7
ENDMDL
MODEL 8
REMARK VINA RESULT:      -6.8      5.629      9.529
REMARK  Name = 
REMARK  11 active torsions:
REMARK  status: ('A' for Active; 'I' for Inactive)
REMARK    1  A    between atoms: C_1  and  C_2
REMARK    2  A    between atoms: C_2  and  C_3
REMARK    3  A    between atoms: C_2  and  C_4
REMARK    4  A    between atoms: C_8  and  C_9
REMARK    5  A    between atoms: C_9  and  C_10
REMARK    6  A    between atoms: C_9  and  C_11
REMARK    7  A    between atoms: C_12  and  N_13
REMARK    8  A    between atoms: N_16  and  S_17
REMARK    9  A    between atoms: S_17  and  N_20
REMARK   10  A    between atoms: N_20  and  C_21
REMARK   11  A    between atoms: N_20  and  C_27
REMARK                            x       y       z     vdW  Elec       q    Type
REMARK                         _______ _______ _______ _____ _____    ______ ____
ROOT
ATOM      1  N   UNL     1      -4.076  13.415  20.775  0.00  0.00    +0.000 N 
ATOM      2  C   UNL     1      -2.967  12.916  21.440  0.00  0.00    +0.000 C 
ATOM      3  O   UNL     1      -2.969  11.883  22.111  0.00  0.00    +0.000 OA
ATOM      4  N   UNL     1      -1.826  13.731  21.334  0.00  0.00    +0.000 N 
ATOM      5  H   UNL     1      -4.062  14.422  20.739  0.00  0.00    +0.000 HD
ATOM      6  H   UNL     1      -1.683  14.204  20.450  0.00  0.00    +0.000 HD
ENDROOT
BRANCH   1  12
ATOM      7  C   UNL     1      -6.208  12.936  22.000  0.00  0.00    +0.000 A 
ATOM      8  C   UNL     1      -7.437  12.236  22.034  0.00  0.00    +0.000 A 
ATOM      9  C   UNL     1      -7.846  11.418  20.990  0.00  0.00    +0.000 A 
ATOM     10  C   UNL     1      -7.032  11.277  19.881  0.00  0.00    +0.000 A 
ATOM     11  C   UNL     1      -5.808  11.972  19.764  0.00  0.00    +0.000 A 
ATOM     12  C   UNL     1      -5.380  12.814  20.838  0.00  0.00    +0.000 A 
BRANCH   7  14
ATOM     13  C   UNL     1      -6.792  14.686  23.826  0.00  0.00    +0.000 C 
ATOM     14  C   UNL     1      -5.777  13.657  23.281  0.00  0.00    +0.000 C 
ATOM     15  C   UNL     1      -5.485  12.631  24.382  0.00  0.00    +0.000 C 
ENDBRANCH   7  14
BRANCH  11  16
ATOM     16  C   UNL     1      -5.019  11.784  18.463  0.00  0.00    +0.000 C 
ATOM     17  C   UNL     1      -4.791  10.297  18.185  0.00  0.00    +0.000 C 
ATOM     18  C   UNL     1      -5.676  12.431  17.226  0.00  0.00    +0.000 C 
ENDBRANCH  11  16
ENDBRANCH   1  12
BRANCH   4  19
ATOM     19  S   UNL     1      -0.418  13.405  22.167  0.00  0.00    +0.000 S 
ATOM     20  O   UNL     1      -0.224  14.508  23.078  0.00  0.00    +0.000 OA
ATOM     21  O   UNL     1      -0.408  12.062  22.676  0.00  0.00    +0.000 OA
BRANCH  19  22
ATOM     22  N   UNL     1       0.754  13.563  20.884  0.00  0.00    +0.000 NA
BRANCH  22  23
ATOM     23  C   UNL     1       1.048  12.532  19.797  0.00  0.00    +0.000 C 
ATOM     24  C   UNL     1       0.985  11.043  20.155  0.00  0.00    +0.000 C 
ATOM     25  C   UNL     1      -0.412  10.428  20.193  0.00  0.00    +0.000 C 
ATOM     26  C   UNL     1      -1.321  10.761  19.023  0.00  0.00    +0.000 C 
ATOM     27  C   UNL     1      -1.117  12.124  18.376  0.00  0.00    +0.000 C 
ATOM     28  C   UNL     1       0.293  12.704  18.459  0.00  0.00    +0.000 C 
ENDBRANCH  22  23
BRANCH  22  29
ATOM     29  C   UNL     1       1.797  14.643  21.238  0.00  0.00    +0.000 C 
ATOM     30  C   UNL     1       3.256  14.530  20.791  0.00  0.00    +0.000 C 
ATOM     31  C   UNL     1       3.566  14.875  19.338  0.00  0.00    +0.000 C 
ATOM     32  C   UNL     1       2.647  15.900  18.664  0.00  0.00    +0.000 C 
ATOM     33  C   UNL     1       1.243  16.008  19.234  0.00  0.00    +0.000 C 
ATOM     34  C   UNL     1       1.275  16.001  20.751  0.00  0.00    +0.000 C 
ENDBRANCH  22  29
ENDBRANCH  19  22
ENDBRANCH   4  19
TORSDOF 7
ENDMDL
MODEL 9
REMARK VINA RESULT:      -6.7      1.214      3.373
REMARK  Name = 
REMARK  11 active torsions:
REMARK  status: ('A' for Active; 'I' for Inactive)
REMARK    1  A    between atoms: C_1  and  C_2
REMARK    2  A    between atoms: C_2  and  C_3
REMARK    3  A    between atoms: C_2  and  C_4
REMARK    4  A    between atoms: C_8  and  C_9
REMARK    5  A    between atoms: C_9  and  C_10
REMARK    6  A    between atoms: C_9  and  C_11
REMARK    7  A    between atoms: C_12  and  N_13
REMARK    8  A    between atoms: N_16  and  S_17
REMARK    9  A    between atoms: S_17  and  N_20
REMARK   10  A    between atoms: N_20  and  C_21
REMARK   11  A    between atoms: N_20  and  C_27
REMARK                            x       y       z     vdW  Elec       q    Type
REMARK                         _______ _______ _______ _____ _____    ______ ____
ROOT
ATOM      1  N   UNL     1       3.551   6.391  18.704  0.00  0.00    +0.000 N 
ATOM      2  C   UNL     1       2.484   7.207  18.363  0.00  0.00    +0.000 C 
ATOM      3  O   UNL     1       1.508   6.834  17.712  0.00  0.00    +0.000 OA
ATOM      4  N   UNL     1       2.632   8.543  18.779  0.00  0.00    +0.000 N 
ATOM      5  H   UNL     1       4.414   6.912  18.747  0.00  0.00    +0.000 HD
ATOM      6  H   UNL     1       3.087   8.695  19.670  0.00  0.00    +0.000 HD
ENDROOT
BRANCH   1  12
ATOM      7  C   UNL     1       3.100   3.952  19.047  0.00  0.00    +0.000 A 
ATOM      8  C   UNL     1       3.344   2.620  18.635  0.00  0.00    +0.000 A 
ATOM      9  C   UNL     1       4.140   2.325  17.537  0.00  0.00    +0.000 A 
ATOM     10  C   UNL     1       4.716   3.358  16.820  0.00  0.00    +0.000 A 
ATOM     11  C   UNL     1       4.490   4.712  17.154  0.00  0.00    +0.000 A 
ATOM     12  C   UNL     1       3.673   5.021  18.287  0.00  0.00    +0.000 A 
BRANCH   7  14
ATOM     13  C   UNL     1       0.830   4.286  20.261  0.00  0.00    +0.000 C 
ATOM     14  C   UNL     1       2.365   4.149  20.377  0.00  0.00    +0.000 C 
ATOM     15  C   UNL     1       2.680   2.986  21.324  0.00  0.00    +0.000 C 
ENDBRANCH   7  14
BRANCH  11  16
ATOM     16  C   UNL     1       5.133   5.771  16.252  0.00  0.00    +0.000 C 
ATOM     17  C   UNL     1       6.323   6.423  16.958  0.00  0.00    +0.000 C 
ATOM     18  C   UNL     1       5.592   5.239  14.879  0.00  0.00    +0.000 C 
ENDBRANCH  11  16
ENDBRANCH   1  12
BRANCH   4  19
ATOM     19  S   UNL     1       1.543   9.733  18.357  0.00  0.00    +0.000 S 
ATOM     20  O   UNL     1       2.323  10.915  18.078  0.00  0.00    +0.000 OA
ATOM     21  O   UNL     1       0.603   9.262  17.378  0.00  0.00    +0.000 OA
BRANCH  19  22
ATOM     22  N   UNL     1       0.736   9.979  19.884  0.00  0.00    +0.000 NA
BRANCH  22  23
ATOM     23  C   UNL     1      -0.068  11.211  20.293  0.00  0.00    +0.000 C 
ATOM     24  C   UNL     1       0.663  12.548  20.458  0.00  0.00    +0.000 C 
ATOM     25  C   UNL     1       0.950  13.311  19.167  0.00  0.00    +0.000 C 
ATOM     26  C   UNL     1      -0.204  13.422  18.185  0.00  0.00    +0.000 C 
ATOM     27  C   UNL     1      -1.191  12.262  18.170  0.00  0.00    +0.000 C 
ATOM     28  C   UNL     1      -1.353  11.499  19.483  0.00  0.00    +0.000 C 
ENDBRANCH  22  23
BRANCH  22  29
ATOM     29  C   UNL     1       1.313   9.033  20.957  0.00  0.00    +0.000 C 
ATOM     30  C   UNL     1       1.678   9.531  22.357  0.00  0.00    +0.000 C 
ATOM     31  C   UNL     1       0.531   9.750  23.338  0.00  0.00    +0.000 C 
ATOM     32  C   UNL     1      -0.711   8.873  23.149  0.00  0.00    +0.000 C 
ATOM     33  C   UNL     1      -0.945   8.347  21.743  0.00  0.00    +0.000 C 
ATOM     34  C   UNL     1       0.351   7.850  21.131  0.00  0.00    +0.000 C 
ENDBRANCH  22  29
ENDBRANCH  19  22
ENDBRANCH   4  19
TORSDOF 7
ENDMDL
