MODEL 1
REMARK VINA RESULT:      -7.0      0.000      0.000
REMARK  Name = 
REMARK  7 active torsions:
REMARK  status: ('A' for Active; 'I' for Inactive)
REMARK    1  A    between atoms: S_2  and  C_4
REMARK    2  A    between atoms: S_2  and  N_11
REMARK    3  A    between atoms: C_7  and  O_8
REMARK    4  A    between atoms: N_11  and  C_12
REMARK    5  A    between atoms: N_11  and  C_19
REMARK    6  A    between atoms: C_15  and  O_16
REMARK    7  A    between atoms: C_22  and  O_23
REMARK                            x       y       z     vdW  Elec       q    Type
REMARK                         _______ _______ _______ _____ _____    ______ ____
ROOT
ATOM      1  N   UNL     1       2.954   5.728  18.932  0.00  0.00    +0.000 N 
ENDROOT
BRANCH   1   2
ATOM      2  C   UNL     1       4.219   5.506  18.293  0.00  0.00    +0.000 A 
ATOM      3  C   UNL     1       4.363   5.263  16.924  0.00  0.00    +0.000 A 
ATOM      4  C   UNL     1       5.632   5.016  16.383  0.00  0.00    +0.000 A 
ATOM      5  C   UNL     1       6.741   4.989  17.224  0.00  0.00    +0.000 A 
ATOM      6  C   UNL     1       6.608   5.222  18.586  0.00  0.00    +0.000 A 
ATOM      7  C   UNL     1       5.350   5.491  19.119  0.00  0.00    +0.000 A 
BRANCH   5   8
ATOM      8  O   UNL     1       7.991   4.726  16.749  0.00  0.00    +0.000 OA
ATOM      9  H   UNL     1       8.415   4.066  17.321  0.00  0.00    +0.000 HD
ENDBRANCH   5   8
ENDBRANCH   1   2
BRANCH   1  10
ATOM     10  C   UNL     1       2.416   7.057  18.901  0.00  0.00    +0.000 A 
ATOM     11  C   UNL     1       1.918   7.566  20.109  0.00  0.00    +0.000 A 
ATOM     12  C   UNL     1       1.392   8.857  20.173  0.00  0.00    +0.000 A 
ATOM     13  C   UNL     1       1.369   9.640  19.027  0.00  0.00    +0.000 A 
ATOM     14  C   UNL     1       1.844   9.146  17.816  0.00  0.00    +0.000 A 
ATOM     15  C   UNL     1       2.357   7.844  17.748  0.00  0.00    +0.000 A 
BRANCH  13  16
ATOM     16  O   UNL     1       0.877  10.911  19.050  0.00  0.00    +0.000 OA
ATOM     17  H   UNL     1       1.321  11.431  18.360  0.00  0.00    +0.000 HD
ENDBRANCH  13  16
ENDBRANCH   1  10
BRANCH   1  19
ATOM     18  O   UNL     1       1.188   4.277  17.741  0.00  0.00    +0.000 OA
ATOM     19  S   UNL     1       1.852   4.434  19.020  0.00  0.00    +0.000 S 
ATOM     20  O   UNL     1       1.080   4.544  20.242  0.00  0.00    +0.000 OA
BRANCH  19  21
ATOM     21  C   UNL     1       2.941   3.026  19.249  0.00  0.00    +0.000 A 
ATOM     22  C   UNL     1       3.601   2.849  20.470  0.00  0.00    +0.000 A 
ATOM     23  C   UNL     1       4.456   1.755  20.644  0.00  0.00    +0.000 A 
ATOM     24  C   UNL     1       4.637   0.852  19.598  0.00  0.00    +0.000 A 
ATOM     25  C   UNL     1       3.972   1.017  18.392  0.00  0.00    +0.000 A 
ATOM     26  C   UNL     1       3.105   2.101  18.211  0.00  0.00    +0.000 A 
BRANCH  24  27
ATOM     27  O   UNL     1       5.469  -0.220  19.722  0.00  0.00    +0.000 OA
ATOM     28  H   UNL     1       4.979  -1.030  19.512  0.00  0.00    +0.000 HD
ENDBRANCH  24  27
ENDBRANCH  19  21
ENDBRANCH   1  19
TORSDOF 7
ENDMDL
MODEL 2
REMARK VINA RESULT:      -7.0      0.143      1.377
REMARK  Name = 
REMARK  7 active torsions:
REMARK  status: ('A' for Active; 'I' for Inactive)
REMARK    1  A    between atoms: S_2  and  C_4
REMARK    2  A    between atoms: S_2  and  N_11
REMARK    3  A    between atoms: C_7  and  O_8
REMARK    4  A    between atoms: N_11  and  C_12
REMARK    5  A    between atoms: N_11  and  C_19
REMARK    6  A    between atoms: C_15  and  O_16
REMARK    7  A    between atoms: C_22  and  O_23
REMARK                            x       y       z     vdW  Elec       q    Type
REMARK                         _______ _______ _______ _____ _____    ______ ____
ROOT
ATOM      1  N   UNL     1       2.912   5.712  18.983  0.00  0.00    +0.000 N 
ENDROOT
BRANCH   1   2
ATOM      2  C   UNL     1       4.142   5.544  18.266  0.00  0.00    +0.000 A 
ATOM      3  C   UNL     1       4.209   5.286  16.894  0.00  0.00    +0.000 A 
ATOM      4  C   UNL     1       5.451   5.094  16.273  0.00  0.00    +0.000 A 
ATOM      5  C   UNL     1       6.613   5.136  17.039  0.00  0.00    +0.000 A 
ATOM      6  C   UNL     1       6.557   5.385  18.404  0.00  0.00    +0.000 A 
ATOM      7  C   UNL     1       5.324   5.599  19.016  0.00  0.00    +0.000 A 
BRANCH   5   8
ATOM      8  O   UNL     1       7.841   4.929  16.487  0.00  0.00    +0.000 OA
ATOM      9  H   UNL     1       7.782   5.058  15.527  0.00  0.00    +0.000 HD
ENDBRANCH   5   8
ENDBRANCH   1   2
BRANCH   1  10
ATOM     10  C   UNL     1       2.360   7.034  19.059  0.00  0.00    +0.000 A 
ATOM     11  C   UNL     1       2.374   7.794  17.880  0.00  0.00    +0.000 A 
ATOM     12  C   UNL     1       1.843   9.083  17.860  0.00  0.00    +0.000 A 
ATOM     13  C   UNL     1       1.293   9.612  19.020  0.00  0.00    +0.000 A 
ATOM     14  C   UNL     1       1.285   8.878  20.203  0.00  0.00    +0.000 A 
ATOM     15  C   UNL     1       1.834   7.589  20.227  0.00  0.00    +0.000 A 
BRANCH  13  16
ATOM     16  O   UNL     1       0.751  10.862  19.040  0.00  0.00    +0.000 OA
ATOM     17  H   UNL     1       0.486  11.075  19.950  0.00  0.00    +0.000 HD
ENDBRANCH  13  16
ENDBRANCH   1  10
BRANCH   1  19
ATOM     18  O   UNL     1       1.160   4.256  17.778  0.00  0.00    +0.000 OA
ATOM     19  S   UNL     1       1.829   4.401  19.056  0.00  0.00    +0.000 S 
ATOM     20  O   UNL     1       1.063   4.480  20.284  0.00  0.00    +0.000 OA
BRANCH  19  21
ATOM     21  C   UNL     1       2.940   3.006  19.256  0.00  0.00    +0.000 A 
ATOM     22  C   UNL     1       3.123   2.106  18.200  0.00  0.00    +0.000 A 
ATOM     23  C   UNL     1       3.983   1.014  18.362  0.00  0.00    +0.000 A 
ATOM     24  C   UNL     1       4.650   0.838  19.572  0.00  0.00    +0.000 A 
ATOM     25  C   UNL     1       4.481   1.737  20.615  0.00  0.00    +0.000 A 
ATOM     26  C   UNL     1       3.633   2.840  20.461  0.00  0.00    +0.000 A 
BRANCH  24  27
ATOM     27  O   UNL     1       5.487  -0.217  19.774  0.00  0.00    +0.000 OA
ATOM     28  H   UNL     1       5.044  -1.035  19.498  0.00  0.00    +0.000 HD
ENDBRANCH  24  27
ENDBRANCH  19  21
ENDBRANCH   1  19
TORSDOF 7
ENDMDL
MODEL 3
REMARK VINA RESULT:      -6.9      0.453      1.436
REMARK  Name = 
REMARK  7 active torsions:
REMARK  status: ('A' for Active; 'I' for Inactive)
REMARK    1  A    between atoms: S_2  and  C_4
REMARK    2  A    between atoms: S_2  and  N_11
REMARK    3  A    between atoms: C_7  and  O_8
REMARK    4  A    between atoms: N_11  and  C_12
REMARK    5  A    between atoms: N_11  and  C_19
REMARK    6  A    between atoms: C_15  and  O_16
REMARK    7  A    between atoms: C_22  and  O_23
REMARK                            x       y       z     vdW  Elec       q    Type
REMARK                         _______ _______ _______ _____ _____    ______ ____
ROOT
ATOM      1  N   UNL     1       2.847   5.822  18.979  0.00  0.00    +0.000 N 
ENDROOT
BRANCH   1   2
ATOM      2  C   UNL     1       4.106   5.745  18.296  0.00  0.00    +0.000 A 
ATOM      3  C   UNL     1       5.342   5.752  18.949  0.00  0.00    +0.000 A 
ATOM      4  C   UNL     1       6.530   5.715  18.207  0.00  0.00    +0.000 A 
ATOM      5  C   UNL     1       6.468   5.699  16.816  0.00  0.00    +0.000 A 
ATOM      6  C   UNL     1       5.246   5.700  16.158  0.00  0.00    +0.000 A 
ATOM      7  C   UNL     1       4.066   5.713  16.896  0.00  0.00    +0.000 A 
BRANCH   5   8
ATOM      8  O   UNL     1       7.596   5.690  16.051  0.00  0.00    +0.000 OA
ATOM      9  H   UNL     1       7.387   5.308  15.184  0.00  0.00    +0.000 HD
ENDBRANCH   5   8
ENDBRANCH   1   2
BRANCH   1  10
ATOM     10  C   UNL     1       2.265   7.121  19.159  0.00  0.00    +0.000 A 
ATOM     11  C   UNL     1       2.176   7.937  18.022  0.00  0.00    +0.000 A 
ATOM     12  C   UNL     1       1.608   9.209  18.104  0.00  0.00    +0.000 A 
ATOM     13  C   UNL     1       1.126   9.662  19.325  0.00  0.00    +0.000 A 
ATOM     14  C   UNL     1       1.221   8.872  20.467  0.00  0.00    +0.000 A 
ATOM     15  C   UNL     1       1.807   7.602  20.387  0.00  0.00    +0.000 A 
BRANCH  13  16
ATOM     16  O   UNL     1       0.552  10.893  19.445  0.00  0.00    +0.000 OA
ATOM     17  H   UNL     1       0.639  11.363  18.600  0.00  0.00    +0.000 HD
ENDBRANCH  13  16
ENDBRANCH   1  10
BRANCH   1  19
ATOM     18  O   UNL     1       1.262   4.388  17.538  0.00  0.00    +0.000 OA
ATOM     19  S   UNL     1       1.790   4.491  18.884  0.00  0.00    +0.000 S 
ATOM     20  O   UNL     1       0.898   4.506  20.027  0.00  0.00    +0.000 OA
BRANCH  19  21
ATOM     21  C   UNL     1       2.902   3.107  19.145  0.00  0.00    +0.000 A 
ATOM     22  C   UNL     1       3.570   2.972  20.367  0.00  0.00    +0.000 A 
ATOM     23  C   UNL     1       4.443   1.896  20.565  0.00  0.00    +0.000 A 
ATOM     24  C   UNL     1       4.635   0.970  19.541  0.00  0.00    +0.000 A 
ATOM     25  C   UNL     1       3.962   1.094  18.334  0.00  0.00    +0.000 A 
ATOM     26  C   UNL     1       3.077   2.159  18.130  0.00  0.00    +0.000 A 
BRANCH  24  27
ATOM     27  O   UNL     1       5.484  -0.085  19.689  0.00  0.00    +0.000 OA
ATOM     28  H   UNL     1       4.995  -0.839  20.053  0.00  0.00    +0.000 HD
ENDBRANCH  24  27
ENDBRANCH  19  21
ENDBRANCH   1  19
TORSDOF 7
ENDMDL
MODEL 4
REMARK VINA RESULT:      -6.9      2.136      4.483
REMARK  Name = 
REMARK  7 active torsions:
REMARK  status: ('A' for Active; 'I' for Inactive)
REMARK    1  A    between atoms: S_2  and  C_4
REMARK    2  A    between atoms: S_2  and  N_11
REMARK    3  A    between atoms: C_7  and  O_8
REMARK    4  A    between atoms: N_11  and  C_12
REMARK    5  A    between atoms: N_11  and  C_19
REMARK    6  A    between atoms: C_15  and  O_16
REMARK    7  A    between atoms: C_22  and  O_23
REMARK                            x       y       z     vdW  Elec       q    Type
REMARK                         _______ _______ _______ _____ _____    ______ ____
ROOT
ATOM      1  N   UNL     1       3.365   6.168  18.198  0.00  0.00    +0.000 N 
ENDROOT
BRANCH   1   2
ATOM      2  C   UNL     1       2.840   4.876  18.539  0.00  0.00    +0.000 A 
ATOM      3  C   UNL     1       3.384   4.057  19.531  0.00  0.00    +0.000 A 
ATOM      4  C   UNL     1       2.838   2.791  19.776  0.00  0.00    +0.000 A 
ATOM      5  C   UNL     1       1.767   2.346  19.005  0.00  0.00    +0.000 A 
ATOM      6  C   UNL     1       1.224   3.149  18.012  0.00  0.00    +0.000 A 
ATOM      7  C   UNL     1       1.752   4.417  17.785  0.00  0.00    +0.000 A 
BRANCH   5   8
ATOM      8  O   UNL     1       1.219   1.112  19.187  0.00  0.00    +0.000 OA
ATOM      9  H   UNL     1       1.462   0.784  20.068  0.00  0.00    +0.000 HD
ENDBRANCH   5   8
ENDBRANCH   1   2
BRANCH   1  10
ATOM     10  C   UNL     1       2.589   7.318  18.563  0.00  0.00    +0.000 A 
ATOM     11  C   UNL     1       2.159   7.395  19.895  0.00  0.00    +0.000 A 
ATOM     12  C   UNL     1       1.415   8.488  20.339  0.00  0.00    +0.000 A 
ATOM     13  C   UNL     1       1.104   9.508  19.449  0.00  0.00    +0.000 A 
ATOM     14  C   UNL     1       1.510   9.440  18.119  0.00  0.00    +0.000 A 
ATOM     15  C   UNL     1       2.243   8.334  17.669  0.00  0.00    +0.000 A 
BRANCH  13  16
ATOM     16  O   UNL     1       0.391  10.599  19.845  0.00  0.00    +0.000 OA
ATOM     17  H   UNL     1      -0.522  10.509  19.527  0.00  0.00    +0.000 HD
ENDBRANCH  13  16
ENDBRANCH   1  10
BRANCH   1  19
ATOM     18  O   UNL     1       5.683   5.691  19.215  0.00  0.00    +0.000 OA
ATOM     19  S   UNL     1       5.053   6.356  18.093  0.00  0.00    +0.000 S 
ATOM     20  O   UNL     1       5.362   7.738  17.785  0.00  0.00    +0.000 OA
BRANCH  19  21
ATOM     21  C   UNL     1       5.444   5.421  16.611  0.00  0.00    +0.000 A 
ATOM     22  C   UNL     1       5.291   6.014  15.354  0.00  0.00    +0.000 A 
ATOM     23  C   UNL     1       5.589   5.281  14.199  0.00  0.00    +0.000 A 
ATOM     24  C   UNL     1       6.038   3.967  14.318  0.00  0.00    +0.000 A 
ATOM     25  C   UNL     1       6.205   3.381  15.565  0.00  0.00    +0.000 A 
ATOM     26  C   UNL     1       5.921   4.110  16.726  0.00  0.00    +0.000 A 
BRANCH  24  27
ATOM     27  O   UNL     1       6.329   3.215  13.220  0.00  0.00    +0.000 OA
ATOM     28  H   UNL     1       6.563   3.802  12.484  0.00  0.00    +0.000 HD
ENDBRANCH  24  27
ENDBRANCH  19  21
ENDBRANCH   1  19
TORSDOF 7
ENDMDL
MODEL 5
REMARK VINA RESULT:      -6.9      2.143      4.532
REMARK  Name = 
REMARK  7 active torsions:
REMARK  status: ('A' for Active; 'I' for Inactive)
REMARK    1  A    between atoms: S_2  and  C_4
REMARK    2  A    between atoms: S_2  and  N_11
REMARK    3  A    between atoms: C_7  and  O_8
REMARK    4  A    between atoms: N_11  and  C_12
REMARK    5  A    between atoms: N_11  and  C_19
REMARK    6  A    between atoms: C_15  and  O_16
REMARK    7  A    between atoms: C_22  and  O_23
REMARK                            x       y       z     vdW  Elec       q    Type
REMARK                         _______ _______ _______ _____ _____    ______ ____
ROOT
ATOM      1  N   UNL     1       3.346   6.207  18.244  0.00  0.00    +0.000 N 
ENDROOT
BRANCH   1   2
ATOM      2  C   UNL     1       2.819   4.911  18.562  0.00  0.00    +0.000 A 
ATOM      3  C   UNL     1       3.316   4.105  19.589  0.00  0.00    +0.000 A 
ATOM      4  C   UNL     1       2.772   2.833  19.811  0.00  0.00    +0.000 A 
ATOM      5  C   UNL     1       1.752   2.371  18.983  0.00  0.00    +0.000 A 
ATOM      6  C   UNL     1       1.256   3.161  17.956  0.00  0.00    +0.000 A 
ATOM      7  C   UNL     1       1.781   4.434  17.751  0.00  0.00    +0.000 A 
BRANCH   5   8
ATOM      8  O   UNL     1       1.209   1.131  19.142  0.00  0.00    +0.000 OA
ATOM      9  H   UNL     1       1.876   0.462  18.917  0.00  0.00    +0.000 HD
ENDBRANCH   5   8
ENDBRANCH   1   2
BRANCH   1  10
ATOM     10  C   UNL     1       2.583   7.354  18.645  0.00  0.00    +0.000 A 
ATOM     11  C   UNL     1       2.327   8.319  17.661  0.00  0.00    +0.000 A 
ATOM     12  C   UNL     1       1.579   9.457  17.961  0.00  0.00    +0.000 A 
ATOM     13  C   UNL     1       1.083   9.627  19.247  0.00  0.00    +0.000 A 
ATOM     14  C   UNL     1       1.341   8.687  20.240  0.00  0.00    +0.000 A 
ATOM     15  C   UNL     1       2.107   7.552  19.943  0.00  0.00    +0.000 A 
BRANCH  13  16
ATOM     16  O   UNL     1       0.335  10.718  19.577  0.00  0.00    +0.000 OA
ATOM     17  H   UNL     1       0.601  11.024  20.460  0.00  0.00    +0.000 HD
ENDBRANCH  13  16
ENDBRANCH   1  10
BRANCH   1  19
ATOM     18  O   UNL     1       5.674   5.737  19.244  0.00  0.00    +0.000 OA
ATOM     19  S   UNL     1       5.034   6.388  18.118  0.00  0.00    +0.000 S 
ATOM     20  O   UNL     1       5.345   7.764  17.787  0.00  0.00    +0.000 OA
BRANCH  19  21
ATOM     21  C   UNL     1       5.407   5.431  16.646  0.00  0.00    +0.000 A 
ATOM     22  C   UNL     1       5.770   4.085  16.765  0.00  0.00    +0.000 A 
ATOM     23  C   UNL     1       6.069   3.343  15.616  0.00  0.00    +0.000 A 
ATOM     24  C   UNL     1       5.998   3.955  14.367  0.00  0.00    +0.000 A 
ATOM     25  C   UNL     1       5.623   5.285  14.245  0.00  0.00    +0.000 A 
ATOM     26  C   UNL     1       5.311   6.033  15.386  0.00  0.00    +0.000 A 
BRANCH  24  27
ATOM     27  O   UNL     1       6.291   3.272  13.225  0.00  0.00    +0.000 OA
ATOM     28  H   UNL     1       6.777   2.464  13.452  0.00  0.00    +0.000 HD
ENDBRANCH  24  27
ENDBRANCH  19  21
ENDBRANCH   1  19
TORSDOF 7
ENDMDL
MODEL 6
REMARK VINA RESULT:      -6.8      2.228      4.563
REMARK  Name = 
REMARK  7 active torsions:
REMARK  status: ('A' for Active; 'I' for Inactive)
REMARK    1  A    between atoms: S_2  and  C_4
REMARK    2  A    between atoms: S_2  and  N_11
REMARK    3  A    between atoms: C_7  and  O_8
REMARK    4  A    between atoms: N_11  and  C_12
REMARK    5  A    between atoms: N_11  and  C_19
REMARK    6  A    between atoms: C_15  and  O_16
REMARK    7  A    between atoms: C_22  and  O_23
REMARK                            x       y       z     vdW  Elec       q    Type
REMARK                         _______ _______ _______ _____ _____    ______ ____
ROOT
ATOM      1  N   UNL     1       3.296   6.165  18.309  0.00  0.00    +0.000 N 
ENDROOT
BRANCH   1   2
ATOM      2  C   UNL     1       2.726   4.886  18.622  0.00  0.00    +0.000 A 
ATOM      3  C   UNL     1       2.658   4.367  19.918  0.00  0.00    +0.000 A 
ATOM      4  C   UNL     1       2.122   3.091  20.136  0.00  0.00    +0.000 A 
ATOM      5  C   UNL     1       1.685   2.336  19.050  0.00  0.00    +0.000 A 
ATOM      6  C   UNL     1       1.756   2.840  17.759  0.00  0.00    +0.000 A 
ATOM      7  C   UNL     1       2.267   4.118  17.545  0.00  0.00    +0.000 A 
BRANCH   5   8
ATOM      8  O   UNL     1       1.182   1.080  19.209  0.00  0.00    +0.000 OA
ATOM      9  H   UNL     1       1.521   0.511  18.499  0.00  0.00    +0.000 HD
ENDBRANCH   5   8
ENDBRANCH   1   2
BRANCH   1  10
ATOM     10  C   UNL     1       2.547   7.334  18.669  0.00  0.00    +0.000 A 
ATOM     11  C   UNL     1       2.305   8.270  17.653  0.00  0.00    +0.000 A 
ATOM     12  C   UNL     1       1.571   9.426  17.912  0.00  0.00    +0.000 A 
ATOM     13  C   UNL     1       1.074   9.646  19.190  0.00  0.00    +0.000 A 
ATOM     14  C   UNL     1       1.318   8.736  20.215  0.00  0.00    +0.000 A 
ATOM     15  C   UNL     1       2.070   7.583  19.958  0.00  0.00    +0.000 A 
BRANCH  13  16
ATOM     16  O   UNL     1       0.340  10.757  19.482  0.00  0.00    +0.000 OA
ATOM     17  H   UNL     1       0.941  11.515  19.570  0.00  0.00    +0.000 HD
ENDBRANCH  13  16
ENDBRANCH   1  10
BRANCH   1  19
ATOM     18  O   UNL     1       5.578   5.582  19.354  0.00  0.00    +0.000 OA
ATOM     19  S   UNL     1       4.991   6.305  18.243  0.00  0.00    +0.000 S 
ATOM     20  O   UNL     1       5.349   7.687  17.991  0.00  0.00    +0.000 OA
BRANCH  19  21
ATOM     21  C   UNL     1       5.385   5.411  16.737  0.00  0.00    +0.000 A 
ATOM     22  C   UNL     1       5.274   6.052  15.499  0.00  0.00    +0.000 A 
ATOM     23  C   UNL     1       5.574   5.350  14.325  0.00  0.00    +0.000 A 
ATOM     24  C   UNL     1       5.982   4.020  14.406  0.00  0.00    +0.000 A 
ATOM     25  C   UNL     1       6.106   3.387  15.634  0.00  0.00    +0.000 A 
ATOM     26  C   UNL     1       5.821   4.083  16.815  0.00  0.00    +0.000 A 
BRANCH  24  27
ATOM     27  O   UNL     1       6.272   3.298  13.288  0.00  0.00    +0.000 OA
ATOM     28  H   UNL     1       7.150   3.552  12.963  0.00  0.00    +0.000 HD
ENDBRANCH  24  27
ENDBRANCH  19  21
ENDBRANCH   1  19
TORSDOF 7
ENDMDL
MODEL 7
REMARK VINA RESULT:      -6.8      1.838      2.970
REMARK  Name = 
REMARK  7 active torsions:
REMARK  status: ('A' for Active; 'I' for Inactive)
REMARK    1  A    between atoms: S_2  and  C_4
REMARK    2  A    between atoms: S_2  and  N_11
REMARK    3  A    between atoms: C_7  and  O_8
REMARK    4  A    between atoms: N_11  and  C_12
REMARK    5  A    between atoms: N_11  and  C_19
REMARK    6  A    between atoms: C_15  and  O_16
REMARK    7  A    between atoms: C_22  and  O_23
REMARK                            x       y       z     vdW  Elec       q    Type
REMARK                         _______ _______ _______ _____ _____    ______ ____
ROOT
ATOM      1  N   UNL     1       4.028   4.690  17.721  0.00  0.00    +0.000 N 
ENDROOT
BRANCH   1   2
ATOM      2  C   UNL     1       5.158   4.904  16.863  0.00  0.00    +0.000 A 
ATOM      3  C   UNL     1       6.352   5.493  17.288  0.00  0.00    +0.000 A 
ATOM      4  C   UNL     1       7.396   5.704  16.378  0.00  0.00    +0.000 A 
ATOM      5  C   UNL     1       7.223   5.348  15.043  0.00  0.00    +0.000 A 
ATOM      6  C   UNL     1       6.038   4.770  14.609  0.00  0.00    +0.000 A 
ATOM      7  C   UNL     1       5.010   4.538  15.519  0.00  0.00    +0.000 A 
BRANCH   5   8
ATOM      8  O   UNL     1       8.198   5.558  14.114  0.00  0.00    +0.000 OA
ATOM      9  H   UNL     1       8.825   4.819  14.141  0.00  0.00    +0.000 HD
ENDBRANCH   5   8
ENDBRANCH   1   2
BRANCH   1  10
ATOM     10  C   UNL     1       3.355   5.848  18.236  0.00  0.00    +0.000 A 
ATOM     11  C   UNL     1       3.097   6.885  17.328  0.00  0.00    +0.000 A 
ATOM     12  C   UNL     1       2.431   8.039  17.741  0.00  0.00    +0.000 A 
ATOM     13  C   UNL     1       2.020   8.154  19.062  0.00  0.00    +0.000 A 
ATOM     14  C   UNL     1       2.282   7.141  19.980  0.00  0.00    +0.000 A 
ATOM     15  C   UNL     1       2.966   5.989  19.569  0.00  0.00    +0.000 A 
BRANCH  13  16
ATOM     16  O   UNL     1       1.355   9.259  19.502  0.00  0.00    +0.000 OA
ATOM     17  H   UNL     1       1.040   9.762  18.734  0.00  0.00    +0.000 HD
ENDBRANCH  13  16
ENDBRANCH   1  10
BRANCH   1  19
ATOM     18  O   UNL     1       3.999   2.163  17.222  0.00  0.00    +0.000 OA
ATOM     19  S   UNL     1       3.113   3.270  17.518  0.00  0.00    +0.000 S 
ATOM     20  O   UNL     1       1.974   3.552  16.666  0.00  0.00    +0.000 OA
BRANCH  19  21
ATOM     21  C   UNL     1       2.445   3.014  19.165  0.00  0.00    +0.000 A 
ATOM     22  C   UNL     1       3.296   2.643  20.211  0.00  0.00    +0.000 A 
ATOM     23  C   UNL     1       2.772   2.436  21.492  0.00  0.00    +0.000 A 
ATOM     24  C   UNL     1       1.407   2.605  21.710  0.00  0.00    +0.000 A 
ATOM     25  C   UNL     1       0.562   2.989  20.678  0.00  0.00    +0.000 A 
ATOM     26  C   UNL     1       1.078   3.211  19.395  0.00  0.00    +0.000 A 
BRANCH  24  27
ATOM     27  O   UNL     1       0.854   2.403  22.939  0.00  0.00    +0.000 OA
ATOM     28  H   UNL     1       0.771   1.450  23.099  0.00  0.00    +0.000 HD
ENDBRANCH  24  27
ENDBRANCH  19  21
ENDBRANCH   1  19
TORSDOF 7
ENDMDL
MODEL 8
REMARK VINA RESULT:      -6.7      0.464      4.721
REMARK  Name = 
REMARK  7 active torsions:
REMARK  status: ('A' for Active; 'I' for Inactive)
REMARK    1  A    between atoms: S_2  and  C_4
REMARK    2  A    between atoms: S_2  and  N_11
REMARK    3  A    between atoms: C_7  and  O_8
REMARK    4  A    between atoms: N_11  and  C_12
REMARK    5  A    between atoms: N_11  and  C_19
REMARK    6  A    between atoms: C_15  and  O_16
REMARK    7  A    between atoms: C_22  and  O_23
REMARK                            x       y       z     vdW  Elec       q    Type
REMARK                         _______ _______ _______ _____ _____    ______ ____
ROOT
ATOM      1  N   UNL     1       2.667   5.525  18.235  0.00  0.00    +0.000 N 
ENDROOT
BRANCH   1   2
ATOM      2  C   UNL     1       2.298   6.817  18.736  0.00  0.00    +0.000 A 
ATOM      3  C   UNL     1       2.007   7.072  20.080  0.00  0.00    +0.000 A 
ATOM      4  C   UNL     1       1.615   8.355  20.483  0.00  0.00    +0.000 A 
ATOM      5  C   UNL     1       1.491   9.364  19.532  0.00  0.00    +0.000 A 
ATOM      6  C   UNL     1       1.770   9.120  18.194  0.00  0.00    +0.000 A 
ATOM      7  C   UNL     1       2.183   7.850  17.798  0.00  0.00    +0.000 A 
BRANCH   5   8
ATOM      8  O   UNL     1       1.086  10.621  19.871  0.00  0.00    +0.000 OA
ATOM      9  H   UNL     1       0.632  11.022  19.113  0.00  0.00    +0.000 HD
ENDBRANCH   5   8
ENDBRANCH   1   2
BRANCH   1  10
ATOM     10  C   UNL     1       4.062   5.267  18.023  0.00  0.00    +0.000 A 
ATOM     11  C   UNL     1       4.429   4.770  16.763  0.00  0.00    +0.000 A 
ATOM     12  C   UNL     1       5.766   4.507  16.466  0.00  0.00    +0.000 A 
ATOM     13  C   UNL     1       6.738   4.745  17.429  0.00  0.00    +0.000 A 
ATOM     14  C   UNL     1       6.390   5.223  18.689  0.00  0.00    +0.000 A 
ATOM     15  C   UNL     1       5.045   5.471  18.993  0.00  0.00    +0.000 A 
BRANCH  13  16
ATOM     16  O   UNL     1       8.057   4.515  17.173  0.00  0.00    +0.000 OA
ATOM     17  H   UNL     1       8.557   5.328  17.351  0.00  0.00    +0.000 HD
ENDBRANCH  13  16
ENDBRANCH   1  10
BRANCH   1  19
ATOM     18  O   UNL     1       1.001   3.750  17.392  0.00  0.00    +0.000 OA
ATOM     19  S   UNL     1       1.667   4.197  18.599  0.00  0.00    +0.000 S 
ATOM     20  O   UNL     1       0.904   4.486  19.798  0.00  0.00    +0.000 OA
BRANCH  19  21
ATOM     21  C   UNL     1       2.861   2.941  19.064  0.00  0.00    +0.000 A 
ATOM     22  C   UNL     1       3.434   2.965  20.341  0.00  0.00    +0.000 A 
ATOM     23  C   UNL     1       4.371   1.989  20.698  0.00  0.00    +0.000 A 
ATOM     24  C   UNL     1       4.721   1.003  19.778  0.00  0.00    +0.000 A 
ATOM     25  C   UNL     1       4.143   0.968  18.517  0.00  0.00    +0.000 A 
ATOM     26  C   UNL     1       3.195   1.932  18.153  0.00  0.00    +0.000 A 
BRANCH  24  27
ATOM     27  O   UNL     1       5.637   0.042  20.082  0.00  0.00    +0.000 OA
ATOM     28  H   UNL     1       6.254  -0.058  19.340  0.00  0.00    +0.000 HD
ENDBRANCH  24  27
ENDBRANCH  19  21
ENDBRANCH   1  19
TORSDOF 7
ENDMDL
MODEL 9
REMARK VINA RESULT:      -6.7      2.132      4.349
REMARK  Name = 
REMARK  7 active torsions:
REMARK  status: ('A' for Active; 'I' for Inactive)
REMARK    1  A    between atoms: S_2  and  C_4
REMARK    2  A    between atoms: S_2  and  N_11
REMARK    3  A    between atoms: C_7  and  O_8
REMARK    4  A    between atoms: N_11  and  C_12
REMARK    5  A    between atoms: N_11  and  C_19
REMARK    6  A    between atoms: C_15  and  O_16
REMARK    7  A    between atoms: C_22  and  O_23
REMARK                            x       y       z     vdW  Elec       q    Type
REMARK                         _______ _______ _______ _____ _____    ______ ____
ROOT
ATOM      1  N   UNL     1       3.338   6.210  18.105  0.00  0.00    +0.000 N 
ENDROOT
BRANCH   1   2
ATOM      2  C   UNL     1       2.801   4.900  18.338  0.00  0.00    +0.000 A 
ATOM      3  C   UNL     1       1.684   4.392  17.669  0.00  0.00    +0.000 A 
ATOM      4  C   UNL     1       1.196   3.117  17.983  0.00  0.00    +0.000 A 
ATOM      5  C   UNL     1       1.816   2.374  18.984  0.00  0.00    +0.000 A 
ATOM      6  C   UNL     1       2.921   2.873  19.660  0.00  0.00    +0.000 A 
ATOM      7  C   UNL     1       3.420   4.130  19.331  0.00  0.00    +0.000 A 
BRANCH   5   8
ATOM      8  O   UNL     1       1.361   1.140  19.344  0.00  0.00    +0.000 OA
ATOM      9  H   UNL     1       1.782   0.471  18.781  0.00  0.00    +0.000 HD
ENDBRANCH   5   8
ENDBRANCH   1   2
BRANCH   1  10
ATOM     10  C   UNL     1       2.573   7.334  18.560  0.00  0.00    +0.000 A 
ATOM     11  C   UNL     1       2.201   7.341  19.913  0.00  0.00    +0.000 A 
ATOM     12  C   UNL     1       1.471   8.404  20.442  0.00  0.00    +0.000 A 
ATOM     13  C   UNL     1       1.114   9.464  19.619  0.00  0.00    +0.000 A 
ATOM     14  C   UNL     1       1.460   9.466  18.271  0.00  0.00    +0.000 A 
ATOM     15  C   UNL     1       2.179   8.390  17.735  0.00  0.00    +0.000 A 
BRANCH  13  16
ATOM     16  O   UNL     1       0.412  10.528  20.101  0.00  0.00    +0.000 OA
ATOM     17  H   UNL     1       0.900  10.912  20.847  0.00  0.00    +0.000 HD
ENDBRANCH  13  16
ENDBRANCH   1  10
BRANCH   1  19
ATOM     18  O   UNL     1       5.642   5.746  19.161  0.00  0.00    +0.000 OA
ATOM     19  S   UNL     1       5.028   6.390  18.017  0.00  0.00    +0.000 S 
ATOM     20  O   UNL     1       5.347   7.765  17.686  0.00  0.00    +0.000 OA
BRANCH  19  21
ATOM     21  C   UNL     1       5.436   5.425  16.560  0.00  0.00    +0.000 A 
ATOM     22  C   UNL     1       5.874   4.104  16.701  0.00  0.00    +0.000 A 
ATOM     23  C   UNL     1       6.199   3.356  15.564  0.00  0.00    +0.000 A 
ATOM     24  C   UNL     1       6.079   3.936  14.303  0.00  0.00    +0.000 A 
ATOM     25  C   UNL     1       5.630   5.241  14.159  0.00  0.00    +0.000 A 
ATOM     26  C   UNL     1       5.290   5.994  15.289  0.00  0.00    +0.000 A 
BRANCH  24  27
ATOM     27  O   UNL     1       6.395   3.247  13.172  0.00  0.00    +0.000 OA
ATOM     28  H   UNL     1       7.312   2.935  13.233  0.00  0.00    +0.000 HD
ENDBRANCH  24  27
ENDBRANCH  19  21
ENDBRANCH   1  19
TORSDOF 7
ENDMDL
