MODEL 1
REMARK VINA RESULT:      -7.3      0.000      0.000
REMARK  Name = 
REMARK  5 active torsions:
REMARK  status: ('A' for Active; 'I' for Inactive)
REMARK    1  A    between atoms: C_2  and  C_19
REMARK    2  A    between atoms: N_3  and  C_4
REMARK    3  A    between atoms: C_4  and  N_6
REMARK    4  A    between atoms: N_6  and  C_7
REMARK    5  A    between atoms: C_12  and  N_13
REMARK                            x       y       z     vdW  Elec       q    Type
REMARK                         _______ _______ _______ _____ _____    ______ ____
ROOT
ATOM      1  N   UNL     1       2.810   6.246  19.954  0.00  0.00    +0.000 N 
ATOM      2  H   UNL     1       3.552   6.377  20.636  0.00  0.00    +0.000 HD
ENDROOT
BRANCH   1   3
ATOM      3  C   UNL     1       2.499   4.876  19.702  0.00  0.00    +0.000 A 
ATOM      4  C   UNL     1       1.363   4.290  20.290  0.00  0.00    +0.000 A 
ATOM      5  C   UNL     1       0.979   2.974  20.017  0.00  0.00    +0.000 A 
ATOM      6  C   UNL     1       1.742   2.209  19.160  0.00  0.00    +0.000 A 
ATOM      7  C   UNL     1       2.905   2.753  18.615  0.00  0.00    +0.000 A 
ATOM      8  C   UNL     1       3.345   4.076  18.874  0.00  0.00    +0.000 A 
BRANCH   8   9
ATOM      9  N   UNL     1       4.521   4.470  18.232  0.00  0.00    +0.000 N 
ATOM     10  C   UNL     1       5.743   4.886  18.908  0.00  0.00    +0.000 C 
ATOM     11  C   UNL     1       6.352   6.103  18.212  0.00  0.00    +0.000 C 
ATOM     12  C   UNL     1       6.552   5.854  16.720  0.00  0.00    +0.000 C 
ATOM     13  C   UNL     1       5.253   5.380  16.074  0.00  0.00    +0.000 C 
ATOM     14  C   UNL     1       4.686   4.159  16.801  0.00  0.00    +0.000 C 
ENDBRANCH   8   9
ENDBRANCH   1   3
BRANCH   1  15
ATOM     15  C   UNL     1       2.480   7.379  19.231  0.00  0.00    +0.000 C 
ATOM     16  S   UNL     1       2.890   7.845  17.675  0.00  0.00    +0.000 S 
BRANCH  15  19
ATOM     17  O   UNL     1       0.638   7.130  21.493  0.00  0.00    +0.000 OA
ATOM     18  C   UNL     1       0.928   8.225  21.024  0.00  0.00    +0.000 C 
ATOM     19  N   UNL     1       1.762   8.344  19.923  0.00  0.00    +0.000 N 
ATOM     20  H   UNL     1       1.887   9.276  19.555  0.00  0.00    +0.000 HD
BRANCH  18  21
ATOM     21  C   UNL     1       0.390   9.462  21.566  0.00  0.00    +0.000 A 
ATOM     22  C   UNL     1      -0.401   9.570  22.697  0.00  0.00    +0.000 A 
ATOM     23  C   UNL     1      -0.839  10.901  22.933  0.00  0.00    +0.000 A 
ATOM     24  C   UNL     1      -0.342  11.779  21.997  0.00  0.00    +0.000 A 
ATOM     25  S   UNL     1       0.657  10.993  20.850  0.00  0.00    +0.000 S 
ENDBRANCH  18  21
ENDBRANCH  15  19
ENDBRANCH   1  15
TORSDOF 5
ENDMDL
MODEL 2
REMARK VINA RESULT:      -7.2      4.317      6.925
REMARK  Name = 
REMARK  5 active torsions:
REMARK  status: ('A' for Active; 'I' for Inactive)
REMARK    1  A    between atoms: C_2  and  C_19
REMARK    2  A    between atoms: N_3  and  C_4
REMARK    3  A    between atoms: C_4  and  N_6
REMARK    4  A    between atoms: N_6  and  C_7
REMARK    5  A    between atoms: C_12  and  N_13
REMARK                            x       y       z     vdW  Elec       q    Type
REMARK                         _______ _______ _______ _____ _____    ______ ____
ROOT
ATOM      1  N   UNL     1       7.253   6.915  17.155  0.00  0.00    +0.000 N 
ATOM      2  H   UNL     1       7.016   7.848  16.827  0.00  0.00    +0.000 HD
ENDROOT
BRANCH   1   3
ATOM      3  C   UNL     1       6.575   5.873  16.455  0.00  0.00    +0.000 A 
ATOM      4  C   UNL     1       7.194   5.238  15.361  0.00  0.00    +0.000 A 
ATOM      5  C   UNL     1       6.599   4.166  14.689  0.00  0.00    +0.000 A 
ATOM      6  C   UNL     1       5.358   3.720  15.089  0.00  0.00    +0.000 A 
ATOM      7  C   UNL     1       4.703   4.375  16.132  0.00  0.00    +0.000 A 
ATOM      8  C   UNL     1       5.256   5.477  16.833  0.00  0.00    +0.000 A 
BRANCH   8   9
ATOM      9  N   UNL     1       4.476   6.004  17.864  0.00  0.00    +0.000 N 
ATOM     10  C   UNL     1       4.460   5.512  19.236  0.00  0.00    +0.000 C 
ATOM     11  C   UNL     1       3.029   5.466  19.770  0.00  0.00    +0.000 C 
ATOM     12  C   UNL     1       2.326   6.810  19.612  0.00  0.00    +0.000 C 
ATOM     13  C   UNL     1       2.412   7.297  18.169  0.00  0.00    +0.000 C 
ATOM     14  C   UNL     1       3.862   7.332  17.681  0.00  0.00    +0.000 C 
ENDBRANCH   8   9
ENDBRANCH   1   3
BRANCH   1  15
ATOM     15  C   UNL     1       7.933   6.879  18.360  0.00  0.00    +0.000 C 
ATOM     16  S   UNL     1       7.983   5.707  19.555  0.00  0.00    +0.000 S 
BRANCH  15  19
ATOM     17  O   UNL     1       7.534   9.654  17.515  0.00  0.00    +0.000 OA
ATOM     18  C   UNL     1       8.401   9.353  18.326  0.00  0.00    +0.000 C 
ATOM     19  N   UNL     1       8.625   8.035  18.692  0.00  0.00    +0.000 N 
ATOM     20  H   UNL     1       9.409   7.868  19.308  0.00  0.00    +0.000 HD
BRANCH  18  21
ATOM     21  C   UNL     1       9.274  10.350  18.926  0.00  0.00    +0.000 A 
ATOM     22  C   UNL     1       9.412  10.589  20.282  0.00  0.00    +0.000 A 
ATOM     23  C   UNL     1      10.281  11.679  20.560  0.00  0.00    +0.000 A 
ATOM     24  C   UNL     1      10.811  12.218  19.410  0.00  0.00    +0.000 A 
ATOM     25  S   UNL     1      10.266  11.400  18.008  0.00  0.00    +0.000 S 
ENDBRANCH  18  21
ENDBRANCH  15  19
ENDBRANCH   1  15
TORSDOF 5
ENDMDL
MODEL 3
REMARK VINA RESULT:      -7.2      3.351      7.491
REMARK  Name = 
REMARK  5 active torsions:
REMARK  status: ('A' for Active; 'I' for Inactive)
REMARK    1  A    between atoms: C_2  and  C_19
REMARK    2  A    between atoms: N_3  and  C_4
REMARK    3  A    between atoms: C_4  and  N_6
REMARK    4  A    between atoms: N_6  and  C_7
REMARK    5  A    between atoms: C_12  and  N_13
REMARK                            x       y       z     vdW  Elec       q    Type
REMARK                         _______ _______ _______ _____ _____    ______ ____
ROOT
ATOM      1  N   UNL     1       5.266   5.643  18.338  0.00  0.00    +0.000 N 
ATOM      2  H   UNL     1       5.694   5.405  19.229  0.00  0.00    +0.000 HD
ENDROOT
BRANCH   1   3
ATOM      3  C   UNL     1       4.053   4.937  18.080  0.00  0.00    +0.000 A 
ATOM      4  C   UNL     1       4.093   3.596  17.651  0.00  0.00    +0.000 A 
ATOM      5  C   UNL     1       2.933   2.842  17.454  0.00  0.00    +0.000 A 
ATOM      6  C   UNL     1       1.702   3.426  17.664  0.00  0.00    +0.000 A 
ATOM      7  C   UNL     1       1.639   4.771  18.031  0.00  0.00    +0.000 A 
ATOM      8  C   UNL     1       2.786   5.582  18.227  0.00  0.00    +0.000 A 
BRANCH   8   9
ATOM      9  N   UNL     1       2.548   6.902  18.612  0.00  0.00    +0.000 N 
ATOM     10  C   UNL     1       2.432   7.364  19.989  0.00  0.00    +0.000 C 
ATOM     11  C   UNL     1       1.281   8.360  20.124  0.00  0.00    +0.000 C 
ATOM     12  C   UNL     1       1.408   9.503  19.122  0.00  0.00    +0.000 C 
ATOM     13  C   UNL     1       1.570   8.963  17.705  0.00  0.00    +0.000 C 
ATOM     14  C   UNL     1       2.737   7.975  17.619  0.00  0.00    +0.000 C 
ENDBRANCH   8   9
ENDBRANCH   1   3
BRANCH   1  15
ATOM     15  C   UNL     1       6.078   6.357  17.474  0.00  0.00    +0.000 C 
ATOM     16  S   UNL     1       6.897   7.802  17.682  0.00  0.00    +0.000 S 
BRANCH  15  19
ATOM     17  O   UNL     1       7.939   4.411  16.321  0.00  0.00    +0.000 OA
ATOM     18  C   UNL     1       7.026   4.892  15.658  0.00  0.00    +0.000 C 
ATOM     19  N   UNL     1       6.174   5.849  16.186  0.00  0.00    +0.000 N 
ATOM     20  H   UNL     1       5.499   6.247  15.549  0.00  0.00    +0.000 HD
BRANCH  18  21
ATOM     21  C   UNL     1       6.804   4.521  14.270  0.00  0.00    +0.000 A 
ATOM     22  C   UNL     1       5.728   3.793  13.793  0.00  0.00    +0.000 A 
ATOM     23  C   UNL     1       5.826   3.519  12.402  0.00  0.00    +0.000 A 
ATOM     24  C   UNL     1       6.956   4.077  11.848  0.00  0.00    +0.000 A 
ATOM     25  S   UNL     1       7.882   4.933  13.006  0.00  0.00    +0.000 S 
ENDBRANCH  18  21
ENDBRANCH  15  19
ENDBRANCH   1  15
TORSDOF 5
ENDMDL
MODEL 4
REMARK VINA RESULT:      -7.1      0.615      1.194
REMARK  Name = 
REMARK  5 active torsions:
REMARK  status: ('A' for Active; 'I' for Inactive)
REMARK    1  A    between atoms: C_2  and  C_19
REMARK    2  A    between atoms: N_3  and  C_4
REMARK    3  A    between atoms: C_4  and  N_6
REMARK    4  A    between atoms: N_6  and  C_7
REMARK    5  A    between atoms: C_12  and  N_13
REMARK                            x       y       z     vdW  Elec       q    Type
REMARK                         _______ _______ _______ _____ _____    ______ ____
ROOT
ATOM      1  N   UNL     1       2.565   6.616  20.125  0.00  0.00    +0.000 N 
ATOM      2  H   UNL     1       3.286   6.805  20.816  0.00  0.00    +0.000 HD
ENDROOT
BRANCH   1   3
ATOM      3  C   UNL     1       2.345   5.224  19.895  0.00  0.00    +0.000 A 
ATOM      4  C   UNL     1       1.271   4.566  20.522  0.00  0.00    +0.000 A 
ATOM      5  C   UNL     1       0.973   3.222  20.273  0.00  0.00    +0.000 A 
ATOM      6  C   UNL     1       1.764   2.504  19.402  0.00  0.00    +0.000 A 
ATOM      7  C   UNL     1       2.869   3.122  18.817  0.00  0.00    +0.000 A 
ATOM      8  C   UNL     1       3.222   4.476  19.051  0.00  0.00    +0.000 A 
BRANCH   8   9
ATOM      9  N   UNL     1       4.348   4.945  18.371  0.00  0.00    +0.000 N 
ATOM     10  C   UNL     1       4.389   5.282  16.954  0.00  0.00    +0.000 C 
ATOM     11  C   UNL     1       5.679   4.765  16.319  0.00  0.00    +0.000 C 
ATOM     12  C   UNL     1       6.911   5.244  17.080  0.00  0.00    +0.000 C 
ATOM     13  C   UNL     1       6.795   4.904  18.563  0.00  0.00    +0.000 C 
ATOM     14  C   UNL     1       5.492   5.446  19.154  0.00  0.00    +0.000 C 
ENDBRANCH   8   9
ENDBRANCH   1   3
BRANCH   1  15
ATOM     15  C   UNL     1       2.178   7.711  19.373  0.00  0.00    +0.000 C 
ATOM     16  S   UNL     1       2.496   8.116  17.780  0.00  0.00    +0.000 S 
BRANCH  15  19
ATOM     17  O   UNL     1       0.215   7.499  21.537  0.00  0.00    +0.000 OA
ATOM     18  C   UNL     1       0.589   8.589  21.118  0.00  0.00    +0.000 C 
ATOM     19  N   UNL     1       1.481   8.693  20.063  0.00  0.00    +0.000 N 
ATOM     20  H   UNL     1       1.676   9.628  19.732  0.00  0.00    +0.000 HD
BRANCH  18  21
ATOM     21  C   UNL     1       0.094   9.838  21.675  0.00  0.00    +0.000 A 
ATOM     22  C   UNL     1      -0.673   9.962  22.820  0.00  0.00    +0.000 A 
ATOM     23  C   UNL     1      -1.071  11.303  23.070  0.00  0.00    +0.000 A 
ATOM     24  C   UNL     1      -0.567  12.172  22.128  0.00  0.00    +0.000 A 
ATOM     25  S   UNL     1       0.389  11.365  20.960  0.00  0.00    +0.000 S 
ENDBRANCH  18  21
ENDBRANCH  15  19
ENDBRANCH   1  15
TORSDOF 5
ENDMDL
MODEL 5
REMARK VINA RESULT:      -7.1      0.934      1.118
REMARK  Name = 
REMARK  5 active torsions:
REMARK  status: ('A' for Active; 'I' for Inactive)
REMARK    1  A    between atoms: C_2  and  C_19
REMARK    2  A    between atoms: N_3  and  C_4
REMARK    3  A    between atoms: C_4  and  N_6
REMARK    4  A    between atoms: N_6  and  C_7
REMARK    5  A    between atoms: C_12  and  N_13
REMARK                            x       y       z     vdW  Elec       q    Type
REMARK                         _______ _______ _______ _____ _____    ______ ____
ROOT
ATOM      1  N   UNL     1       2.787   6.461  19.935  0.00  0.00    +0.000 N 
ATOM      2  H   UNL     1       3.513   6.688  20.609  0.00  0.00    +0.000 HD
ENDROOT
BRANCH   1   3
ATOM      3  C   UNL     1       2.449   5.074  19.904  0.00  0.00    +0.000 A 
ATOM      4  C   UNL     1       1.310   4.609  20.588  0.00  0.00    +0.000 A 
ATOM      5  C   UNL     1       0.900   3.274  20.530  0.00  0.00    +0.000 A 
ATOM      6  C   UNL     1       1.638   2.370  19.797  0.00  0.00    +0.000 A 
ATOM      7  C   UNL     1       2.804   2.799  19.162  0.00  0.00    +0.000 A 
ATOM      8  C   UNL     1       3.271   4.137  19.206  0.00  0.00    +0.000 A 
BRANCH   8   9
ATOM      9  N   UNL     1       4.445   4.403  18.499  0.00  0.00    +0.000 N 
ATOM     10  C   UNL     1       5.694   4.861  19.095  0.00  0.00    +0.000 C 
ATOM     11  C   UNL     1       6.327   5.954  18.234  0.00  0.00    +0.000 C 
ATOM     12  C   UNL     1       6.489   5.505  16.786  0.00  0.00    +0.000 C 
ATOM     13  C   UNL     1       5.163   4.996  16.228  0.00  0.00    +0.000 C 
ATOM     14  C   UNL     1       4.571   3.901  17.119  0.00  0.00    +0.000 C 
ENDBRANCH   8   9
ENDBRANCH   1   3
BRANCH   1  15
ATOM     15  C   UNL     1       2.507   7.463  19.022  0.00  0.00    +0.000 C 
ATOM     16  S   UNL     1       3.197   7.820  17.539  0.00  0.00    +0.000 S 
BRANCH  15  19
ATOM     17  O   UNL     1       1.536   8.168  21.694  0.00  0.00    +0.000 OA
ATOM     18  C   UNL     1       1.135   8.752  20.694  0.00  0.00    +0.000 C 
ATOM     19  N   UNL     1       1.555   8.389  19.424  0.00  0.00    +0.000 N 
ATOM     20  H   UNL     1       1.117   8.873  18.653  0.00  0.00    +0.000 HD
BRANCH  18  21
ATOM     21  C   UNL     1       0.167   9.835  20.772  0.00  0.00    +0.000 A 
ATOM     22  C   UNL     1      -0.455  10.440  19.694  0.00  0.00    +0.000 A 
ATOM     23  C   UNL     1      -1.293  11.521  20.081  0.00  0.00    +0.000 A 
ATOM     24  C   UNL     1      -1.316  11.688  21.447  0.00  0.00    +0.000 A 
ATOM     25  S   UNL     1      -0.338  10.535  22.250  0.00  0.00    +0.000 S 
ENDBRANCH  18  21
ENDBRANCH  15  19
ENDBRANCH   1  15
TORSDOF 5
ENDMDL
MODEL 6
REMARK VINA RESULT:      -7.0      3.336      7.106
REMARK  Name = 
REMARK  5 active torsions:
REMARK  status: ('A' for Active; 'I' for Inactive)
REMARK    1  A    between atoms: C_2  and  C_19
REMARK    2  A    between atoms: N_3  and  C_4
REMARK    3  A    between atoms: C_4  and  N_6
REMARK    4  A    between atoms: N_6  and  C_7
REMARK    5  A    between atoms: C_12  and  N_13
REMARK                            x       y       z     vdW  Elec       q    Type
REMARK                         _______ _______ _______ _____ _____    ______ ____
ROOT
ATOM      1  N   UNL     1       5.185   4.793  19.138  0.00  0.00    +0.000 N 
ATOM      2  H   UNL     1       5.295   4.801  20.149  0.00  0.00    +0.000 HD
ENDROOT
BRANCH   1   3
ATOM      3  C   UNL     1       3.960   4.204  18.702  0.00  0.00    +0.000 A 
ATOM      4  C   UNL     1       3.922   2.847  18.329  0.00  0.00    +0.000 A 
ATOM      5  C   UNL     1       2.733   2.210  17.962  0.00  0.00    +0.000 A 
ATOM      6  C   UNL     1       1.557   2.928  17.943  0.00  0.00    +0.000 A 
ATOM      7  C   UNL     1       1.584   4.288  18.251  0.00  0.00    +0.000 A 
ATOM      8  C   UNL     1       2.767   4.984  18.612  0.00  0.00    +0.000 A 
BRANCH   8   9
ATOM      9  N   UNL     1       2.617   6.340  18.909  0.00  0.00    +0.000 N 
ATOM     10  C   UNL     1       2.362   6.882  20.238  0.00  0.00    +0.000 C 
ATOM     11  C   UNL     1       1.313   7.991  20.170  0.00  0.00    +0.000 C 
ATOM     12  C   UNL     1       1.694   9.063  19.154  0.00  0.00    +0.000 C 
ATOM     13  C   UNL     1       1.992   8.436  17.795  0.00  0.00    +0.000 C 
ATOM     14  C   UNL     1       3.050   7.337  17.913  0.00  0.00    +0.000 C 
ENDBRANCH   8   9
ENDBRANCH   1   3
BRANCH   1  15
ATOM     15  C   UNL     1       6.337   5.076  18.426  0.00  0.00    +0.000 C 
ATOM     16  S   UNL     1       7.750   5.849  18.887  0.00  0.00    +0.000 S 
BRANCH  15  19
ATOM     17  O   UNL     1       5.951   6.764  16.064  0.00  0.00    +0.000 OA
ATOM     18  C   UNL     1       6.167   5.562  15.961  0.00  0.00    +0.000 C 
ATOM     19  N   UNL     1       6.302   4.752  17.077  0.00  0.00    +0.000 N 
ATOM     20  H   UNL     1       6.403   3.762  16.902  0.00  0.00    +0.000 HD
BRANCH  18  21
ATOM     21  C   UNL     1       6.258   4.904  14.667  0.00  0.00    +0.000 A 
ATOM     22  C   UNL     1       5.316   4.041  14.134  0.00  0.00    +0.000 A 
ATOM     23  C   UNL     1       5.719   3.495  12.885  0.00  0.00    +0.000 A 
ATOM     24  C   UNL     1       6.942   3.984  12.482  0.00  0.00    +0.000 A 
ATOM     25  S   UNL     1       7.586   5.104  13.606  0.00  0.00    +0.000 S 
ENDBRANCH  18  21
ENDBRANCH  15  19
ENDBRANCH   1  15
TORSDOF 5
ENDMDL
MODEL 7
REMARK VINA RESULT:      -7.0      3.458      7.405
REMARK  Name = 
REMARK  5 active torsions:
REMARK  status: ('A' for Active; 'I' for Inactive)
REMARK    1  A    between atoms: C_2  and  C_19
REMARK    2  A    between atoms: N_3  and  C_4
REMARK    3  A    between atoms: C_4  and  N_6
REMARK    4  A    between atoms: N_6  and  C_7
REMARK    5  A    between atoms: C_12  and  N_13
REMARK                            x       y       z     vdW  Elec       q    Type
REMARK                         _______ _______ _______ _____ _____    ______ ____
ROOT
ATOM      1  N   UNL     1       3.608   6.038  17.558  0.00  0.00    +0.000 N 
ATOM      2  H   UNL     1       3.287   6.532  16.730  0.00  0.00    +0.000 HD
ENDROOT
BRANCH   1   3
ATOM      3  C   UNL     1       2.843   6.326  18.728  0.00  0.00    +0.000 A 
ATOM      4  C   UNL     1       2.541   7.659  19.064  0.00  0.00    +0.000 A 
ATOM      5  C   UNL     1       1.737   7.987  20.160  0.00  0.00    +0.000 A 
ATOM      6  C   UNL     1       1.234   6.980  20.956  0.00  0.00    +0.000 A 
ATOM      7  C   UNL     1       1.571   5.656  20.674  0.00  0.00    +0.000 A 
ATOM      8  C   UNL     1       2.397   5.274  19.586  0.00  0.00    +0.000 A 
BRANCH   8   9
ATOM      9  N   UNL     1       2.621   3.905  19.434  0.00  0.00    +0.000 N 
ATOM     10  C   UNL     1       3.286   3.053  20.412  0.00  0.00    +0.000 C 
ATOM     11  C   UNL     1       4.245   2.088  19.715  0.00  0.00    +0.000 C 
ATOM     12  C   UNL     1       3.545   1.297  18.615  0.00  0.00    +0.000 C 
ATOM     13  C   UNL     1       2.831   2.235  17.647  0.00  0.00    +0.000 C 
ATOM     14  C   UNL     1       1.879   3.176  18.389  0.00  0.00    +0.000 C 
ENDBRANCH   8   9
ENDBRANCH   1   3
BRANCH   1  15
ATOM     15  C   UNL     1       4.853   5.445  17.435  0.00  0.00    +0.000 C 
ATOM     16  S   UNL     1       6.062   5.189  18.564  0.00  0.00    +0.000 S 
BRANCH  15  19
ATOM     17  O   UNL     1       7.263   6.030  15.878  0.00  0.00    +0.000 OA
ATOM     18  C   UNL     1       6.376   5.310  15.435  0.00  0.00    +0.000 C 
ATOM     19  N   UNL     1       5.212   5.070  16.148  0.00  0.00    +0.000 N 
ATOM     20  H   UNL     1       4.502   4.528  15.676  0.00  0.00    +0.000 HD
BRANCH  18  21
ATOM     21  C   UNL     1       6.469   4.695  14.120  0.00  0.00    +0.000 A 
ATOM     22  C   UNL     1       5.590   3.760  13.603  0.00  0.00    +0.000 A 
ATOM     23  C   UNL     1       5.986   3.284  12.324  0.00  0.00    +0.000 A 
ATOM     24  C   UNL     1       7.138   3.896  11.883  0.00  0.00    +0.000 A 
ATOM     25  S   UNL     1       7.724   5.045  13.010  0.00  0.00    +0.000 S 
ENDBRANCH  18  21
ENDBRANCH  15  19
ENDBRANCH   1  15
TORSDOF 5
ENDMDL
MODEL 8
REMARK VINA RESULT:      -6.9      4.037      7.860
REMARK  Name = 
REMARK  5 active torsions:
REMARK  status: ('A' for Active; 'I' for Inactive)
REMARK    1  A    between atoms: C_2  and  C_19
REMARK    2  A    between atoms: N_3  and  C_4
REMARK    3  A    between atoms: C_4  and  N_6
REMARK    4  A    between atoms: N_6  and  C_7
REMARK    5  A    between atoms: C_12  and  N_13
REMARK                            x       y       z     vdW  Elec       q    Type
REMARK                         _______ _______ _______ _____ _____    ______ ____
ROOT
ATOM      1  N   UNL     1       4.838   4.856  18.395  0.00  0.00    +0.000 N 
ATOM      2  H   UNL     1       4.391   4.013  18.747  0.00  0.00    +0.000 HD
ENDROOT
BRANCH   1   3
ATOM      3  C   UNL     1       3.949   5.966  18.271  0.00  0.00    +0.000 A 
ATOM      4  C   UNL     1       4.356   7.125  17.584  0.00  0.00    +0.000 A 
ATOM      5  C   UNL     1       3.498   8.208  17.377  0.00  0.00    +0.000 A 
ATOM      6  C   UNL     1       2.213   8.159  17.874  0.00  0.00    +0.000 A 
ATOM      7  C   UNL     1       1.810   7.045  18.610  0.00  0.00    +0.000 A 
ATOM      8  C   UNL     1       2.649   5.929  18.862  0.00  0.00    +0.000 A 
BRANCH   8   9
ATOM      9  N   UNL     1       2.083   4.887  19.600  0.00  0.00    +0.000 N 
ATOM     10  C   UNL     1       1.870   4.903  21.041  0.00  0.00    +0.000 C 
ATOM     11  C   UNL     1       2.247   3.554  21.652  0.00  0.00    +0.000 C 
ATOM     12  C   UNL     1       1.528   2.402  20.957  0.00  0.00    +0.000 C 
ATOM     13  C   UNL     1       1.749   2.461  19.449  0.00  0.00    +0.000 C 
ATOM     14  C   UNL     1       1.352   3.826  18.883  0.00  0.00    +0.000 C 
ENDBRANCH   8   9
ENDBRANCH   1   3
BRANCH   1  15
ATOM     15  C   UNL     1       6.098   4.664  17.855  0.00  0.00    +0.000 C 
ATOM     16  S   UNL     1       7.615   4.737  18.560  0.00  0.00    +0.000 S 
BRANCH  15  19
ATOM     17  O   UNL     1       7.514   6.124  15.748  0.00  0.00    +0.000 OA
ATOM     18  C   UNL     1       6.848   5.126  15.496  0.00  0.00    +0.000 C 
ATOM     19  N   UNL     1       6.137   4.461  16.483  0.00  0.00    +0.000 N 
ATOM     20  H   UNL     1       5.554   3.695  16.175  0.00  0.00    +0.000 HD
BRANCH  18  21
ATOM     21  C   UNL     1       6.729   4.601  14.145  0.00  0.00    +0.000 A 
ATOM     22  C   UNL     1       5.758   3.719  13.706  0.00  0.00    +0.000 A 
ATOM     23  C   UNL     1       5.947   3.325  12.354  0.00  0.00    +0.000 A 
ATOM     24  C   UNL     1       7.037   3.946  11.787  0.00  0.00    +0.000 A 
ATOM     25  S   UNL     1       7.814   5.004  12.885  0.00  0.00    +0.000 S 
ENDBRANCH  18  21
ENDBRANCH  15  19
ENDBRANCH   1  15
TORSDOF 5
ENDMDL
MODEL 9
REMARK VINA RESULT:      -6.9      1.277      1.381
REMARK  Name = 
REMARK  5 active torsions:
REMARK  status: ('A' for Active; 'I' for Inactive)
REMARK    1  A    between atoms: C_2  and  C_19
REMARK    2  A    between atoms: N_3  and  C_4
REMARK    3  A    between atoms: C_4  and  N_6
REMARK    4  A    between atoms: N_6  and  C_7
REMARK    5  A    between atoms: C_12  and  N_13
REMARK                            x       y       z     vdW  Elec       q    Type
REMARK                         _______ _______ _______ _____ _____    ______ ____
ROOT
ATOM      1  N   UNL     1       2.065   5.778  18.405  0.00  0.00    +0.000 N 
ATOM      2  H   UNL     1       1.341   5.589  17.717  0.00  0.00    +0.000 HD
ENDROOT
BRANCH   1   3
ATOM      3  C   UNL     1       2.265   4.713  19.333  0.00  0.00    +0.000 A 
ATOM      4  C   UNL     1       1.268   4.401  20.277  0.00  0.00    +0.000 A 
ATOM      5  C   UNL     1       1.388   3.323  21.159  0.00  0.00    +0.000 A 
ATOM      6  C   UNL     1       2.525   2.544  21.126  0.00  0.00    +0.000 A 
ATOM      7  C   UNL     1       3.551   2.874  20.239  0.00  0.00    +0.000 A 
ATOM      8  C   UNL     1       3.483   3.967  19.337  0.00  0.00    +0.000 A 
BRANCH   8   9
ATOM      9  N   UNL     1       4.589   4.146  18.504  0.00  0.00    +0.000 N 
ATOM     10  C   UNL     1       5.908   4.581  18.947  0.00  0.00    +0.000 C 
ATOM     11  C   UNL     1       6.490   5.600  17.968  0.00  0.00    +0.000 C 
ATOM     12  C   UNL     1       6.487   5.071  16.538  0.00  0.00    +0.000 C 
ATOM     13  C   UNL     1       5.094   4.590  16.144  0.00  0.00    +0.000 C 
ATOM     14  C   UNL     1       4.556   3.568  17.148  0.00  0.00    +0.000 C 
ENDBRANCH   8   9
ENDBRANCH   1   3
BRANCH   1  15
ATOM     15  C   UNL     1       2.477   7.098  18.467  0.00  0.00    +0.000 C 
ATOM     16  S   UNL     1       3.611   7.936  17.563  0.00  0.00    +0.000 S 
BRANCH  15  19
ATOM     17  O   UNL     1       0.827   9.517  18.410  0.00  0.00    +0.000 OA
ATOM     18  C   UNL     1       1.113   8.964  19.465  0.00  0.00    +0.000 C 
ATOM     19  N   UNL     1       1.934   7.847  19.500  0.00  0.00    +0.000 N 
ATOM     20  H   UNL     1       2.179   7.501  20.417  0.00  0.00    +0.000 HD
BRANCH  18  21
ATOM     21  C   UNL     1       0.644   9.464  20.748  0.00  0.00    +0.000 A 
ATOM     22  C   UNL     1       0.824   8.842  21.971  0.00  0.00    +0.000 A 
ATOM     23  C   UNL     1       0.184   9.532  23.036  0.00  0.00    +0.000 A 
ATOM     24  C   UNL     1      -0.436  10.682  22.602  0.00  0.00    +0.000 A 
ATOM     25  S   UNL     1      -0.233  10.924  20.920  0.00  0.00    +0.000 S 
ENDBRANCH  18  21
ENDBRANCH  15  19
ENDBRANCH   1  15
TORSDOF 5
ENDMDL
