MODEL 1
REMARK VINA RESULT:      -8.2      0.000      0.000
REMARK  Name = 
REMARK  2 active torsions:
REMARK  status: ('A' for Active; 'I' for Inactive)
REMARK    1  A    between atoms: C_8  and  C_9
REMARK    2  A    between atoms: N_17  and  C_18
REMARK                            x       y       z     vdW  Elec       q    Type
REMARK                         _______ _______ _______ _____ _____    ______ ____
ROOT
ATOM      1  C   UNL     1      -1.100  11.475  20.400  0.00  0.00    +0.000 A 
ATOM      2  C   UNL     1       0.255  11.102  20.476  0.00  0.00    +0.000 A 
ATOM      3  C   UNL     1       0.882  10.451  19.418  0.00  0.00    +0.000 A 
ATOM      4  C   UNL     1       0.162  10.165  18.265  0.00  0.00    +0.000 A 
ATOM      5  C   UNL     1      -1.190  10.526  18.166  0.00  0.00    +0.000 A 
ATOM      6  C   UNL     1      -1.917  10.253  17.000  0.00  0.00    +0.000 A 
ATOM      7  C   UNL     1      -3.258  10.610  16.914  0.00  0.00    +0.000 A 
ATOM      8  C   UNL     1      -3.864  11.198  18.013  0.00  0.00    +0.000 A 
ATOM      9  N   UNL     1      -5.230  11.553  17.958  0.00  0.00    +0.000 N 
ATOM     10  N   UNL     1      -3.157  11.506  19.121  0.00  0.00    +0.000 NA
ATOM     11  C   UNL     1      -1.845  11.179  19.232  0.00  0.00    +0.000 A 
ATOM     12  H   UNL     1      -5.716  11.044  17.228  0.00  0.00    +0.000 HD
ENDROOT
BRANCH   1  20
ATOM     13  O   UNL     1      -4.801  12.256  24.648  0.00  0.00    +0.000 OA
ATOM     14  C   UNL     1      -3.857  13.012  24.458  0.00  0.00    +0.000 C 
ATOM     15  N   UNL     1      -3.582  14.057  25.325  0.00  0.00    +0.000 N 
ATOM     16  C   UNL     1      -2.751  15.197  24.944  0.00  0.00    +0.000 C 
ATOM     17  C   UNL     1      -1.494  14.830  24.127  0.00  0.00    +0.000 C 
ATOM     18  C   UNL     1      -1.833  13.714  23.208  0.00  0.00    +0.000 A 
ATOM     19  N   UNL     1      -1.098  13.286  22.143  0.00  0.00    +0.000 N 
ATOM     20  C   UNL     1      -1.703  12.188  21.553  0.00  0.00    +0.000 A 
ATOM     21  C   UNL     1      -2.858  11.945  22.289  0.00  0.00    +0.000 A 
ATOM     22  C   UNL     1      -2.921  12.881  23.353  0.00  0.00    +0.000 A 
ATOM     23  H   UNL     1      -4.289  14.174  26.037  0.00  0.00    +0.000 HD
ATOM     24  H   UNL     1      -0.205  13.652  21.823  0.00  0.00    +0.000 HD
ENDBRANCH   1  20
BRANCH   9  25
ATOM     25  C   UNL     1      -6.059  11.618  19.112  0.00  0.00    +0.000 A 
ATOM     26  C   UNL     1      -6.264  12.844  19.758  0.00  0.00    +0.000 A 
ATOM     27  F   UNL     1      -5.665  13.952  19.296  0.00  0.00    +0.000 F 
ATOM     28  C   UNL     1      -7.075  12.950  20.890  0.00  0.00    +0.000 A 
ATOM     29  C   UNL     1      -7.729  11.824  21.388  0.00  0.00    +0.000 A 
ATOM     30  C   UNL     1      -7.595  10.607  20.727  0.00  0.00    +0.000 A 
ATOM     31  C   UNL     1      -6.791  10.519  19.591  0.00  0.00    +0.000 A 
ATOM     32  F   UNL     1      -6.757   9.341  18.950  0.00  0.00    +0.000 F 
ENDBRANCH   9  25
TORSDOF 2
ENDMDL
MODEL 2
REMARK VINA RESULT:      -8.2      1.252      1.499
REMARK  Name = 
REMARK  2 active torsions:
REMARK  status: ('A' for Active; 'I' for Inactive)
REMARK    1  A    between atoms: C_8  and  C_9
REMARK    2  A    between atoms: N_17  and  C_18
REMARK                            x       y       z     vdW  Elec       q    Type
REMARK                         _______ _______ _______ _____ _____    ______ ____
ROOT
ATOM      1  C   UNL     1      -1.196  11.429  19.968  0.00  0.00    +0.000 A 
ATOM      2  C   UNL     1       0.139  10.989  20.047  0.00  0.00    +0.000 A 
ATOM      3  C   UNL     1       0.702  10.216  19.037  0.00  0.00    +0.000 A 
ATOM      4  C   UNL     1      -0.062   9.872  17.929  0.00  0.00    +0.000 A 
ATOM      5  C   UNL     1      -1.395  10.298  17.828  0.00  0.00    +0.000 A 
ATOM      6  C   UNL     1      -2.166   9.967  16.707  0.00  0.00    +0.000 A 
ATOM      7  C   UNL     1      -3.488  10.389  16.619  0.00  0.00    +0.000 A 
ATOM      8  C   UNL     1      -4.032  11.102  17.674  0.00  0.00    +0.000 A 
ATOM      9  N   UNL     1      -5.378  11.528  17.618  0.00  0.00    +0.000 N 
ATOM     10  N   UNL     1      -3.281  11.466  18.736  0.00  0.00    +0.000 NA
ATOM     11  C   UNL     1      -1.986  11.076  18.847  0.00  0.00    +0.000 A 
ATOM     12  H   UNL     1      -5.909  10.985  16.946  0.00  0.00    +0.000 HD
ENDROOT
BRANCH   1  20
ATOM     13  O   UNL     1      -0.871  14.770  24.561  0.00  0.00    +0.000 OA
ATOM     14  C   UNL     1      -1.932  14.539  23.995  0.00  0.00    +0.000 C 
ATOM     15  N   UNL     1      -3.110  15.152  24.390  0.00  0.00    +0.000 N 
ATOM     16  C   UNL     1      -4.426  14.628  24.037  0.00  0.00    +0.000 C 
ATOM     17  C   UNL     1      -4.546  14.118  22.585  0.00  0.00    +0.000 C 
ATOM     18  C   UNL     1      -3.270  13.463  22.204  0.00  0.00    +0.000 A 
ATOM     19  N   UNL     1      -3.059  12.654  21.128  0.00  0.00    +0.000 N 
ATOM     20  C   UNL     1      -1.729  12.271  21.067  0.00  0.00    +0.000 A 
ATOM     21  C   UNL     1      -1.108  12.868  22.160  0.00  0.00    +0.000 A 
ATOM     22  C   UNL     1      -2.068  13.648  22.854  0.00  0.00    +0.000 A 
ATOM     23  H   UNL     1      -3.004  15.704  25.230  0.00  0.00    +0.000 HD
ATOM     24  H   UNL     1      -3.735  12.388  20.416  0.00  0.00    +0.000 HD
ENDBRANCH   1  20
BRANCH   9  25
ATOM     25  C   UNL     1      -6.172  11.739  18.780  0.00  0.00    +0.000 A 
ATOM     26  C   UNL     1      -6.501  13.041  19.175  0.00  0.00    +0.000 A 
ATOM     27  F   UNL     1      -6.054  14.088  18.466  0.00  0.00    +0.000 F 
ATOM     28  C   UNL     1      -7.283  13.289  20.306  0.00  0.00    +0.000 A 
ATOM     29  C   UNL     1      -7.781  12.226  21.056  0.00  0.00    +0.000 A 
ATOM     30  C   UNL     1      -7.524  10.920  20.648  0.00  0.00    +0.000 A 
ATOM     31  C   UNL     1      -6.752  10.688  19.511  0.00  0.00    +0.000 A 
ATOM     32  F   UNL     1      -6.598   9.414  19.120  0.00  0.00    +0.000 F 
ENDBRANCH   9  25
TORSDOF 2
ENDMDL
MODEL 3
REMARK VINA RESULT:      -8.2      0.282      1.547
REMARK  Name = 
REMARK  2 active torsions:
REMARK  status: ('A' for Active; 'I' for Inactive)
REMARK    1  A    between atoms: C_8  and  C_9
REMARK    2  A    between atoms: N_17  and  C_18
REMARK                            x       y       z     vdW  Elec       q    Type
REMARK                         _______ _______ _______ _____ _____    ______ ____
ROOT
ATOM      1  C   UNL     1      -1.096  11.539  20.499  0.00  0.00    +0.000 A 
ATOM      2  C   UNL     1       0.238  11.098  20.584  0.00  0.00    +0.000 A 
ATOM      3  C   UNL     1       0.838  10.414  19.532  0.00  0.00    +0.000 A 
ATOM      4  C   UNL     1       0.112  10.163  18.375  0.00  0.00    +0.000 A 
ATOM      5  C   UNL     1      -1.219  10.593  18.266  0.00  0.00    +0.000 A 
ATOM      6  C   UNL     1      -1.951  10.355  17.096  0.00  0.00    +0.000 A 
ATOM      7  C   UNL     1      -3.272  10.780  17.000  0.00  0.00    +0.000 A 
ATOM      8  C   UNL     1      -3.854  11.400  18.093  0.00  0.00    +0.000 A 
ATOM      9  N   UNL     1      -5.199  11.825  18.029  0.00  0.00    +0.000 N 
ATOM     10  N   UNL     1      -3.140  11.674  19.206  0.00  0.00    +0.000 NA
ATOM     11  C   UNL     1      -1.847  11.280  19.327  0.00  0.00    +0.000 A 
ATOM     12  H   UNL     1      -5.706  11.340  17.296  0.00  0.00    +0.000 HD
ENDROOT
BRANCH   1  20
ATOM     13  O   UNL     1      -4.898  12.635  24.586  0.00  0.00    +0.000 OA
ATOM     14  C   UNL     1      -3.861  13.275  24.471  0.00  0.00    +0.000 C 
ATOM     15  N   UNL     1      -3.508  14.251  25.389  0.00  0.00    +0.000 N 
ATOM     16  C   UNL     1      -2.527  15.291  25.093  0.00  0.00    +0.000 C 
ATOM     17  C   UNL     1      -1.281  14.799  24.326  0.00  0.00    +0.000 C 
ATOM     18  C   UNL     1      -1.702  13.762  23.350  0.00  0.00    +0.000 A 
ATOM     19  N   UNL     1      -0.969  13.281  22.307  0.00  0.00    +0.000 N 
ATOM     20  C   UNL     1      -1.669  12.284  21.647  0.00  0.00    +0.000 A 
ATOM     21  C   UNL     1      -2.883  12.162  22.315  0.00  0.00    +0.000 A 
ATOM     22  C   UNL     1      -2.889  13.064  23.409  0.00  0.00    +0.000 A 
ATOM     23  H   UNL     1      -4.233  14.431  26.069  0.00  0.00    +0.000 HD
ATOM     24  H   UNL     1      -0.022  13.544  22.046  0.00  0.00    +0.000 HD
ENDBRANCH   1  20
BRANCH   9  25
ATOM     25  C   UNL     1      -6.032  11.934  19.178  0.00  0.00    +0.000 A 
ATOM     26  C   UNL     1      -6.828  10.851  19.570  0.00  0.00    +0.000 A 
ATOM     27  F   UNL     1      -6.814   9.717  18.854  0.00  0.00    +0.000 F 
ATOM     28  C   UNL     1      -7.655  10.917  20.694  0.00  0.00    +0.000 A 
ATOM     29  C   UNL     1      -7.681  12.073  21.474  0.00  0.00    +0.000 A 
ATOM     30  C   UNL     1      -6.852  13.140  21.143  0.00  0.00    +0.000 A 
ATOM     31  C   UNL     1      -6.023  13.055  20.025  0.00  0.00    +0.000 A 
ATOM     32  F   UNL     1      -5.189  14.081  19.796  0.00  0.00    +0.000 F 
ENDBRANCH   9  25
TORSDOF 2
ENDMDL
MODEL 4
REMARK VINA RESULT:      -8.2      1.262      2.137
REMARK  Name = 
REMARK  2 active torsions:
REMARK  status: ('A' for Active; 'I' for Inactive)
REMARK    1  A    between atoms: C_8  and  C_9
REMARK    2  A    between atoms: N_17  and  C_18
REMARK                            x       y       z     vdW  Elec       q    Type
REMARK                         _______ _______ _______ _____ _____    ______ ____
ROOT
ATOM      1  C   UNL     1      -1.255  11.485  19.912  0.00  0.00    +0.000 A 
ATOM      2  C   UNL     1       0.084  11.055  19.973  0.00  0.00    +0.000 A 
ATOM      3  C   UNL     1       0.637  10.278  18.961  0.00  0.00    +0.000 A 
ATOM      4  C   UNL     1      -0.142   9.920  17.868  0.00  0.00    +0.000 A 
ATOM      5  C   UNL     1      -1.479  10.335  17.784  0.00  0.00    +0.000 A 
ATOM      6  C   UNL     1      -2.265   9.989  16.678  0.00  0.00    +0.000 A 
ATOM      7  C   UNL     1      -3.591  10.401  16.607  0.00  0.00    +0.000 A 
ATOM      8  C   UNL     1      -4.124  11.119  17.665  0.00  0.00    +0.000 A 
ATOM      9  N   UNL     1      -5.473  11.534  17.626  0.00  0.00    +0.000 N 
ATOM     10  N   UNL     1      -3.359  11.496  18.712  0.00  0.00    +0.000 NA
ATOM     11  C   UNL     1      -2.060  11.117  18.806  0.00  0.00    +0.000 A 
ATOM     12  H   UNL     1      -6.011  10.982  16.967  0.00  0.00    +0.000 HD
ENDROOT
BRANCH   1  20
ATOM     13  O   UNL     1      -0.895  14.745  24.560  0.00  0.00    +0.000 OA
ATOM     14  C   UNL     1      -1.953  14.564  23.969  0.00  0.00    +0.000 C 
ATOM     15  N   UNL     1      -3.113  15.219  24.349  0.00  0.00    +0.000 N 
ATOM     16  C   UNL     1      -4.442  14.752  23.961  0.00  0.00    +0.000 C 
ATOM     17  C   UNL     1      -4.551  14.268  22.499  0.00  0.00    +0.000 C 
ATOM     18  C   UNL     1      -3.293  13.568  22.135  0.00  0.00    +0.000 A 
ATOM     19  N   UNL     1      -3.093  12.767  21.051  0.00  0.00    +0.000 N 
ATOM     20  C   UNL     1      -1.778  12.332  21.012  0.00  0.00    +0.000 A 
ATOM     21  C   UNL     1      -1.157  12.888  22.126  0.00  0.00    +0.000 A 
ATOM     22  C   UNL     1      -2.099  13.696  22.812  0.00  0.00    +0.000 A 
ATOM     23  H   UNL     1      -3.003  15.753  25.199  0.00  0.00    +0.000 HD
ATOM     24  H   UNL     1      -3.763  12.538  20.322  0.00  0.00    +0.000 HD
ENDBRANCH   1  20
BRANCH   9  25
ATOM     25  C   UNL     1      -6.251  11.748  18.798  0.00  0.00    +0.000 A 
ATOM     26  C   UNL     1      -6.774  10.656  19.500  0.00  0.00    +0.000 A 
ATOM     27  F   UNL     1      -6.552   9.408  19.058  0.00  0.00    +0.000 F 
ATOM     28  C   UNL     1      -7.538  10.824  20.658  0.00  0.00    +0.000 A 
ATOM     29  C   UNL     1      -7.773  12.103  21.158  0.00  0.00    +0.000 A 
ATOM     30  C   UNL     1      -7.211  13.203  20.517  0.00  0.00    +0.000 A 
ATOM     31  C   UNL     1      -6.441  13.018  19.369  0.00  0.00    +0.000 A 
ATOM     32  F   UNL     1      -5.860  14.103  18.835  0.00  0.00    +0.000 F 
ENDBRANCH   9  25
TORSDOF 2
ENDMDL
MODEL 5
REMARK VINA RESULT:      -8.1      1.761      1.866
REMARK  Name = 
REMARK  2 active torsions:
REMARK  status: ('A' for Active; 'I' for Inactive)
REMARK    1  A    between atoms: C_8  and  C_9
REMARK    2  A    between atoms: N_17  and  C_18
REMARK                            x       y       z     vdW  Elec       q    Type
REMARK                         _______ _______ _______ _____ _____    ______ ____
ROOT
ATOM      1  C   UNL     1      -1.320  11.663  19.564  0.00  0.00    +0.000 A 
ATOM      2  C   UNL     1      -0.047  11.164  19.902  0.00  0.00    +0.000 A 
ATOM      3  C   UNL     1       0.570  10.186  19.130  0.00  0.00    +0.000 A 
ATOM      4  C   UNL     1      -0.075   9.692  18.004  0.00  0.00    +0.000 A 
ATOM      5  C   UNL     1      -1.344  10.173  17.646  0.00  0.00    +0.000 A 
ATOM      6  C   UNL     1      -1.993   9.689  16.504  0.00  0.00    +0.000 A 
ATOM      7  C   UNL     1      -3.253  10.167  16.161  0.00  0.00    +0.000 A 
ATOM      8  C   UNL     1      -3.863  11.094  16.991  0.00  0.00    +0.000 A 
ATOM      9  N   UNL     1      -5.150  11.583  16.676  0.00  0.00    +0.000 N 
ATOM     10  N   UNL     1      -3.223  11.599  18.067  0.00  0.00    +0.000 NA
ATOM     11  C   UNL     1      -1.990  11.158  18.423  0.00  0.00    +0.000 A 
ATOM     12  H   UNL     1      -5.637  10.960  16.041  0.00  0.00    +0.000 HD
ENDROOT
BRANCH   1  20
ATOM     13  O   UNL     1      -3.295  13.930  24.393  0.00  0.00    +0.000 OA
ATOM     14  C   UNL     1      -3.197  14.579  23.359  0.00  0.00    +0.000 C 
ATOM     15  N   UNL     1      -3.481  15.935  23.327  0.00  0.00    +0.000 N 
ATOM     16  C   UNL     1      -3.770  16.649  22.086  0.00  0.00    +0.000 C 
ATOM     17  C   UNL     1      -2.867  16.260  20.896  0.00  0.00    +0.000 C 
ATOM     18  C   UNL     1      -2.594  14.802  20.963  0.00  0.00    +0.000 A 
ATOM     19  N   UNL     1      -2.077  14.025  19.970  0.00  0.00    +0.000 N 
ATOM     20  C   UNL     1      -1.913  12.723  20.415  0.00  0.00    +0.000 A 
ATOM     21  C   UNL     1      -2.358  12.710  21.733  0.00  0.00    +0.000 A 
ATOM     22  C   UNL     1      -2.751  14.025  22.090  0.00  0.00    +0.000 A 
ATOM     23  H   UNL     1      -3.862  16.277  24.198  0.00  0.00    +0.000 HD
ATOM     24  H   UNL     1      -1.787  14.323  19.042  0.00  0.00    +0.000 HD
ENDBRANCH   1  20
BRANCH   9  25
ATOM     25  C   UNL     1      -6.063  12.051  17.661  0.00  0.00    +0.000 A 
ATOM     26  C   UNL     1      -6.618  13.331  17.549  0.00  0.00    +0.000 A 
ATOM     27  F   UNL     1      -6.276  14.120  16.519  0.00  0.00    +0.000 F 
ATOM     28  C   UNL     1      -7.522  13.825  18.492  0.00  0.00    +0.000 A 
ATOM     29  C   UNL     1      -7.916  13.027  19.565  0.00  0.00    +0.000 A 
ATOM     30  C   UNL     1      -7.430  11.727  19.665  0.00  0.00    +0.000 A 
ATOM     31  C   UNL     1      -6.537  11.244  18.709  0.00  0.00    +0.000 A 
ATOM     32  F   UNL     1      -6.160   9.960  18.811  0.00  0.00    +0.000 F 
ENDBRANCH   9  25
TORSDOF 2
ENDMDL
MODEL 6
REMARK VINA RESULT:      -8.1      2.536      5.000
REMARK  Name = 
REMARK  2 active torsions:
REMARK  status: ('A' for Active; 'I' for Inactive)
REMARK    1  A    between atoms: C_8  and  C_9
REMARK    2  A    between atoms: N_17  and  C_18
REMARK                            x       y       z     vdW  Elec       q    Type
REMARK                         _______ _______ _______ _____ _____    ______ ____
ROOT
ATOM      1  C   UNL     1      -3.774  11.551  18.296  0.00  0.00    +0.000 A 
ATOM      2  C   UNL     1      -4.389  11.265  17.063  0.00  0.00    +0.000 A 
ATOM      3  C   UNL     1      -3.719  10.556  16.072  0.00  0.00    +0.000 A 
ATOM      4  C   UNL     1      -2.421  10.118  16.300  0.00  0.00    +0.000 A 
ATOM      5  C   UNL     1      -1.785  10.391  17.521  0.00  0.00    +0.000 A 
ATOM      6  C   UNL     1      -0.482   9.940  17.763  0.00  0.00    +0.000 A 
ATOM      7  C   UNL     1       0.141  10.221  18.974  0.00  0.00    +0.000 A 
ATOM      8  C   UNL     1      -0.535  10.985  19.911  0.00  0.00    +0.000 A 
ATOM      9  N   UNL     1       0.082  11.300  21.142  0.00  0.00    +0.000 N 
ATOM     10  N   UNL     1      -1.809  11.383  19.703  0.00  0.00    +0.000 NA
ATOM     11  C   UNL     1      -2.446  11.117  18.535  0.00  0.00    +0.000 A 
ATOM     12  H   UNL     1       1.090  11.206  21.085  0.00  0.00    +0.000 HD
ENDROOT
BRANCH   1  20
ATOM     13  O   UNL     1      -7.913  12.284  22.129  0.00  0.00    +0.000 OA
ATOM     14  C   UNL     1      -7.038  13.122  21.944  0.00  0.00    +0.000 C 
ATOM     15  N   UNL     1      -6.955  14.264  22.724  0.00  0.00    +0.000 N 
ATOM     16  C   UNL     1      -6.216  15.451  22.303  0.00  0.00    +0.000 C 
ATOM     17  C   UNL     1      -4.857  15.157  21.632  0.00  0.00    +0.000 C 
ATOM     18  C   UNL     1      -4.992  13.933  20.802  0.00  0.00    +0.000 A 
ATOM     19  N   UNL     1      -4.121  13.498  19.848  0.00  0.00    +0.000 N 
ATOM     20  C   UNL     1      -4.551  12.291  19.321  0.00  0.00    +0.000 A 
ATOM     21  C   UNL     1      -5.738  11.986  19.979  0.00  0.00    +0.000 A 
ATOM     22  C   UNL     1      -5.996  12.999  20.937  0.00  0.00    +0.000 A 
ATOM     23  H   UNL     1      -7.733  14.363  23.361  0.00  0.00    +0.000 HD
ATOM     24  H   UNL     1      -3.245  13.932  19.569  0.00  0.00    +0.000 HD
ENDBRANCH   1  20
BRANCH   9  25
ATOM     25  C   UNL     1      -0.236  12.468  21.890  0.00  0.00    +0.000 A 
ATOM     26  C   UNL     1       0.358  13.692  21.562  0.00  0.00    +0.000 A 
ATOM     27  F   UNL     1       1.238  13.759  20.551  0.00  0.00    +0.000 F 
ATOM     28  C   UNL     1       0.069  14.862  22.269  0.00  0.00    +0.000 A 
ATOM     29  C   UNL     1      -0.854  14.835  23.314  0.00  0.00    +0.000 A 
ATOM     30  C   UNL     1      -1.508  13.645  23.618  0.00  0.00    +0.000 A 
ATOM     31  C   UNL     1      -1.217  12.488  22.896  0.00  0.00    +0.000 A 
ATOM     32  F   UNL     1      -1.931  11.388  23.180  0.00  0.00    +0.000 F 
ENDBRANCH   9  25
TORSDOF 2
ENDMDL
MODEL 7
REMARK VINA RESULT:      -8.0      2.564      5.178
REMARK  Name = 
REMARK  2 active torsions:
REMARK  status: ('A' for Active; 'I' for Inactive)
REMARK    1  A    between atoms: C_8  and  C_9
REMARK    2  A    between atoms: N_17  and  C_18
REMARK                            x       y       z     vdW  Elec       q    Type
REMARK                         _______ _______ _______ _____ _____    ______ ____
ROOT
ATOM      1  C   UNL     1      -3.788  11.526  18.267  0.00  0.00    +0.000 A 
ATOM      2  C   UNL     1      -4.404  11.212  17.041  0.00  0.00    +0.000 A 
ATOM      3  C   UNL     1      -3.729  10.489  16.063  0.00  0.00    +0.000 A 
ATOM      4  C   UNL     1      -2.428  10.066  16.297  0.00  0.00    +0.000 A 
ATOM      5  C   UNL     1      -1.793  10.367  17.511  0.00  0.00    +0.000 A 
ATOM      6  C   UNL     1      -0.485   9.931  17.759  0.00  0.00    +0.000 A 
ATOM      7  C   UNL     1       0.138  10.239  18.964  0.00  0.00    +0.000 A 
ATOM      8  C   UNL     1      -0.543  11.016  19.887  0.00  0.00    +0.000 A 
ATOM      9  N   UNL     1       0.073  11.360  21.110  0.00  0.00    +0.000 N 
ATOM     10  N   UNL     1      -1.820  11.400  19.674  0.00  0.00    +0.000 NA
ATOM     11  C   UNL     1      -2.458  11.107  18.512  0.00  0.00    +0.000 A 
ATOM     12  H   UNL     1       1.082  11.272  21.054  0.00  0.00    +0.000 HD
ENDROOT
BRANCH   1  20
ATOM     13  O   UNL     1      -7.914  12.295  22.108  0.00  0.00    +0.000 OA
ATOM     14  C   UNL     1      -7.053  13.140  21.897  0.00  0.00    +0.000 C 
ATOM     15  N   UNL     1      -6.980  14.301  22.649  0.00  0.00    +0.000 N 
ATOM     16  C   UNL     1      -6.260  15.487  22.195  0.00  0.00    +0.000 C 
ATOM     17  C   UNL     1      -4.901  15.196  21.523  0.00  0.00    +0.000 C 
ATOM     18  C   UNL     1      -5.024  13.951  20.724  0.00  0.00    +0.000 A 
ATOM     19  N   UNL     1      -4.153  13.505  19.774  0.00  0.00    +0.000 N 
ATOM     20  C   UNL     1      -4.570  12.280  19.279  0.00  0.00    +0.000 A 
ATOM     21  C   UNL     1      -5.749  11.975  19.952  0.00  0.00    +0.000 A 
ATOM     22  C   UNL     1      -6.014  13.007  20.887  0.00  0.00    +0.000 A 
ATOM     23  H   UNL     1      -7.756  14.404  23.288  0.00  0.00    +0.000 HD
ATOM     24  H   UNL     1      -3.285  13.944  19.479  0.00  0.00    +0.000 HD
ENDBRANCH   1  20
BRANCH   9  25
ATOM     25  C   UNL     1      -0.252  12.539  21.837  0.00  0.00    +0.000 A 
ATOM     26  C   UNL     1      -1.167  12.479  22.895  0.00  0.00    +0.000 A 
ATOM     27  F   UNL     1      -1.747  11.311  23.211  0.00  0.00    +0.000 F 
ATOM     28  C   UNL     1      -1.509  13.612  23.636  0.00  0.00    +0.000 A 
ATOM     29  C   UNL     1      -0.912  14.839  23.348  0.00  0.00    +0.000 A 
ATOM     30  C   UNL     1       0.049  14.914  22.345  0.00  0.00    +0.000 A 
ATOM     31  C   UNL     1       0.388  13.771  21.622  0.00  0.00    +0.000 A 
ATOM     32  F   UNL     1       1.374  13.883  20.719  0.00  0.00    +0.000 F 
ENDBRANCH   9  25
TORSDOF 2
ENDMDL
MODEL 8
REMARK VINA RESULT:      -7.9      2.544      5.006
REMARK  Name = 
REMARK  2 active torsions:
REMARK  status: ('A' for Active; 'I' for Inactive)
REMARK    1  A    between atoms: C_8  and  C_9
REMARK    2  A    between atoms: N_17  and  C_18
REMARK                            x       y       z     vdW  Elec       q    Type
REMARK                         _______ _______ _______ _____ _____    ______ ____
ROOT
ATOM      1  C   UNL     1      -4.548  12.171  19.162  0.00  0.00    +0.000 A 
ATOM      2  C   UNL     1      -5.378  11.910  18.055  0.00  0.00    +0.000 A 
ATOM      3  C   UNL     1      -4.866  11.350  16.889  0.00  0.00    +0.000 A 
ATOM      4  C   UNL     1      -3.514  11.041  16.813  0.00  0.00    +0.000 A 
ATOM      5  C   UNL     1      -2.667  11.292  17.902  0.00  0.00    +0.000 A 
ATOM      6  C   UNL     1      -1.306  10.968  17.837  0.00  0.00    +0.000 A 
ATOM      7  C   UNL     1      -0.474  11.227  18.920  0.00  0.00    +0.000 A 
ATOM      8  C   UNL     1      -1.008  11.844  20.039  0.00  0.00    +0.000 A 
ATOM      9  N   UNL     1      -0.181  12.135  21.147  0.00  0.00    +0.000 N 
ATOM     10  N   UNL     1      -2.328  12.115  20.128  0.00  0.00    +0.000 NA
ATOM     11  C   UNL     1      -3.167  11.867  19.090  0.00  0.00    +0.000 A 
ATOM     12  H   UNL     1       0.798  12.154  20.882  0.00  0.00    +0.000 HD
ENDROOT
BRANCH   1  20
ATOM     13  O   UNL     1      -7.906  12.200  23.754  0.00  0.00    +0.000 OA
ATOM     14  C   UNL     1      -7.143  13.123  23.497  0.00  0.00    +0.000 C 
ATOM     15  N   UNL     1      -6.987  14.193  24.362  0.00  0.00    +0.000 N 
ATOM     16  C   UNL     1      -6.425  15.472  23.937  0.00  0.00    +0.000 C 
ATOM     17  C   UNL     1      -5.206  15.358  22.998  0.00  0.00    +0.000 C 
ATOM     18  C   UNL     1      -5.416  14.206  22.085  0.00  0.00    +0.000 A 
ATOM     19  N   UNL     1      -4.719  13.934  20.945  0.00  0.00    +0.000 N 
ATOM     20  C   UNL     1      -5.161  12.746  20.384  0.00  0.00    +0.000 A 
ATOM     21  C   UNL     1      -6.174  12.283  21.217  0.00  0.00    +0.000 A 
ATOM     22  C   UNL     1      -6.309  13.180  22.307  0.00  0.00    +0.000 A 
ATOM     23  H   UNL     1      -7.631  14.167  25.140  0.00  0.00    +0.000 HD
ATOM     24  H   UNL     1      -3.946  14.465  20.554  0.00  0.00    +0.000 HD
ENDBRANCH   1  20
BRANCH   9  25
ATOM     25  C   UNL     1      -0.441  13.204  22.049  0.00  0.00    +0.000 A 
ATOM     26  C   UNL     1       0.115  14.467  21.814  0.00  0.00    +0.000 A 
ATOM     27  F   UNL     1       0.904  14.664  20.747  0.00  0.00    +0.000 F 
ATOM     28  C   UNL     1      -0.121  15.544  22.673  0.00  0.00    +0.000 A 
ATOM     29  C   UNL     1      -0.951  15.383  23.781  0.00  0.00    +0.000 A 
ATOM     30  C   UNL     1      -1.569  14.155  24.001  0.00  0.00    +0.000 A 
ATOM     31  C   UNL     1      -1.333  13.093  23.129  0.00  0.00    +0.000 A 
ATOM     32  F   UNL     1      -2.012  11.956  23.344  0.00  0.00    +0.000 F 
ENDBRANCH   9  25
TORSDOF 2
ENDMDL
MODEL 9
REMARK VINA RESULT:      -7.9      1.667      2.246
REMARK  Name = 
REMARK  2 active torsions:
REMARK  status: ('A' for Active; 'I' for Inactive)
REMARK    1  A    between atoms: C_8  and  C_9
REMARK    2  A    between atoms: N_17  and  C_18
REMARK                            x       y       z     vdW  Elec       q    Type
REMARK                         _______ _______ _______ _____ _____    ______ ____
ROOT
ATOM      1  C   UNL     1      -1.338  11.727  19.581  0.00  0.00    +0.000 A 
ATOM      2  C   UNL     1      -0.032  11.291  19.876  0.00  0.00    +0.000 A 
ATOM      3  C   UNL     1       0.606  10.344  19.083  0.00  0.00    +0.000 A 
ATOM      4  C   UNL     1      -0.052   9.817  17.979  0.00  0.00    +0.000 A 
ATOM      5  C   UNL     1      -1.354  10.235  17.664  0.00  0.00    +0.000 A 
ATOM      6  C   UNL     1      -2.018   9.719  16.544  0.00  0.00    +0.000 A 
ATOM      7  C   UNL     1      -3.310  10.135  16.244  0.00  0.00    +0.000 A 
ATOM      8  C   UNL     1      -3.936  11.032  17.095  0.00  0.00    +0.000 A 
ATOM      9  N   UNL     1      -5.255  11.457  16.824  0.00  0.00    +0.000 N 
ATOM     10  N   UNL     1      -3.285  11.569  18.149  0.00  0.00    +0.000 NA
ATOM     11  C   UNL     1      -2.021  11.189  18.462  0.00  0.00    +0.000 A 
ATOM     12  H   UNL     1      -5.733  10.810  16.205  0.00  0.00    +0.000 HD
ENDROOT
BRANCH   1  20
ATOM     13  O   UNL     1      -3.254  13.903  24.475  0.00  0.00    +0.000 OA
ATOM     14  C   UNL     1      -3.225  14.554  23.438  0.00  0.00    +0.000 C 
ATOM     15  N   UNL     1      -3.576  15.894  23.416  0.00  0.00    +0.000 N 
ATOM     16  C   UNL     1      -3.942  16.591  22.186  0.00  0.00    +0.000 C 
ATOM     17  C   UNL     1      -3.063  16.244  20.966  0.00  0.00    +0.000 C 
ATOM     18  C   UNL     1      -2.716  14.803  21.023  0.00  0.00    +0.000 A 
ATOM     19  N   UNL     1      -2.196  14.050  20.013  0.00  0.00    +0.000 N 
ATOM     20  C   UNL     1      -1.953  12.758  20.452  0.00  0.00    +0.000 A 
ATOM     21  C   UNL     1      -2.351  12.725  21.785  0.00  0.00    +0.000 A 
ATOM     22  C   UNL     1      -2.795  14.020  22.155  0.00  0.00    +0.000 A 
ATOM     23  H   UNL     1      -3.943  16.218  24.300  0.00  0.00    +0.000 HD
ATOM     24  H   UNL     1      -1.954  14.360  19.076  0.00  0.00    +0.000 HD
ENDBRANCH   1  20
BRANCH   9  25
ATOM     25  C   UNL     1      -6.156  11.881  17.840  0.00  0.00    +0.000 A 
ATOM     26  C   UNL     1      -6.520  10.999  18.865  0.00  0.00    +0.000 A 
ATOM     27  F   UNL     1      -6.030   9.751  18.878  0.00  0.00    +0.000 F 
ATOM     28  C   UNL     1      -7.398  11.379  19.883  0.00  0.00    +0.000 A 
ATOM     29  C   UNL     1      -7.912  12.674  19.913  0.00  0.00    +0.000 A 
ATOM     30  C   UNL     1      -7.516  13.591  18.943  0.00  0.00    +0.000 A 
ATOM     31  C   UNL     1      -6.630  13.200  17.940  0.00  0.00    +0.000 A 
ATOM     32  F   UNL     1      -6.223  14.143  17.076  0.00  0.00    +0.000 F 
ENDBRANCH   9  25
TORSDOF 2
ENDMDL
