MODEL 1
REMARK VINA RESULT:      -7.7      0.000      0.000
REMARK  Name = 
REMARK  4 active torsions:
REMARK  status: ('A' for Active; 'I' for Inactive)
REMARK    1  A    between atoms: O_1  and  C_2
REMARK    2  A    between atoms: C_2  and  C_3
REMARK    3  A    between atoms: C_7  and  N_8
REMARK    4  A    between atoms: N_13  and  O_14
REMARK                            x       y       z     vdW  Elec       q    Type
REMARK                         _______ _______ _______ _____ _____    ______ ____
ROOT
ATOM      1  N   UNL     1       4.416   4.641  18.217  0.00  0.00    +0.000 N 
ATOM      2  C   UNL     1       4.169   3.632  17.317  0.00  0.00    +0.000 A 
ATOM      3  N   UNL     1       5.007   3.657  16.303  0.00  0.00    +0.000 NA
ATOM      4  C   UNL     1       5.814   4.748  16.544  0.00  0.00    +0.000 A 
ATOM      5  C   UNL     1       6.898   5.290  15.838  0.00  0.00    +0.000 A 
ATOM      6  N   UNL     1       7.396   4.698  14.665  0.00  0.00    +0.000 N 
ATOM      7  N   UNL     1       7.479   6.425  16.319  0.00  0.00    +0.000 NA
ATOM      8  C   UNL     1       7.004   6.945  17.472  0.00  0.00    +0.000 A 
ATOM      9  N   UNL     1       5.994   6.496  18.245  0.00  0.00    +0.000 NA
ATOM     10  C   UNL     1       5.442   5.392  17.717  0.00  0.00    +0.000 A 
ATOM     11  H   UNL     1       6.744   4.009  14.284  0.00  0.00    +0.000 HD
ENDROOT
BRANCH   1  16
ATOM     12  C   UNL     1       1.886   3.658  20.202  0.00  0.00    +0.000 C 
ATOM     13  C   UNL     1       1.615   5.133  20.452  0.00  0.00    +0.000 C 
ATOM     14  C   UNL     1       2.566   5.779  19.474  0.00  0.00    +0.000 C 
ATOM     15  F   UNL     1       1.970   5.780  18.250  0.00  0.00    +0.000 F 
ATOM     16  C   UNL     1       3.766   4.835  19.492  0.00  0.00    +0.000 C 
ATOM     17  O   UNL     1       3.302   3.553  19.985  0.00  0.00    +0.000 OA
BRANCH  12  18
ATOM     18  C   UNL     1       1.459   2.751  21.350  0.00  0.00    +0.000 C 
BRANCH  18  19
ATOM     19  O   UNL     1       2.556   2.504  22.219  0.00  0.00    +0.000 OA
ATOM     20  H   UNL     1       2.786   3.353  22.636  0.00  0.00    +0.000 HD
ENDBRANCH  18  19
ENDBRANCH  12  18
ENDBRANCH   1  16
BRANCH   6  21
ATOM     21  O   UNL     1       8.019   5.506  13.714  0.00  0.00    +0.000 OA
ATOM     22  H   UNL     1       7.933   6.401  14.103  0.00  0.00    +0.000 HD
ENDBRANCH   6  21
TORSDOF 4
ENDMDL
MODEL 2
REMARK VINA RESULT:      -6.8      1.246      1.369
REMARK  Name = 
REMARK  4 active torsions:
REMARK  status: ('A' for Active; 'I' for Inactive)
REMARK    1  A    between atoms: O_1  and  C_2
REMARK    2  A    between atoms: C_2  and  C_3
REMARK    3  A    between atoms: C_7  and  N_8
REMARK    4  A    between atoms: N_13  and  O_14
REMARK                            x       y       z     vdW  Elec       q    Type
REMARK                         _______ _______ _______ _____ _____    ______ ____
ROOT
ATOM      1  N   UNL     1       4.438   5.716  18.364  0.00  0.00    +0.000 N 
ATOM      2  C   UNL     1       3.832   6.348  17.305  0.00  0.00    +0.000 A 
ATOM      3  N   UNL     1       4.569   6.303  16.215  0.00  0.00    +0.000 NA
ATOM      4  C   UNL     1       5.714   5.637  16.595  0.00  0.00    +0.000 A 
ATOM      5  C   UNL     1       6.866   5.268  15.886  0.00  0.00    +0.000 A 
ATOM      6  N   UNL     1       7.010   5.521  14.512  0.00  0.00    +0.000 N 
ATOM      7  N   UNL     1       7.867   4.639  16.563  0.00  0.00    +0.000 NA
ATOM      8  C   UNL     1       7.680   4.371  17.875  0.00  0.00    +0.000 A 
ATOM      9  N   UNL     1       6.610   4.652  18.647  0.00  0.00    +0.000 NA
ATOM     10  C   UNL     1       5.664   5.290  17.939  0.00  0.00    +0.000 A 
ATOM     11  H   UNL     1       6.316   6.193  14.177  0.00  0.00    +0.000 HD
ENDROOT
BRANCH   1  16
ATOM     12  C   UNL     1       2.101   4.011  20.080  0.00  0.00    +0.000 C 
ATOM     13  C   UNL     1       1.766   5.323  20.772  0.00  0.00    +0.000 C 
ATOM     14  C   UNL     1       2.614   6.296  19.988  0.00  0.00    +0.000 C 
ATOM     15  F   UNL     1       1.939   6.614  18.849  0.00  0.00    +0.000 F 
ATOM     16  C   UNL     1       3.862   5.478  19.668  0.00  0.00    +0.000 C 
ATOM     17  O   UNL     1       3.504   4.077  19.777  0.00  0.00    +0.000 OA
BRANCH  12  18
ATOM     18  C   UNL     1       1.801   2.777  20.923  0.00  0.00    +0.000 C 
BRANCH  18  19
ATOM     19  O   UNL     1       2.791   2.614  21.930  0.00  0.00    +0.000 OA
ATOM     20  H   UNL     1       2.653   1.736  22.326  0.00  0.00    +0.000 HD
ENDBRANCH  18  19
ENDBRANCH  12  18
ENDBRANCH   1  16
BRANCH   6  21
ATOM     21  O   UNL     1       8.291   5.692  13.988  0.00  0.00    +0.000 OA
ATOM     22  H   UNL     1       8.852   5.204  14.627  0.00  0.00    +0.000 HD
ENDBRANCH   6  21
TORSDOF 4
ENDMDL
MODEL 3
REMARK VINA RESULT:      -6.8      2.455      6.280
REMARK  Name = 
REMARK  4 active torsions:
REMARK  status: ('A' for Active; 'I' for Inactive)
REMARK    1  A    between atoms: O_1  and  C_2
REMARK    2  A    between atoms: C_2  and  C_3
REMARK    3  A    between atoms: C_7  and  N_8
REMARK    4  A    between atoms: N_13  and  O_14
REMARK                            x       y       z     vdW  Elec       q    Type
REMARK                         _______ _______ _______ _____ _____    ______ ____
ROOT
ATOM      1  N   UNL     1       4.242   4.065  17.621  0.00  0.00    +0.000 N 
ATOM      2  C   UNL     1       4.116   2.698  17.577  0.00  0.00    +0.000 A 
ATOM      3  N   UNL     1       3.347   2.239  18.541  0.00  0.00    +0.000 NA
ATOM      4  C   UNL     1       2.983   3.359  19.258  0.00  0.00    +0.000 A 
ATOM      5  C   UNL     1       2.169   3.528  20.388  0.00  0.00    +0.000 A 
ATOM      6  N   UNL     1       1.497   2.452  20.991  0.00  0.00    +0.000 N 
ATOM      7  N   UNL     1       2.030   4.783  20.901  0.00  0.00    +0.000 NA
ATOM      8  C   UNL     1       2.655   5.802  20.272  0.00  0.00    +0.000 A 
ATOM      9  N   UNL     1       3.433   5.761  19.171  0.00  0.00    +0.000 NA
ATOM     10  C   UNL     1       3.555   4.503  18.718  0.00  0.00    +0.000 A 
ATOM     11  H   UNL     1       1.861   1.553  20.671  0.00  0.00    +0.000 HD
ENDROOT
BRANCH   1  16
ATOM     12  C   UNL     1       6.316   4.099  14.975  0.00  0.00    +0.000 C 
ATOM     13  C   UNL     1       7.041   5.247  15.658  0.00  0.00    +0.000 C 
ATOM     14  C   UNL     1       6.351   5.277  17.001  0.00  0.00    +0.000 C 
ATOM     15  F   UNL     1       6.924   4.323  17.786  0.00  0.00    +0.000 F 
ATOM     16  C   UNL     1       4.913   4.900  16.652  0.00  0.00    +0.000 C 
ATOM     17  O   UNL     1       4.942   4.211  15.376  0.00  0.00    +0.000 OA
BRANCH  12  18
ATOM     18  C   UNL     1       6.426   4.120  13.455  0.00  0.00    +0.000 C 
BRANCH  18  19
ATOM     19  O   UNL     1       6.253   2.810  12.929  0.00  0.00    +0.000 OA
ATOM     20  H   UNL     1       5.843   2.274  13.630  0.00  0.00    +0.000 HD
ENDBRANCH  18  19
ENDBRANCH  12  18
ENDBRANCH   1  16
BRANCH   6  21
ATOM     21  O   UNL     1       1.209   2.517  22.355  0.00  0.00    +0.000 OA
ATOM     22  H   UNL     1       1.017   1.582  22.579  0.00  0.00    +0.000 HD
ENDBRANCH   6  21
TORSDOF 4
ENDMDL
MODEL 4
REMARK VINA RESULT:      -6.7      1.099      1.099
REMARK  Name = 
REMARK  4 active torsions:
REMARK  status: ('A' for Active; 'I' for Inactive)
REMARK    1  A    between atoms: O_1  and  C_2
REMARK    2  A    between atoms: C_2  and  C_3
REMARK    3  A    between atoms: C_7  and  N_8
REMARK    4  A    between atoms: N_13  and  O_14
REMARK                            x       y       z     vdW  Elec       q    Type
REMARK                         _______ _______ _______ _____ _____    ______ ____
ROOT
ATOM      1  N   UNL     1       4.288   4.266  18.248  0.00  0.00    +0.000 N 
ATOM      2  C   UNL     1       3.529   4.169  17.107  0.00  0.00    +0.000 A 
ATOM      3  N   UNL     1       4.262   4.245  16.017  0.00  0.00    +0.000 NA
ATOM      4  C   UNL     1       5.549   4.428  16.474  0.00  0.00    +0.000 A 
ATOM      5  C   UNL     1       6.774   4.568  15.805  0.00  0.00    +0.000 A 
ATOM      6  N   UNL     1       6.873   4.489  14.405  0.00  0.00    +0.000 N 
ATOM      7  N   UNL     1       7.895   4.782  16.548  0.00  0.00    +0.000 NA
ATOM      8  C   UNL     1       7.772   4.809  17.894  0.00  0.00    +0.000 A 
ATOM      9  N   UNL     1       6.659   4.659  18.641  0.00  0.00    +0.000 NA
ATOM     10  C   UNL     1       5.581   4.474  17.861  0.00  0.00    +0.000 A 
ATOM     11  H   UNL     1       5.957   4.565  13.957  0.00  0.00    +0.000 HD
ENDROOT
BRANCH   1  16
ATOM     12  C   UNL     1       1.626   3.613  20.196  0.00  0.00    +0.000 C 
ATOM     13  C   UNL     1       2.073   4.779  21.061  0.00  0.00    +0.000 C 
ATOM     14  C   UNL     1       3.198   5.350  20.232  0.00  0.00    +0.000 C 
ATOM     15  F   UNL     1       2.648   6.147  19.275  0.00  0.00    +0.000 F 
ATOM     16  C   UNL     1       3.824   4.106  19.607  0.00  0.00    +0.000 C 
ATOM     17  O   UNL     1       2.828   3.053  19.644  0.00  0.00    +0.000 OA
BRANCH  12  18
ATOM     18  C   UNL     1       0.847   2.545  20.956  0.00  0.00    +0.000 C 
BRANCH  18  19
ATOM     19  O   UNL     1       1.364   2.400  22.272  0.00  0.00    +0.000 OA
ATOM     20  H   UNL     1       2.097   1.761  22.221  0.00  0.00    +0.000 HD
ENDBRANCH  18  19
ENDBRANCH  12  18
ENDBRANCH   1  16
BRANCH   6  21
ATOM     21  O   UNL     1       7.900   5.180  13.762  0.00  0.00    +0.000 OA
ATOM     22  H   UNL     1       8.408   4.459  13.334  0.00  0.00    +0.000 HD
ENDBRANCH   6  21
TORSDOF 4
ENDMDL
MODEL 5
REMARK VINA RESULT:      -6.6      3.816      5.440
REMARK  Name = 
REMARK  4 active torsions:
REMARK  status: ('A' for Active; 'I' for Inactive)
REMARK    1  A    between atoms: O_1  and  C_2
REMARK    2  A    between atoms: C_2  and  C_3
REMARK    3  A    between atoms: C_7  and  N_8
REMARK    4  A    between atoms: N_13  and  O_14
REMARK                            x       y       z     vdW  Elec       q    Type
REMARK                         _______ _______ _______ _____ _____    ______ ____
ROOT
ATOM      1  N   UNL     1       2.550   6.345  19.490  0.00  0.00    +0.000 N 
ATOM      2  C   UNL     1       2.816   6.551  18.159  0.00  0.00    +0.000 A 
ATOM      3  N   UNL     1       2.450   7.751  17.761  0.00  0.00    +0.000 NA
ATOM      4  C   UNL     1       1.896   8.335  18.880  0.00  0.00    +0.000 A 
ATOM      5  C   UNL     1       1.337   9.603  19.100  0.00  0.00    +0.000 A 
ATOM      6  N   UNL     1       1.301  10.586  18.097  0.00  0.00    +0.000 N 
ATOM      7  N   UNL     1       0.824   9.877  20.331  0.00  0.00    +0.000 NA
ATOM      8  C   UNL     1       0.914   8.925  21.286  0.00  0.00    +0.000 A 
ATOM      9  N   UNL     1       1.451   7.690  21.196  0.00  0.00    +0.000 NA
ATOM     10  C   UNL     1       1.922   7.463  19.960  0.00  0.00    +0.000 A 
ATOM     11  H   UNL     1       1.492  10.191  17.174  0.00  0.00    +0.000 HD
ENDROOT
BRANCH   1  16
ATOM     12  C   UNL     1       2.983   3.010  19.460  0.00  0.00    +0.000 C 
ATOM     13  C   UNL     1       2.225   2.979  20.776  0.00  0.00    +0.000 C 
ATOM     14  C   UNL     1       1.765   4.413  20.888  0.00  0.00    +0.000 C 
ATOM     15  F   UNL     1       0.639   4.549  20.133  0.00  0.00    +0.000 F 
ATOM     16  C   UNL     1       2.926   5.190  20.274  0.00  0.00    +0.000 C 
ATOM     17  O   UNL     1       3.669   4.271  19.434  0.00  0.00    +0.000 OA
BRANCH  12  18
ATOM     18  C   UNL     1       3.977   1.865  19.295  0.00  0.00    +0.000 C 
BRANCH  18  19
ATOM     19  O   UNL     1       5.171   2.141  20.015  0.00  0.00    +0.000 OA
ATOM     20  H   UNL     1       4.939   2.145  20.960  0.00  0.00    +0.000 HD
ENDBRANCH  18  19
ENDBRANCH  12  18
ENDBRANCH   1  16
BRANCH   6  21
ATOM     21  O   UNL     1       0.285  11.542  18.127  0.00  0.00    +0.000 OA
ATOM     22  H   UNL     1       0.396  12.001  17.268  0.00  0.00    +0.000 HD
ENDBRANCH   6  21
TORSDOF 4
ENDMDL
MODEL 6
REMARK VINA RESULT:      -6.5      2.557      6.387
REMARK  Name = 
REMARK  4 active torsions:
REMARK  status: ('A' for Active; 'I' for Inactive)
REMARK    1  A    between atoms: O_1  and  C_2
REMARK    2  A    between atoms: C_2  and  C_3
REMARK    3  A    between atoms: C_7  and  N_8
REMARK    4  A    between atoms: N_13  and  O_14
REMARK                            x       y       z     vdW  Elec       q    Type
REMARK                         _______ _______ _______ _____ _____    ______ ____
ROOT
ATOM      1  N   UNL     1       5.068   4.646  17.647  0.00  0.00    +0.000 N 
ATOM      2  C   UNL     1       5.938   4.280  18.645  0.00  0.00    +0.000 A 
ATOM      3  N   UNL     1       5.317   3.721  19.662  0.00  0.00    +0.000 NA
ATOM      4  C   UNL     1       3.983   3.755  19.317  0.00  0.00    +0.000 A 
ATOM      5  C   UNL     1       2.829   3.305  19.976  0.00  0.00    +0.000 A 
ATOM      6  N   UNL     1       2.888   2.638  21.212  0.00  0.00    +0.000 N 
ATOM      7  N   UNL     1       1.621   3.523  19.385  0.00  0.00    +0.000 NA
ATOM      8  C   UNL     1       1.602   4.128  18.177  0.00  0.00    +0.000 A 
ATOM      9  N   UNL     1       2.643   4.574  17.443  0.00  0.00    +0.000 NA
ATOM     10  C   UNL     1       3.805   4.355  18.078  0.00  0.00    +0.000 A 
ATOM     11  H   UNL     1       3.802   2.745  21.655  0.00  0.00    +0.000 HD
ENDROOT
BRANCH   1  16
ATOM     12  C   UNL     1       6.039   3.874  14.521  0.00  0.00    +0.000 C 
ATOM     13  C   UNL     1       7.068   4.984  14.652  0.00  0.00    +0.000 C 
ATOM     14  C   UNL     1       6.916   5.360  16.106  0.00  0.00    +0.000 C 
ATOM     15  F   UNL     1       7.640   4.474  16.844  0.00  0.00    +0.000 F 
ATOM     16  C   UNL     1       5.421   5.176  16.350  0.00  0.00    +0.000 C 
ATOM     17  O   UNL     1       4.920   4.283  15.324  0.00  0.00    +0.000 OA
BRANCH  12  18
ATOM     18  C   UNL     1       5.592   3.613  13.087  0.00  0.00    +0.000 C 
BRANCH  18  19
ATOM     19  O   UNL     1       6.540   2.793  12.417  0.00  0.00    +0.000 OA
ATOM     20  H   UNL     1       7.415   3.010  12.784  0.00  0.00    +0.000 HD
ENDBRANCH  18  19
ENDBRANCH  12  18
ENDBRANCH   1  16
BRANCH   6  21
ATOM     21  O   UNL     1       1.800   2.730  22.080  0.00  0.00    +0.000 OA
ATOM     22  H   UNL     1       2.095   3.409  22.723  0.00  0.00    +0.000 HD
ENDBRANCH   6  21
TORSDOF 4
ENDMDL
MODEL 7
REMARK VINA RESULT:      -6.5      2.322      6.185
REMARK  Name = 
REMARK  4 active torsions:
REMARK  status: ('A' for Active; 'I' for Inactive)
REMARK    1  A    between atoms: O_1  and  C_2
REMARK    2  A    between atoms: C_2  and  C_3
REMARK    3  A    between atoms: C_7  and  N_8
REMARK    4  A    between atoms: N_13  and  O_14
REMARK                            x       y       z     vdW  Elec       q    Type
REMARK                         _______ _______ _______ _____ _____    ______ ____
ROOT
ATOM      1  N   UNL     1       3.912   5.801  18.383  0.00  0.00    +0.000 N 
ATOM      2  C   UNL     1       2.935   6.538  19.006  0.00  0.00    +0.000 A 
ATOM      3  N   UNL     1       2.368   5.876  19.992  0.00  0.00    +0.000 NA
ATOM      4  C   UNL     1       2.988   4.645  19.986  0.00  0.00    +0.000 A 
ATOM      5  C   UNL     1       2.833   3.511  20.796  0.00  0.00    +0.000 A 
ATOM      6  N   UNL     1       1.945   3.487  21.885  0.00  0.00    +0.000 N 
ATOM      7  N   UNL     1       3.578   2.406  20.511  0.00  0.00    +0.000 NA
ATOM      8  C   UNL     1       4.454   2.476  19.484  0.00  0.00    +0.000 A 
ATOM      9  N   UNL     1       4.706   3.516  18.662  0.00  0.00    +0.000 NA
ATOM     10  C   UNL     1       3.932   4.569  18.971  0.00  0.00    +0.000 A 
ATOM     11  H   UNL     1       1.286   4.267  21.852  0.00  0.00    +0.000 HD
ENDROOT
BRANCH   1  16
ATOM     12  C   UNL     1       6.363   4.912  16.260  0.00  0.00    +0.000 C 
ATOM     13  C   UNL     1       7.086   6.178  16.688  0.00  0.00    +0.000 C 
ATOM     14  C   UNL     1       6.203   6.656  17.816  0.00  0.00    +0.000 C 
ATOM     15  F   UNL     1       6.549   5.966  18.937  0.00  0.00    +0.000 F 
ATOM     16  C   UNL     1       4.806   6.260  17.345  0.00  0.00    +0.000 C 
ATOM     17  O   UNL     1       4.962   5.209  16.358  0.00  0.00    +0.000 OA
BRANCH  12  18
ATOM     18  C   UNL     1       6.708   4.455  14.846  0.00  0.00    +0.000 C 
BRANCH  18  19
ATOM     19  O   UNL     1       7.656   5.336  14.260  0.00  0.00    +0.000 OA
ATOM     20  H   UNL     1       7.512   5.310  13.298  0.00  0.00    +0.000 HD
ENDBRANCH  18  19
ENDBRANCH  12  18
ENDBRANCH   1  16
BRANCH   6  21
ATOM     21  O   UNL     1       1.390   2.268  22.276  0.00  0.00    +0.000 OA
ATOM     22  H   UNL     1       0.907   1.983  21.472  0.00  0.00    +0.000 HD
ENDBRANCH   6  21
TORSDOF 4
ENDMDL
MODEL 8
REMARK VINA RESULT:      -6.4      2.301      2.575
REMARK  Name = 
REMARK  4 active torsions:
REMARK  status: ('A' for Active; 'I' for Inactive)
REMARK    1  A    between atoms: O_1  and  C_2
REMARK    2  A    between atoms: C_2  and  C_3
REMARK    3  A    between atoms: C_7  and  N_8
REMARK    4  A    between atoms: N_13  and  O_14
REMARK                            x       y       z     vdW  Elec       q    Type
REMARK                         _______ _______ _______ _____ _____    ______ ____
ROOT
ATOM      1  N   UNL     1       4.134   5.222  18.900  0.00  0.00    +0.000 N 
ATOM      2  C   UNL     1       3.615   6.032  17.919  0.00  0.00    +0.000 A 
ATOM      3  N   UNL     1       4.538   6.787  17.361  0.00  0.00    +0.000 NA
ATOM      4  C   UNL     1       5.699   6.471  18.033  0.00  0.00    +0.000 A 
ATOM      5  C   UNL     1       7.019   6.927  17.895  0.00  0.00    +0.000 A 
ATOM      6  N   UNL     1       7.389   7.850  16.903  0.00  0.00    +0.000 N 
ATOM      7  N   UNL     1       7.961   6.445  18.753  0.00  0.00    +0.000 NA
ATOM      8  C   UNL     1       7.581   5.525  19.667  0.00  0.00    +0.000 A 
ATOM      9  N   UNL     1       6.356   4.997  19.871  0.00  0.00    +0.000 NA
ATOM     10  C   UNL     1       5.462   5.520  19.016  0.00  0.00    +0.000 A 
ATOM     11  H   UNL     1       6.574   8.306  16.489  0.00  0.00    +0.000 HD
ENDROOT
BRANCH   1  16
ATOM     12  C   UNL     1       1.219   3.579  19.229  0.00  0.00    +0.000 C 
ATOM     13  C   UNL     1       1.365   3.781  20.728  0.00  0.00    +0.000 C 
ATOM     14  C   UNL     1       2.568   4.691  20.789  0.00  0.00    +0.000 C 
ATOM     15  F   UNL     1       2.141   5.964  20.563  0.00  0.00    +0.000 F 
ATOM     16  C   UNL     1       3.428   4.194  19.630  0.00  0.00    +0.000 C 
ATOM     17  O   UNL     1       2.556   3.482  18.716  0.00  0.00    +0.000 OA
BRANCH  12  18
ATOM     18  C   UNL     1       0.417   2.339  18.851  0.00  0.00    +0.000 C 
BRANCH  18  19
ATOM     19  O   UNL     1       1.290   1.252  18.573  0.00  0.00    +0.000 OA
ATOM     20  H   UNL     1       1.899   1.175  19.328  0.00  0.00    +0.000 HD
ENDBRANCH  18  19
ENDBRANCH  12  18
ENDBRANCH   1  16
BRANCH   6  21
ATOM     21  O   UNL     1       8.476   8.692  17.139  0.00  0.00    +0.000 OA
ATOM     22  H   UNL     1       8.129   9.571  16.877  0.00  0.00    +0.000 HD
ENDBRANCH   6  21
TORSDOF 4
ENDMDL
MODEL 9
REMARK VINA RESULT:      -6.4      1.665      2.630
REMARK  Name = 
REMARK  4 active torsions:
REMARK  status: ('A' for Active; 'I' for Inactive)
REMARK    1  A    between atoms: O_1  and  C_2
REMARK    2  A    between atoms: C_2  and  C_3
REMARK    3  A    between atoms: C_7  and  N_8
REMARK    4  A    between atoms: N_13  and  O_14
REMARK                            x       y       z     vdW  Elec       q    Type
REMARK                         _______ _______ _______ _____ _____    ______ ____
ROOT
ATOM      1  N   UNL     1       6.271   5.512  17.976  0.00  0.00    +0.000 N 
ATOM      2  C   UNL     1       7.149   6.549  17.777  0.00  0.00    +0.000 A 
ATOM      3  N   UNL     1       7.577   6.604  16.533  0.00  0.00    +0.000 NA
ATOM      4  C   UNL     1       6.969   5.536  15.909  0.00  0.00    +0.000 A 
ATOM      5  C   UNL     1       7.015   5.069  14.587  0.00  0.00    +0.000 A 
ATOM      6  N   UNL     1       7.744   5.733  13.586  0.00  0.00    +0.000 N 
ATOM      7  N   UNL     1       6.322   3.938  14.277  0.00  0.00    +0.000 NA
ATOM      8  C   UNL     1       5.596   3.348  15.252  0.00  0.00    +0.000 A 
ATOM      9  N   UNL     1       5.456   3.722  16.541  0.00  0.00    +0.000 NA
ATOM     10  C   UNL     1       6.175   4.826  16.799  0.00  0.00    +0.000 A 
ATOM     11  H   UNL     1       8.398   6.411  13.982  0.00  0.00    +0.000 HD
ENDROOT
BRANCH   1  16
ATOM     12  C   UNL     1       4.151   3.380  19.482  0.00  0.00    +0.000 C 
ATOM     13  C   UNL     1       3.363   4.602  19.926  0.00  0.00    +0.000 C 
ATOM     14  C   UNL     1       4.074   5.702  19.176  0.00  0.00    +0.000 C 
ATOM     15  F   UNL     1       3.581   5.728  17.907  0.00  0.00    +0.000 F 
ATOM     16  C   UNL     1       5.527   5.235  19.183  0.00  0.00    +0.000 C 
ATOM     17  O   UNL     1       5.521   3.803  19.415  0.00  0.00    +0.000 OA
BRANCH  12  18
ATOM     18  C   UNL     1       4.012   2.185  20.419  0.00  0.00    +0.000 C 
BRANCH  18  19
ATOM     19  O   UNL     1       5.244   1.482  20.506  0.00  0.00    +0.000 OA
ATOM     20  H   UNL     1       5.816   1.984  21.113  0.00  0.00    +0.000 HD
ENDBRANCH  18  19
ENDBRANCH  12  18
ENDBRANCH   1  16
BRANCH   6  21
ATOM     21  O   UNL     1       8.245   4.993  12.514  0.00  0.00    +0.000 OA
ATOM     22  H   UNL     1       8.188   4.072  12.843  0.00  0.00    +0.000 HD
ENDBRANCH   6  21
TORSDOF 4
ENDMDL
