MODEL 1
REMARK VINA RESULT:      -7.9      0.000      0.000
REMARK  Name = 
REMARK  8 active torsions:
REMARK  status: ('A' for Active; 'I' for Inactive)
REMARK    1  A    between atoms: C_1  and  C_2
REMARK    2  A    between atoms: C_4  and  C_5
REMARK    3  A    between atoms: C_5  and  C_6
REMARK    4  A    between atoms: C_5  and  C_7
REMARK    5  A    between atoms: C_9  and  C_10
REMARK    6  A    between atoms: N_12  and  C_13
REMARK    7  A    between atoms: N_12  and  C_14
REMARK    8  A    between atoms: C_14  and  C_15
REMARK                            x       y       z     vdW  Elec       q    Type
REMARK                         _______ _______ _______ _____ _____    ______ ____
ROOT
ATOM      1  C   UNL     1       6.952   4.958  15.854  0.00  0.00    +0.000 C 
ATOM      2  O   UNL     1       7.799   4.386  16.549  0.00  0.00    +0.000 OA
ATOM      3  N   UNL     1       6.015   5.781  16.513  0.00  0.00    +0.000 N 
ATOM      4  C   UNL     1       5.037   6.621  15.849  0.00  0.00    +0.000 C 
ENDROOT
BRANCH   1  10
ATOM      5  C   UNL     1       8.880   5.870  13.133  0.00  0.00    +0.000 C 
ATOM      6  C   UNL     1       7.653   5.039  13.283  0.00  0.00    +0.000 A 
ATOM      7  N   UNL     1       7.214   4.469  12.091  0.00  0.00    +0.000 NA
ATOM      8  C   UNL     1       6.209   3.650  12.287  0.00  0.00    +0.000 A 
ATOM      9  S   UNL     1       5.670   3.565  13.909  0.00  0.00    +0.000 S 
ATOM     10  C   UNL     1       6.904   4.697  14.409  0.00  0.00    +0.000 A 
BRANCH   8  11
ATOM     11  C   UNL     1       5.553   2.839  11.202  0.00  0.00    +0.000 C 
ATOM     12  C   UNL     1       5.904   1.360  11.379  0.00  0.00    +0.000 C 
ATOM     13  C   UNL     1       4.033   3.026  11.227  0.00  0.00    +0.000 C 
ENDBRANCH   8  11
ENDBRANCH   1  10
BRANCH   3  14
ATOM     14  C   UNL     1       6.138   5.950  17.981  0.00  0.00    +0.000 C 
BRANCH  14  15
ATOM     15  C   UNL     1       4.945   5.423  18.804  0.00  0.00    +0.000 C 
ATOM     16  C   UNL     1       3.829   6.458  18.924  0.00  0.00    +0.000 C 
ATOM     17  O   UNL     1       2.801   5.991  19.811  0.00  0.00    +0.000 OA
ATOM     18  C   UNL     1       2.492   4.675  19.591  0.00  0.00    +0.000 A 
ATOM     19  C   UNL     1       1.350   4.187  20.226  0.00  0.00    +0.000 A 
ATOM     20  C   UNL     1       0.969   2.857  20.048  0.00  0.00    +0.000 A 
ATOM     21  C   UNL     1       1.728   2.015  19.236  0.00  0.00    +0.000 A 
ATOM     22  C   UNL     1       2.874   2.500  18.602  0.00  0.00    +0.000 A 
ATOM     23  C   UNL     1       3.266   3.824  18.794  0.00  0.00    +0.000 A 
ATOM     24  O   UNL     1       4.428   4.231  18.177  0.00  0.00    +0.000 OA
ENDBRANCH  14  15
ENDBRANCH   3  14
TORSDOF 4
ENDMDL
MODEL 2
REMARK VINA RESULT:      -7.3      2.917      8.150
REMARK  Name = 
REMARK  8 active torsions:
REMARK  status: ('A' for Active; 'I' for Inactive)
REMARK    1  A    between atoms: C_1  and  C_2
REMARK    2  A    between atoms: C_4  and  C_5
REMARK    3  A    between atoms: C_5  and  C_6
REMARK    4  A    between atoms: C_5  and  C_7
REMARK    5  A    between atoms: C_9  and  C_10
REMARK    6  A    between atoms: N_12  and  C_13
REMARK    7  A    between atoms: N_12  and  C_14
REMARK    8  A    between atoms: C_14  and  C_15
REMARK                            x       y       z     vdW  Elec       q    Type
REMARK                         _______ _______ _______ _____ _____    ______ ____
ROOT
ATOM      1  C   UNL     1       3.159   4.680  18.237  0.00  0.00    +0.000 C 
ATOM      2  O   UNL     1       2.531   4.184  17.296  0.00  0.00    +0.000 OA
ATOM      3  N   UNL     1       4.529   4.359  18.350  0.00  0.00    +0.000 N 
ATOM      4  C   UNL     1       5.442   4.947  19.311  0.00  0.00    +0.000 C 
ENDROOT
BRANCH   1  10
ATOM      5  C   UNL     1       1.769   4.106  21.350  0.00  0.00    +0.000 C 
ATOM      6  C   UNL     1       1.877   5.315  20.488  0.00  0.00    +0.000 A 
ATOM      7  N   UNL     1       1.356   6.467  21.070  0.00  0.00    +0.000 NA
ATOM      8  C   UNL     1       1.581   7.527  20.333  0.00  0.00    +0.000 A 
ATOM      9  S   UNL     1       2.369   7.204  18.848  0.00  0.00    +0.000 S 
ATOM     10  C   UNL     1       2.450   5.501  19.229  0.00  0.00    +0.000 A 
BRANCH   8  11
ATOM     11  C   UNL     1       1.189   8.928  20.721  0.00  0.00    +0.000 C 
ATOM     12  C   UNL     1       0.877   9.743  19.465  0.00  0.00    +0.000 C 
ATOM     13  C   UNL     1      -0.024   8.914  21.655  0.00  0.00    +0.000 C 
ENDBRANCH   8  11
ENDBRANCH   1  10
BRANCH   3  14
ATOM     14  C   UNL     1       5.135   3.496  17.308  0.00  0.00    +0.000 C 
BRANCH  14  15
ATOM     15  C   UNL     1       5.741   4.248  16.105  0.00  0.00    +0.000 C 
ATOM     16  C   UNL     1       7.160   4.734  16.389  0.00  0.00    +0.000 C 
ATOM     17  O   UNL     1       7.640   5.550  15.309  0.00  0.00    +0.000 OA
ATOM     18  C   UNL     1       7.332   5.015  14.086  0.00  0.00    +0.000 A 
ATOM     19  C   UNL     1       7.951   5.593  12.978  0.00  0.00    +0.000 A 
ATOM     20  C   UNL     1       7.690   5.101  11.699  0.00  0.00    +0.000 A 
ATOM     21  C   UNL     1       6.811   4.032  11.528  0.00  0.00    +0.000 A 
ATOM     22  C   UNL     1       6.186   3.454  12.635  0.00  0.00    +0.000 A 
ATOM     23  C   UNL     1       6.433   3.957  13.912  0.00  0.00    +0.000 A 
ATOM     24  O   UNL     1       5.755   3.373  14.959  0.00  0.00    +0.000 OA
ENDBRANCH  14  15
ENDBRANCH   3  14
TORSDOF 4
ENDMDL
MODEL 3
REMARK VINA RESULT:      -7.2      0.701      1.005
REMARK  Name = 
REMARK  8 active torsions:
REMARK  status: ('A' for Active; 'I' for Inactive)
REMARK    1  A    between atoms: C_1  and  C_2
REMARK    2  A    between atoms: C_4  and  C_5
REMARK    3  A    between atoms: C_5  and  C_6
REMARK    4  A    between atoms: C_5  and  C_7
REMARK    5  A    between atoms: C_9  and  C_10
REMARK    6  A    between atoms: N_12  and  C_13
REMARK    7  A    between atoms: N_12  and  C_14
REMARK    8  A    between atoms: C_14  and  C_15
REMARK                            x       y       z     vdW  Elec       q    Type
REMARK                         _______ _______ _______ _____ _____    ______ ____
ROOT
ATOM      1  C   UNL     1       6.939   5.028  15.999  0.00  0.00    +0.000 C 
ATOM      2  O   UNL     1       7.842   4.544  16.689  0.00  0.00    +0.000 OA
ATOM      3  N   UNL     1       6.031   5.904  16.632  0.00  0.00    +0.000 N 
ATOM      4  C   UNL     1       4.994   6.656  15.952  0.00  0.00    +0.000 C 
ENDROOT
BRANCH   1  10
ATOM      5  C   UNL     1       8.583   5.773  13.050  0.00  0.00    +0.000 C 
ATOM      6  C   UNL     1       7.434   4.886  13.383  0.00  0.00    +0.000 A 
ATOM      7  N   UNL     1       6.946   4.167  12.294  0.00  0.00    +0.000 NA
ATOM      8  C   UNL     1       6.021   3.311  12.653  0.00  0.00    +0.000 A 
ATOM      9  S   UNL     1       5.615   3.362  14.314  0.00  0.00    +0.000 S 
ATOM     10  C   UNL     1       6.799   4.615  14.596  0.00  0.00    +0.000 A 
BRANCH   8  11
ATOM     11  C   UNL     1       5.344   2.352  11.711  0.00  0.00    +0.000 C 
ATOM     12  C   UNL     1       4.305   3.098  10.873  0.00  0.00    +0.000 C 
ATOM     13  C   UNL     1       6.368   1.671  10.798  0.00  0.00    +0.000 C 
ENDBRANCH   8  11
ENDBRANCH   1  10
BRANCH   3  14
ATOM     14  C   UNL     1       6.249   6.228  18.062  0.00  0.00    +0.000 C 
BRANCH  14  15
ATOM     15  C   UNL     1       5.084   5.858  19.003  0.00  0.00    +0.000 C 
ATOM     16  C   UNL     1       3.819   6.654  18.689  0.00  0.00    +0.000 C 
ATOM     17  O   UNL     1       2.803   6.392  19.669  0.00  0.00    +0.000 OA
ATOM     18  C   UNL     1       2.714   5.059  19.972  0.00  0.00    +0.000 A 
ATOM     19  C   UNL     1       1.609   4.662  20.726  0.00  0.00    +0.000 A 
ATOM     20  C   UNL     1       1.448   3.321  21.073  0.00  0.00    +0.000 A 
ATOM     21  C   UNL     1       2.390   2.377  20.666  0.00  0.00    +0.000 A 
ATOM     22  C   UNL     1       3.500   2.771  19.915  0.00  0.00    +0.000 A 
ATOM     23  C   UNL     1       3.670   4.115  19.584  0.00  0.00    +0.000 A 
ATOM     24  O   UNL     1       4.805   4.448  18.879  0.00  0.00    +0.000 OA
ENDBRANCH  14  15
ENDBRANCH   3  14
TORSDOF 4
ENDMDL
MODEL 4
REMARK VINA RESULT:      -7.1      2.951      8.126
REMARK  Name = 
REMARK  8 active torsions:
REMARK  status: ('A' for Active; 'I' for Inactive)
REMARK    1  A    between atoms: C_1  and  C_2
REMARK    2  A    between atoms: C_4  and  C_5
REMARK    3  A    between atoms: C_5  and  C_6
REMARK    4  A    between atoms: C_5  and  C_7
REMARK    5  A    between atoms: C_9  and  C_10
REMARK    6  A    between atoms: N_12  and  C_13
REMARK    7  A    between atoms: N_12  and  C_14
REMARK    8  A    between atoms: C_14  and  C_15
REMARK                            x       y       z     vdW  Elec       q    Type
REMARK                         _______ _______ _______ _____ _____    ______ ____
ROOT
ATOM      1  C   UNL     1       4.056   4.821  19.002  0.00  0.00    +0.000 C 
ATOM      2  O   UNL     1       5.225   4.987  19.367  0.00  0.00    +0.000 OA
ATOM      3  N   UNL     1       3.834   4.002  17.874  0.00  0.00    +0.000 N 
ATOM      4  C   UNL     1       2.529   3.600  17.386  0.00  0.00    +0.000 C 
ENDROOT
BRANCH   1  10
ATOM      5  C   UNL     1       1.644   3.968  21.326  0.00  0.00    +0.000 C 
ATOM      6  C   UNL     1       1.984   5.238  20.628  0.00  0.00    +0.000 A 
ATOM      7  N   UNL     1       1.206   6.322  21.024  0.00  0.00    +0.000 NA
ATOM      8  C   UNL     1       1.617   7.441  20.479  0.00  0.00    +0.000 A 
ATOM      9  S   UNL     1       2.925   7.258  19.389  0.00  0.00    +0.000 S 
ATOM     10  C   UNL     1       2.973   5.537  19.690  0.00  0.00    +0.000 A 
BRANCH   8  11
ATOM     11  C   UNL     1       1.015   8.791  20.757  0.00  0.00    +0.000 C 
ATOM     12  C   UNL     1       0.697   9.496  19.437  0.00  0.00    +0.000 C 
ATOM     13  C   UNL     1      -0.256   8.657  21.602  0.00  0.00    +0.000 C 
ENDBRANCH   8  11
ENDBRANCH   1  10
BRANCH   3  14
ATOM     14  C   UNL     1       5.004   3.352  17.237  0.00  0.00    +0.000 C 
BRANCH  14  15
ATOM     15  C   UNL     1       5.631   4.135  16.065  0.00  0.00    +0.000 C 
ATOM     16  C   UNL     1       7.027   4.653  16.404  0.00  0.00    +0.000 C 
ATOM     17  O   UNL     1       7.522   5.495  15.351  0.00  0.00    +0.000 OA
ATOM     18  C   UNL     1       7.269   4.969  14.112  0.00  0.00    +0.000 A 
ATOM     19  C   UNL     1       7.912   5.577  13.033  0.00  0.00    +0.000 A 
ATOM     20  C   UNL     1       7.706   5.096  11.740  0.00  0.00    +0.000 A 
ATOM     21  C   UNL     1       6.862   4.007  11.525  0.00  0.00    +0.000 A 
ATOM     22  C   UNL     1       6.214   3.399  12.603  0.00  0.00    +0.000 A 
ATOM     23  C   UNL     1       6.405   3.891  13.893  0.00  0.00    +0.000 A 
ATOM     24  O   UNL     1       5.706   3.277  14.909  0.00  0.00    +0.000 OA
ENDBRANCH  14  15
ENDBRANCH   3  14
TORSDOF 4
ENDMDL
MODEL 5
REMARK VINA RESULT:      -7.1      6.080      9.041
REMARK  Name = 
REMARK  8 active torsions:
REMARK  status: ('A' for Active; 'I' for Inactive)
REMARK    1  A    between atoms: C_1  and  C_2
REMARK    2  A    between atoms: C_4  and  C_5
REMARK    3  A    between atoms: C_5  and  C_6
REMARK    4  A    between atoms: C_5  and  C_7
REMARK    5  A    between atoms: C_9  and  C_10
REMARK    6  A    between atoms: N_12  and  C_13
REMARK    7  A    between atoms: N_12  and  C_14
REMARK    8  A    between atoms: C_14  and  C_15
REMARK                            x       y       z     vdW  Elec       q    Type
REMARK                         _______ _______ _______ _____ _____    ______ ____
ROOT
ATOM      1  C   UNL     1       0.422   9.783  19.364  0.00  0.00    +0.000 C 
ATOM      2  O   UNL     1       1.316   9.876  18.517  0.00  0.00    +0.000 OA
ATOM      3  N   UNL     1       0.600   8.842  20.401  0.00  0.00    +0.000 N 
ATOM      4  C   UNL     1      -0.282   8.688  21.542  0.00  0.00    +0.000 C 
ENDROOT
BRANCH   1  10
ATOM      5  C   UNL     1      -0.867  12.608  20.882  0.00  0.00    +0.000 C 
ATOM      6  C   UNL     1      -1.362  11.716  19.798  0.00  0.00    +0.000 A 
ATOM      7  N   UNL     1      -2.572  12.126  19.243  0.00  0.00    +0.000 NA
ATOM      8  C   UNL     1      -2.909  11.387  18.214  0.00  0.00    +0.000 A 
ATOM      9  S   UNL     1      -1.834  10.096  17.887  0.00  0.00    +0.000 S 
ATOM     10  C   UNL     1      -0.804  10.578  19.214  0.00  0.00    +0.000 A 
BRANCH   8  11
ATOM     11  C   UNL     1      -4.133  11.618  17.370  0.00  0.00    +0.000 C 
ATOM     12  C   UNL     1      -3.954  10.946  16.007  0.00  0.00    +0.000 C 
ATOM     13  C   UNL     1      -5.384  11.073  18.066  0.00  0.00    +0.000 C 
ENDBRANCH   8  11
ENDBRANCH   1  10
BRANCH   3  14
ATOM     14  C   UNL     1       1.865   8.069  20.438  0.00  0.00    +0.000 C 
BRANCH  14  15
ATOM     15  C   UNL     1       1.917   6.851  19.494  0.00  0.00    +0.000 C 
ATOM     16  C   UNL     1       3.228   6.786  18.714  0.00  0.00    +0.000 C 
ATOM     17  O   UNL     1       3.185   5.728  17.744  0.00  0.00    +0.000 OA
ATOM     18  C   UNL     1       2.638   4.583  18.258  0.00  0.00    +0.000 A 
ATOM     19  C   UNL     1       2.767   3.428  17.485  0.00  0.00    +0.000 A 
ATOM     20  C   UNL     1       2.237   2.221  17.943  0.00  0.00    +0.000 A 
ATOM     21  C   UNL     1       1.582   2.168  19.173  0.00  0.00    +0.000 A 
ATOM     22  C   UNL     1       1.448   3.323  19.947  0.00  0.00    +0.000 A 
ATOM     23  C   UNL     1       1.961   4.533  19.481  0.00  0.00    +0.000 A 
ATOM     24  O   UNL     1       1.761   5.645  20.269  0.00  0.00    +0.000 OA
ENDBRANCH  14  15
ENDBRANCH   3  14
TORSDOF 4
ENDMDL
MODEL 6
REMARK VINA RESULT:      -7.0      5.871      8.347
REMARK  Name = 
REMARK  8 active torsions:
REMARK  status: ('A' for Active; 'I' for Inactive)
REMARK    1  A    between atoms: C_1  and  C_2
REMARK    2  A    between atoms: C_4  and  C_5
REMARK    3  A    between atoms: C_5  and  C_6
REMARK    4  A    between atoms: C_5  and  C_7
REMARK    5  A    between atoms: C_9  and  C_10
REMARK    6  A    between atoms: N_12  and  C_13
REMARK    7  A    between atoms: N_12  and  C_14
REMARK    8  A    between atoms: C_14  and  C_15
REMARK                            x       y       z     vdW  Elec       q    Type
REMARK                         _______ _______ _______ _____ _____    ______ ____
ROOT
ATOM      1  C   UNL     1       1.819   7.958  20.037  0.00  0.00    +0.000 C 
ATOM      2  O   UNL     1       1.554   8.249  21.208  0.00  0.00    +0.000 OA
ATOM      3  N   UNL     1       1.544   8.925  19.046  0.00  0.00    +0.000 N 
ATOM      4  C   UNL     1       1.906   8.804  17.647  0.00  0.00    +0.000 C 
ENDROOT
BRANCH   1  10
ATOM      5  C   UNL     1       4.324   6.690  18.020  0.00  0.00    +0.000 C 
ATOM      6  C   UNL     1       3.320   6.059  18.920  0.00  0.00    +0.000 A 
ATOM      7  N   UNL     1       3.441   4.674  19.010  0.00  0.00    +0.000 NA
ATOM      8  C   UNL     1       2.623   4.174  19.903  0.00  0.00    +0.000 A 
ATOM      9  S   UNL     1       1.594   5.323  20.645  0.00  0.00    +0.000 S 
ATOM     10  C   UNL     1       2.321   6.614  19.720  0.00  0.00    +0.000 A 
BRANCH   8  11
ATOM     11  C   UNL     1       2.558   2.715  20.270  0.00  0.00    +0.000 C 
ATOM     12  C   UNL     1       1.785   2.546  21.580  0.00  0.00    +0.000 C 
ATOM     13  C   UNL     1       1.891   1.903  19.156  0.00  0.00    +0.000 C 
ENDBRANCH   8  11
ENDBRANCH   1  10
BRANCH   3  14
ATOM     14  C   UNL     1       1.010  10.239  19.476  0.00  0.00    +0.000 C 
BRANCH  14  15
ATOM     15  C   UNL     1      -0.495  10.452  19.213  0.00  0.00    +0.000 C 
ATOM     16  C   UNL     1      -1.001  11.762  19.812  0.00  0.00    +0.000 C 
ATOM     17  O   UNL     1      -2.427  11.861  19.675  0.00  0.00    +0.000 OA
ATOM     18  C   UNL     1      -2.852  11.467  18.434  0.00  0.00    +0.000 A 
ATOM     19  C   UNL     1      -4.180  11.747  18.110  0.00  0.00    +0.000 A 
ATOM     20  C   UNL     1      -4.686  11.379  16.863  0.00  0.00    +0.000 A 
ATOM     21  C   UNL     1      -3.864  10.733  15.940  0.00  0.00    +0.000 A 
ATOM     22  C   UNL     1      -2.536  10.447  16.263  0.00  0.00    +0.000 A 
ATOM     23  C   UNL     1      -2.035  10.799  17.516  0.00  0.00    +0.000 A 
ATOM     24  O   UNL     1      -0.731  10.454  17.791  0.00  0.00    +0.000 OA
ENDBRANCH  14  15
ENDBRANCH   3  14
TORSDOF 4
ENDMDL
MODEL 7
REMARK VINA RESULT:      -7.0      3.683      5.248
REMARK  Name = 
REMARK  8 active torsions:
REMARK  status: ('A' for Active; 'I' for Inactive)
REMARK    1  A    between atoms: C_1  and  C_2
REMARK    2  A    between atoms: C_4  and  C_5
REMARK    3  A    between atoms: C_5  and  C_6
REMARK    4  A    between atoms: C_5  and  C_7
REMARK    5  A    between atoms: C_9  and  C_10
REMARK    6  A    between atoms: N_12  and  C_13
REMARK    7  A    between atoms: N_12  and  C_14
REMARK    8  A    between atoms: C_14  and  C_15
REMARK                            x       y       z     vdW  Elec       q    Type
REMARK                         _______ _______ _______ _____ _____    ______ ____
ROOT
ATOM      1  C   UNL     1       4.459   5.805  18.415  0.00  0.00    +0.000 C 
ATOM      2  O   UNL     1       4.478   4.954  19.310  0.00  0.00    +0.000 OA
ATOM      3  N   UNL     1       3.410   6.749  18.432  0.00  0.00    +0.000 N 
ATOM      4  C   UNL     1       3.302   7.886  17.539  0.00  0.00    +0.000 C 
ENDROOT
BRANCH   1  10
ATOM      5  C   UNL     1       7.560   7.236  17.880  0.00  0.00    +0.000 C 
ATOM      6  C   UNL     1       6.715   6.303  17.084  0.00  0.00    +0.000 A 
ATOM      7  N   UNL     1       7.312   5.877  15.900  0.00  0.00    +0.000 NA
ATOM      8  C   UNL     1       6.591   4.966  15.294  0.00  0.00    +0.000 A 
ATOM      9  S   UNL     1       5.104   4.612  16.064  0.00  0.00    +0.000 S 
ATOM     10  C   UNL     1       5.461   5.749  17.341  0.00  0.00    +0.000 A 
BRANCH   8  11
ATOM     11  C   UNL     1       6.998   4.272  14.022  0.00  0.00    +0.000 C 
ATOM     12  C   UNL     1       5.756   3.741  13.304  0.00  0.00    +0.000 C 
ATOM     13  C   UNL     1       7.770   5.224  13.105  0.00  0.00    +0.000 C 
ENDBRANCH   8  11
ENDBRANCH   1  10
BRANCH   3  14
ATOM     14  C   UNL     1       2.435   6.694  19.548  0.00  0.00    +0.000 C 
BRANCH  14  15
ATOM     15  C   UNL     1       1.941   8.064  20.055  0.00  0.00    +0.000 C 
ATOM     16  C   UNL     1       1.290   8.885  18.944  0.00  0.00    +0.000 C 
ATOM     17  O   UNL     1       0.972  10.204  19.413  0.00  0.00    +0.000 OA
ATOM     18  C   UNL     1       0.416  10.184  20.664  0.00  0.00    +0.000 A 
ATOM     19  C   UNL     1      -0.149  11.378  21.116  0.00  0.00    +0.000 A 
ATOM     20  C   UNL     1      -0.737  11.435  22.380  0.00  0.00    +0.000 A 
ATOM     21  C   UNL     1      -0.762  10.301  23.191  0.00  0.00    +0.000 A 
ATOM     22  C   UNL     1      -0.194   9.106  22.743  0.00  0.00    +0.000 A 
ATOM     23  C   UNL     1       0.410   9.053  21.488  0.00  0.00    +0.000 A 
ATOM     24  O   UNL     1       0.990   7.859  21.119  0.00  0.00    +0.000 OA
ENDBRANCH  14  15
ENDBRANCH   3  14
TORSDOF 4
ENDMDL
MODEL 8
REMARK VINA RESULT:      -6.8      5.500      7.568
REMARK  Name = 
REMARK  8 active torsions:
REMARK  status: ('A' for Active; 'I' for Inactive)
REMARK    1  A    between atoms: C_1  and  C_2
REMARK    2  A    between atoms: C_4  and  C_5
REMARK    3  A    between atoms: C_5  and  C_6
REMARK    4  A    between atoms: C_5  and  C_7
REMARK    5  A    between atoms: C_9  and  C_10
REMARK    6  A    between atoms: N_12  and  C_13
REMARK    7  A    between atoms: N_12  and  C_14
REMARK    8  A    between atoms: C_14  and  C_15
REMARK                            x       y       z     vdW  Elec       q    Type
REMARK                         _______ _______ _______ _____ _____    ______ ____
ROOT
ATOM      1  C   UNL     1       2.322   7.946  18.276  0.00  0.00    +0.000 C 
ATOM      2  O   UNL     1       2.431   8.656  17.270  0.00  0.00    +0.000 OA
ATOM      3  N   UNL     1       1.802   8.543  19.444  0.00  0.00    +0.000 N 
ATOM      4  C   UNL     1       1.490   7.833  20.670  0.00  0.00    +0.000 C 
ENDROOT
BRANCH   1  10
ATOM      5  C   UNL     1       5.321   6.418  17.485  0.00  0.00    +0.000 C 
ATOM      6  C   UNL     1       3.997   5.901  17.931  0.00  0.00    +0.000 A 
ATOM      7  N   UNL     1       3.968   4.521  18.116  0.00  0.00    +0.000 NA
ATOM      8  C   UNL     1       2.827   4.124  18.624  0.00  0.00    +0.000 A 
ATOM      9  S   UNL     1       1.677   5.372  18.845  0.00  0.00    +0.000 S 
ATOM     10  C   UNL     1       2.807   6.560  18.239  0.00  0.00    +0.000 A 
BRANCH   8  11
ATOM     11  C   UNL     1       2.514   2.698  18.991  0.00  0.00    +0.000 C 
ATOM     12  C   UNL     1       1.033   2.413  18.732  0.00  0.00    +0.000 C 
ATOM     13  C   UNL     1       3.385   1.726  18.191  0.00  0.00    +0.000 C 
ENDBRANCH   8  11
ENDBRANCH   1  10
BRANCH   3  14
ATOM     14  C   UNL     1       1.372   9.961  19.376  0.00  0.00    +0.000 C 
BRANCH  14  15
ATOM     15  C   UNL     1      -0.142  10.177  19.175  0.00  0.00    +0.000 C 
ATOM     16  C   UNL     1      -0.607  11.522  19.728  0.00  0.00    +0.000 C 
ATOM     17  O   UNL     1      -2.037  11.629  19.654  0.00  0.00    +0.000 OA
ATOM     18  C   UNL     1      -2.525  11.176  18.457  0.00  0.00    +0.000 A 
ATOM     19  C   UNL     1      -3.864  11.454  18.183  0.00  0.00    +0.000 A 
ATOM     20  C   UNL     1      -4.433  11.027  16.982  0.00  0.00    +0.000 A 
ATOM     21  C   UNL     1      -3.662  10.325  16.056  0.00  0.00    +0.000 A 
ATOM     22  C   UNL     1      -2.322  10.042  16.329  0.00  0.00    +0.000 A 
ATOM     23  C   UNL     1      -1.759  10.452  17.537  0.00  0.00    +0.000 A 
ATOM     24  O   UNL     1      -0.446  10.107  17.767  0.00  0.00    +0.000 OA
ENDBRANCH  14  15
ENDBRANCH   3  14
TORSDOF 4
ENDMDL
MODEL 9
REMARK VINA RESULT:      -6.8      5.721      8.449
REMARK  Name = 
REMARK  8 active torsions:
REMARK  status: ('A' for Active; 'I' for Inactive)
REMARK    1  A    between atoms: C_1  and  C_2
REMARK    2  A    between atoms: C_4  and  C_5
REMARK    3  A    between atoms: C_5  and  C_6
REMARK    4  A    between atoms: C_5  and  C_7
REMARK    5  A    between atoms: C_9  and  C_10
REMARK    6  A    between atoms: N_12  and  C_13
REMARK    7  A    between atoms: N_12  and  C_14
REMARK    8  A    between atoms: C_14  and  C_15
REMARK                            x       y       z     vdW  Elec       q    Type
REMARK                         _______ _______ _______ _____ _____    ______ ____
ROOT
ATOM      1  C   UNL     1       0.182   9.446  19.647  0.00  0.00    +0.000 C 
ATOM      2  O   UNL     1      -0.151   9.134  20.796  0.00  0.00    +0.000 OA
ATOM      3  N   UNL     1       1.365   8.875  19.132  0.00  0.00    +0.000 N 
ATOM      4  C   UNL     1       1.835   9.031  17.768  0.00  0.00    +0.000 C 
ENDROOT
BRANCH   1  10
ATOM      5  C   UNL     1       0.310  12.881  19.274  0.00  0.00    +0.000 C 
ATOM      6  C   UNL     1      -0.592  11.828  18.731  0.00  0.00    +0.000 A 
ATOM      7  N   UNL     1      -1.556  12.314  17.852  0.00  0.00    +0.000 NA
ATOM      8  C   UNL     1      -2.247  11.344  17.304  0.00  0.00    +0.000 A 
ATOM      9  S   UNL     1      -1.838   9.780  17.865  0.00  0.00    +0.000 S 
ATOM     10  C   UNL     1      -0.606  10.444  18.911  0.00  0.00    +0.000 A 
BRANCH   8  11
ATOM     11  C   UNL     1      -3.321  11.548  16.270  0.00  0.00    +0.000 C 
ATOM     12  C   UNL     1      -3.296  10.394  15.266  0.00  0.00    +0.000 C 
ATOM     13  C   UNL     1      -4.700  11.643  16.930  0.00  0.00    +0.000 C 
ENDBRANCH   8  11
ENDBRANCH   1  10
BRANCH   3  14
ATOM     14  C   UNL     1       2.100   7.901  19.974  0.00  0.00    +0.000 C 
BRANCH  14  15
ATOM     15  C   UNL     1       2.418   6.555  19.293  0.00  0.00    +0.000 C 
ATOM     16  C   UNL     1       3.919   6.286  19.228  0.00  0.00    +0.000 C 
ATOM     17  O   UNL     1       4.186   5.099  18.464  0.00  0.00    +0.000 OA
ATOM     18  C   UNL     1       3.322   4.083  18.776  0.00  0.00    +0.000 A 
ATOM     19  C   UNL     1       3.637   2.820  18.275  0.00  0.00    +0.000 A 
ATOM     20  C   UNL     1       2.806   1.734  18.552  0.00  0.00    +0.000 A 
ATOM     21  C   UNL     1       1.663   1.910  19.331  0.00  0.00    +0.000 A 
ATOM     22  C   UNL     1       1.343   3.174  19.830  0.00  0.00    +0.000 A 
ATOM     23  C   UNL     1       2.163   4.263  19.538  0.00  0.00    +0.000 A 
ATOM     24  O   UNL     1       1.772   5.492  20.023  0.00  0.00    +0.000 OA
ENDBRANCH  14  15
ENDBRANCH   3  14
TORSDOF 4
ENDMDL
