MODEL 1
REMARK VINA RESULT:      -8.3      0.000      0.000
REMARK  Name = 
REMARK  5 active torsions:
REMARK  status: ('A' for Active; 'I' for Inactive)
REMARK    1  A    between atoms: C_1  and  C_2
REMARK    2  A    between atoms: C_5  and  S_6
REMARK    3  A    between atoms: S_6  and  C_7
REMARK    4  A    between atoms: C_7  and  C_8
REMARK    5  A    between atoms: C_8  and  C_10
REMARK                            x       y       z     vdW  Elec       q    Type
REMARK                         _______ _______ _______ _____ _____    ______ ____
ROOT
ATOM      1  C   UNL     1       3.007   6.248  18.852  0.00  0.00    +0.000 C 
ATOM      2  O   UNL     1       2.680   7.115  19.658  0.00  0.00    +0.000 OA
ENDROOT
BRANCH   1   3
ATOM      3  C   UNL     1       2.640   4.770  19.124  0.00  0.00    +0.000 C 
ATOM      4  C   UNL     1       1.447   4.691  20.099  0.00  0.00    +0.000 C 
ATOM      5  C   UNL     1       1.078   3.228  20.396  0.00  0.00    +0.000 C 
ATOM      6  C   UNL     1       0.694   2.525  19.084  0.00  0.00    +0.000 C 
ATOM      7  C   UNL     1       1.874   2.563  18.102  0.00  0.00    +0.000 C 
ATOM      8  C   UNL     1       3.088   1.861  18.730  0.00  0.00    +0.000 C 
ATOM      9  C   UNL     1       3.482   2.561  20.040  0.00  0.00    +0.000 C 
ATOM     10  C   UNL     1       2.292   2.513  21.014  0.00  0.00    +0.000 C 
ATOM     11  C   UNL     1       3.841   4.027  19.744  0.00  0.00    +0.000 C 
ATOM     12  C   UNL     1       2.239   4.030  17.812  0.00  0.00    +0.000 C 
ENDBRANCH   1   3
BRANCH   1  13
ATOM     13  C   UNL     1       3.792   6.572  17.559  0.00  0.00    +0.000 C 
BRANCH  13  14
ATOM     14  S   UNL     1       5.572   6.307  17.826  0.00  0.00    +0.000 S 
BRANCH  14  19
ATOM     15  C   UNL     1       6.410   3.694  13.018  0.00  0.00    +0.000 C 
ATOM     16  C   UNL     1       6.513   4.522  14.251  0.00  0.00    +0.000 A 
ATOM     17  N   UNL     1       7.554   5.252  14.600  0.00  0.00    +0.000 NA
ATOM     18  N   UNL     1       7.357   5.915  15.810  0.00  0.00    +0.000 NA
ATOM     19  C   UNL     1       6.175   5.659  16.322  0.00  0.00    +0.000 A 
ATOM     20  S   UNL     1       5.213   4.591  15.371  0.00  0.00    +0.000 S 
ENDBRANCH  14  19
ENDBRANCH  13  14
ENDBRANCH   1  13
TORSDOF 4
ENDMDL
MODEL 2
REMARK VINA RESULT:      -8.3      0.098      1.692
REMARK  Name = 
REMARK  5 active torsions:
REMARK  status: ('A' for Active; 'I' for Inactive)
REMARK    1  A    between atoms: C_1  and  C_2
REMARK    2  A    between atoms: C_5  and  S_6
REMARK    3  A    between atoms: S_6  and  C_7
REMARK    4  A    between atoms: C_7  and  C_8
REMARK    5  A    between atoms: C_8  and  C_10
REMARK                            x       y       z     vdW  Elec       q    Type
REMARK                         _______ _______ _______ _____ _____    ______ ____
ROOT
ATOM      1  C   UNL     1       2.969   6.305  18.826  0.00  0.00    +0.000 C 
ATOM      2  O   UNL     1       2.662   7.206  19.603  0.00  0.00    +0.000 OA
ENDROOT
BRANCH   1   3
ATOM      3  C   UNL     1       2.580   4.844  19.154  0.00  0.00    +0.000 C 
ATOM      4  C   UNL     1       3.779   4.105  19.783  0.00  0.00    +0.000 C 
ATOM      5  C   UNL     1       3.418   2.645  20.099  0.00  0.00    +0.000 C 
ATOM      6  C   UNL     1       2.242   2.615  21.089  0.00  0.00    +0.000 C 
ATOM      7  C   UNL     1       1.022   3.320  20.477  0.00  0.00    +0.000 C 
ATOM      8  C   UNL     1       0.620   2.613  19.173  0.00  0.00    +0.000 C 
ATOM      9  C   UNL     1       1.789   2.642  18.176  0.00  0.00    +0.000 C 
ATOM     10  C   UNL     1       3.002   1.931  18.801  0.00  0.00    +0.000 C 
ATOM     11  C   UNL     1       2.158   4.103  17.868  0.00  0.00    +0.000 C 
ATOM     12  C   UNL     1       1.392   4.780  20.160  0.00  0.00    +0.000 C 
ENDBRANCH   1   3
BRANCH   1  13
ATOM     13  C   UNL     1       3.748   6.570  17.517  0.00  0.00    +0.000 C 
BRANCH  13  14
ATOM     14  S   UNL     1       5.533   6.359  17.798  0.00  0.00    +0.000 S 
BRANCH  14  19
ATOM     15  C   UNL     1       6.443   3.704  13.026  0.00  0.00    +0.000 C 
ATOM     16  C   UNL     1       6.530   4.537  14.257  0.00  0.00    +0.000 A 
ATOM     17  N   UNL     1       7.574   5.251  14.627  0.00  0.00    +0.000 NA
ATOM     18  N   UNL     1       7.359   5.925  15.828  0.00  0.00    +0.000 NA
ATOM     19  C   UNL     1       6.161   5.692  16.313  0.00  0.00    +0.000 A 
ATOM     20  S   UNL     1       5.205   4.635  15.344  0.00  0.00    +0.000 S 
ENDBRANCH  14  19
ENDBRANCH  13  14
ENDBRANCH   1  13
TORSDOF 4
ENDMDL
MODEL 3
REMARK VINA RESULT:      -8.3      0.179      1.644
REMARK  Name = 
REMARK  5 active torsions:
REMARK  status: ('A' for Active; 'I' for Inactive)
REMARK    1  A    between atoms: C_1  and  C_2
REMARK    2  A    between atoms: C_5  and  S_6
REMARK    3  A    between atoms: S_6  and  C_7
REMARK    4  A    between atoms: C_7  and  C_8
REMARK    5  A    between atoms: C_8  and  C_10
REMARK                            x       y       z     vdW  Elec       q    Type
REMARK                         _______ _______ _______ _____ _____    ______ ____
ROOT
ATOM      1  C   UNL     1       2.966   6.336  18.833  0.00  0.00    +0.000 C 
ATOM      2  O   UNL     1       2.648   7.238  19.603  0.00  0.00    +0.000 OA
ENDROOT
BRANCH   1   3
ATOM      3  C   UNL     1       2.608   4.871  19.178  0.00  0.00    +0.000 C 
ATOM      4  C   UNL     1       2.079   4.146  17.924  0.00  0.00    +0.000 C 
ATOM      5  C   UNL     1       1.700   2.692  18.251  0.00  0.00    +0.000 C 
ATOM      6  C   UNL     1       2.941   1.947  18.767  0.00  0.00    +0.000 C 
ATOM      7  C   UNL     1       3.475   2.632  20.034  0.00  0.00    +0.000 C 
ATOM      8  C   UNL     1       2.384   2.632  21.117  0.00  0.00    +0.000 C 
ATOM      9  C   UNL     1       1.140   3.379  20.610  0.00  0.00    +0.000 C 
ATOM     10  C   UNL     1       0.616   2.682  19.343  0.00  0.00    +0.000 C 
ATOM     11  C   UNL     1       1.521   4.831  20.273  0.00  0.00    +0.000 C 
ATOM     12  C   UNL     1       3.849   4.086  19.700  0.00  0.00    +0.000 C 
ENDBRANCH   1   3
BRANCH   1  13
ATOM     13  C   UNL     1       3.729   6.602  17.515  0.00  0.00    +0.000 C 
BRANCH  13  14
ATOM     14  S   UNL     1       5.523   6.491  17.799  0.00  0.00    +0.000 S 
BRANCH  14  19
ATOM     15  C   UNL     1       6.529   3.782  13.076  0.00  0.00    +0.000 C 
ATOM     16  C   UNL     1       6.592   4.627  14.301  0.00  0.00    +0.000 A 
ATOM     17  N   UNL     1       7.633   5.336  14.691  0.00  0.00    +0.000 NA
ATOM     18  N   UNL     1       7.394   6.022  15.879  0.00  0.00    +0.000 NA
ATOM     19  C   UNL     1       6.182   5.804  16.336  0.00  0.00    +0.000 A 
ATOM     20  S   UNL     1       5.242   4.747  15.353  0.00  0.00    +0.000 S 
ENDBRANCH  14  19
ENDBRANCH  13  14
ENDBRANCH   1  13
TORSDOF 4
ENDMDL
MODEL 4
REMARK VINA RESULT:      -8.0      1.196      2.245
REMARK  Name = 
REMARK  5 active torsions:
REMARK  status: ('A' for Active; 'I' for Inactive)
REMARK    1  A    between atoms: C_1  and  C_2
REMARK    2  A    between atoms: C_5  and  S_6
REMARK    3  A    between atoms: S_6  and  C_7
REMARK    4  A    between atoms: C_7  and  C_8
REMARK    5  A    between atoms: C_8  and  C_10
REMARK                            x       y       z     vdW  Elec       q    Type
REMARK                         _______ _______ _______ _____ _____    ______ ____
ROOT
ATOM      1  C   UNL     1       4.514   5.442  18.200  0.00  0.00    +0.000 C 
ATOM      2  O   UNL     1       4.157   6.518  17.727  0.00  0.00    +0.000 OA
ENDROOT
BRANCH   1   3
ATOM      3  C   UNL     1       3.479   4.531  18.902  0.00  0.00    +0.000 C 
ATOM      4  C   UNL     1       4.087   3.136  19.155  0.00  0.00    +0.000 C 
ATOM      5  C   UNL     1       3.066   2.210  19.837  0.00  0.00    +0.000 C 
ATOM      6  C   UNL     1       2.647   2.820  21.184  0.00  0.00    +0.000 C 
ATOM      7  C   UNL     1       2.012   4.201  20.961  0.00  0.00    +0.000 C 
ATOM      8  C   UNL     1       0.782   4.059  20.051  0.00  0.00    +0.000 C 
ATOM      9  C   UNL     1       1.193   3.454  18.700  0.00  0.00    +0.000 C 
ATOM     10  C   UNL     1       1.825   2.072  18.938  0.00  0.00    +0.000 C 
ATOM     11  C   UNL     1       2.221   4.376  18.022  0.00  0.00    +0.000 C 
ATOM     12  C   UNL     1       3.038   5.120  20.276  0.00  0.00    +0.000 C 
ENDBRANCH   1   3
BRANCH   1  13
ATOM     13  C   UNL     1       5.979   4.952  18.131  0.00  0.00    +0.000 C 
BRANCH  13  14
ATOM     14  S   UNL     1       6.954   6.048  17.055  0.00  0.00    +0.000 S 
BRANCH  14  19
ATOM     15  C   UNL     1       5.739   3.216  12.455  0.00  0.00    +0.000 C 
ATOM     16  C   UNL     1       6.342   4.091  13.498  0.00  0.00    +0.000 A 
ATOM     17  N   UNL     1       7.442   4.804  13.358  0.00  0.00    +0.000 NA
ATOM     18  N   UNL     1       7.761   5.521  14.509  0.00  0.00    +0.000 NA
ATOM     19  C   UNL     1       6.887   5.321  15.469  0.00  0.00    +0.000 A 
ATOM     20  S   UNL     1       5.611   4.244  15.044  0.00  0.00    +0.000 S 
ENDBRANCH  14  19
ENDBRANCH  13  14
ENDBRANCH   1  13
TORSDOF 4
ENDMDL
MODEL 5
REMARK VINA RESULT:      -7.9      1.544      2.112
REMARK  Name = 
REMARK  5 active torsions:
REMARK  status: ('A' for Active; 'I' for Inactive)
REMARK    1  A    between atoms: C_1  and  C_2
REMARK    2  A    between atoms: C_5  and  S_6
REMARK    3  A    between atoms: S_6  and  C_7
REMARK    4  A    between atoms: C_7  and  C_8
REMARK    5  A    between atoms: C_8  and  C_10
REMARK                            x       y       z     vdW  Elec       q    Type
REMARK                         _______ _______ _______ _____ _____    ______ ____
ROOT
ATOM      1  C   UNL     1       5.845   4.685  18.859  0.00  0.00    +0.000 C 
ATOM      2  O   UNL     1       6.261   5.325  19.821  0.00  0.00    +0.000 OA
ENDROOT
BRANCH   1   3
ATOM      3  C   UNL     1       4.371   4.216  18.829  0.00  0.00    +0.000 C 
ATOM      4  C   UNL     1       3.439   5.372  19.244  0.00  0.00    +0.000 C 
ATOM      5  C   UNL     1       1.969   4.920  19.238  0.00  0.00    +0.000 C 
ATOM      6  C   UNL     1       1.586   4.457  17.824  0.00  0.00    +0.000 C 
ATOM      7  C   UNL     1       2.481   3.285  17.394  0.00  0.00    +0.000 C 
ATOM      8  C   UNL     1       2.314   2.121  18.383  0.00  0.00    +0.000 C 
ATOM      9  C   UNL     1       2.700   2.574  19.800  0.00  0.00    +0.000 C 
ATOM     10  C   UNL     1       1.795   3.746  20.217  0.00  0.00    +0.000 C 
ATOM     11  C   UNL     1       4.167   3.036  19.803  0.00  0.00    +0.000 C 
ATOM     12  C   UNL     1       3.950   3.744  17.405  0.00  0.00    +0.000 C 
ENDBRANCH   1   3
BRANCH   1  13
ATOM     13  C   UNL     1       6.747   4.312  17.659  0.00  0.00    +0.000 C 
BRANCH  13  14
ATOM     14  S   UNL     1       6.959   5.752  16.567  0.00  0.00    +0.000 S 
BRANCH  14  19
ATOM     15  C   UNL     1       6.022   3.011  11.849  0.00  0.00    +0.000 C 
ATOM     16  C   UNL     1       6.521   3.914  12.922  0.00  0.00    +0.000 A 
ATOM     17  N   UNL     1       7.489   4.800  12.790  0.00  0.00    +0.000 NA
ATOM     18  N   UNL     1       7.736   5.497  13.971  0.00  0.00    +0.000 NA
ATOM     19  C   UNL     1       6.944   5.109  14.945  0.00  0.00    +0.000 A 
ATOM     20  S   UNL     1       5.838   3.865  14.496  0.00  0.00    +0.000 S 
ENDBRANCH  14  19
ENDBRANCH  13  14
ENDBRANCH   1  13
TORSDOF 4
ENDMDL
MODEL 6
REMARK VINA RESULT:      -7.9      1.466      2.336
REMARK  Name = 
REMARK  5 active torsions:
REMARK  status: ('A' for Active; 'I' for Inactive)
REMARK    1  A    between atoms: C_1  and  C_2
REMARK    2  A    between atoms: C_5  and  S_6
REMARK    3  A    between atoms: S_6  and  C_7
REMARK    4  A    between atoms: C_7  and  C_8
REMARK    5  A    between atoms: C_8  and  C_10
REMARK                            x       y       z     vdW  Elec       q    Type
REMARK                         _______ _______ _______ _____ _____    ______ ____
ROOT
ATOM      1  C   UNL     1       5.390   5.024  18.903  0.00  0.00    +0.000 C 
ATOM      2  O   UNL     1       6.219   4.919  19.802  0.00  0.00    +0.000 OA
ENDROOT
BRANCH   1   3
ATOM      3  C   UNL     1       4.050   4.257  19.001  0.00  0.00    +0.000 C 
ATOM      4  C   UNL     1       3.566   3.854  17.593  0.00  0.00    +0.000 C 
ATOM      5  C   UNL     1       2.225   3.105  17.669  0.00  0.00    +0.000 C 
ATOM      6  C   UNL     1       2.399   1.835  18.516  0.00  0.00    +0.000 C 
ATOM      7  C   UNL     1       2.855   2.208  19.935  0.00  0.00    +0.000 C 
ATOM      8  C   UNL     1       1.808   3.125  20.586  0.00  0.00    +0.000 C 
ATOM      9  C   UNL     1       1.631   4.400  19.747  0.00  0.00    +0.000 C 
ATOM     10  C   UNL     1       1.173   4.012  18.331  0.00  0.00    +0.000 C 
ATOM     11  C   UNL     1       2.975   5.144  19.663  0.00  0.00    +0.000 C 
ATOM     12  C   UNL     1       4.195   2.958  19.851  0.00  0.00    +0.000 C 
ENDBRANCH   1   3
BRANCH   1  13
ATOM     13  C   UNL     1       5.633   5.897  17.649  0.00  0.00    +0.000 C 
BRANCH  13  14
ATOM     14  S   UNL     1       7.308   5.606  17.001  0.00  0.00    +0.000 S 
BRANCH  14  19
ATOM     15  C   UNL     1       5.754   3.167  12.281  0.00  0.00    +0.000 C 
ATOM     16  C   UNL     1       6.395   3.999  13.336  0.00  0.00    +0.000 A 
ATOM     17  N   UNL     1       7.351   4.886  13.138  0.00  0.00    +0.000 NA
ATOM     18  N   UNL     1       7.752   5.507  14.318  0.00  0.00    +0.000 NA
ATOM     19  C   UNL     1       7.082   5.065  15.358  0.00  0.00    +0.000 A 
ATOM     20  S   UNL     1       5.913   3.858  14.977  0.00  0.00    +0.000 S 
ENDBRANCH  14  19
ENDBRANCH  13  14
ENDBRANCH   1  13
TORSDOF 4
ENDMDL
MODEL 7
REMARK VINA RESULT:      -7.8      1.482      1.745
REMARK  Name = 
REMARK  5 active torsions:
REMARK  status: ('A' for Active; 'I' for Inactive)
REMARK    1  A    between atoms: C_1  and  C_2
REMARK    2  A    between atoms: C_5  and  S_6
REMARK    3  A    between atoms: S_6  and  C_7
REMARK    4  A    between atoms: C_7  and  C_8
REMARK    5  A    between atoms: C_8  and  C_10
REMARK                            x       y       z     vdW  Elec       q    Type
REMARK                         _______ _______ _______ _____ _____    ______ ____
ROOT
ATOM      1  C   UNL     1       5.091   4.611  18.660  0.00  0.00    +0.000 C 
ATOM      2  O   UNL     1       6.133   4.109  19.073  0.00  0.00    +0.000 OA
ENDROOT
BRANCH   1   3
ATOM      3  C   UNL     1       3.729   4.084  19.173  0.00  0.00    +0.000 C 
ATOM      4  C   UNL     1       3.272   4.902  20.397  0.00  0.00    +0.000 C 
ATOM      5  C   UNL     1       1.928   4.381  20.933  0.00  0.00    +0.000 C 
ATOM      6  C   UNL     1       0.862   4.498  19.832  0.00  0.00    +0.000 C 
ATOM      7  C   UNL     1       1.279   3.669  18.607  0.00  0.00    +0.000 C 
ATOM      8  C   UNL     1       1.442   2.197  19.015  0.00  0.00    +0.000 C 
ATOM      9  C   UNL     1       2.509   2.070  20.113  0.00  0.00    +0.000 C 
ATOM     10  C   UNL     1       2.079   2.903  21.333  0.00  0.00    +0.000 C 
ATOM     11  C   UNL     1       3.851   2.601  19.581  0.00  0.00    +0.000 C 
ATOM     12  C   UNL     1       2.625   4.195  18.079  0.00  0.00    +0.000 C 
ENDBRANCH   1   3
BRANCH   1  13
ATOM     13  C   UNL     1       5.078   5.760  17.626  0.00  0.00    +0.000 C 
BRANCH  13  14
ATOM     14  S   UNL     1       6.759   6.050  16.992  0.00  0.00    +0.000 S 
BRANCH  14  19
ATOM     15  C   UNL     1       5.821   3.227  12.323  0.00  0.00    +0.000 C 
ATOM     16  C   UNL     1       6.362   4.097  13.403  0.00  0.00    +0.000 A 
ATOM     17  N   UNL     1       7.474   4.802  13.335  0.00  0.00    +0.000 NA
ATOM     18  N   UNL     1       7.724   5.517  14.504  0.00  0.00    +0.000 NA
ATOM     19  C   UNL     1       6.788   5.323  15.406  0.00  0.00    +0.000 A 
ATOM     20  S   UNL     1       5.534   4.256  14.899  0.00  0.00    +0.000 S 
ENDBRANCH  14  19
ENDBRANCH  13  14
ENDBRANCH   1  13
TORSDOF 4
ENDMDL
MODEL 8
REMARK VINA RESULT:      -7.5      1.269      2.277
REMARK  Name = 
REMARK  5 active torsions:
REMARK  status: ('A' for Active; 'I' for Inactive)
REMARK    1  A    between atoms: C_1  and  C_2
REMARK    2  A    between atoms: C_5  and  S_6
REMARK    3  A    between atoms: S_6  and  C_7
REMARK    4  A    between atoms: C_7  and  C_8
REMARK    5  A    between atoms: C_8  and  C_10
REMARK                            x       y       z     vdW  Elec       q    Type
REMARK                         _______ _______ _______ _____ _____    ______ ____
ROOT
ATOM      1  C   UNL     1       4.613   5.202  17.767  0.00  0.00    +0.000 C 
ATOM      2  O   UNL     1       4.265   6.259  17.247  0.00  0.00    +0.000 OA
ENDROOT
BRANCH   1   3
ATOM      3  C   UNL     1       3.562   4.310  18.469  0.00  0.00    +0.000 C 
ATOM      4  C   UNL     1       2.894   3.372  17.444  0.00  0.00    +0.000 C 
ATOM      5  C   UNL     1       1.832   2.489  18.121  0.00  0.00    +0.000 C 
ATOM      6  C   UNL     1       2.500   1.636  19.211  0.00  0.00    +0.000 C 
ATOM      7  C   UNL     1       3.152   2.546  20.264  0.00  0.00    +0.000 C 
ATOM      8  C   UNL     1       2.082   3.449  20.896  0.00  0.00    +0.000 C 
ATOM      9  C   UNL     1       1.411   4.309  19.812  0.00  0.00    +0.000 C 
ATOM     10  C   UNL     1       0.762   3.386  18.767  0.00  0.00    +0.000 C 
ATOM     11  C   UNL     1       2.475   5.185  19.128  0.00  0.00    +0.000 C 
ATOM     12  C   UNL     1       4.211   3.428  19.579  0.00  0.00    +0.000 C 
ENDBRANCH   1   3
BRANCH   1  13
ATOM     13  C   UNL     1       6.082   4.719  17.758  0.00  0.00    +0.000 C 
BRANCH  13  14
ATOM     14  S   UNL     1       7.090   5.803  16.700  0.00  0.00    +0.000 S 
BRANCH  14  19
ATOM     15  C   UNL     1       5.860   2.964  12.109  0.00  0.00    +0.000 C 
ATOM     16  C   UNL     1       6.426   3.889  13.130  0.00  0.00    +0.000 A 
ATOM     17  N   UNL     1       7.384   4.770  12.920  0.00  0.00    +0.000 NA
ATOM     18  N   UNL     1       7.705   5.491  14.068  0.00  0.00    +0.000 NA
ATOM     19  C   UNL     1       6.974   5.126  15.096  0.00  0.00    +0.000 A 
ATOM     20  S   UNL     1       5.841   3.876  14.744  0.00  0.00    +0.000 S 
ENDBRANCH  14  19
ENDBRANCH  13  14
ENDBRANCH   1  13
TORSDOF 4
ENDMDL
MODEL 9
REMARK VINA RESULT:      -7.5      5.073      6.974
REMARK  Name = 
REMARK  5 active torsions:
REMARK  status: ('A' for Active; 'I' for Inactive)
REMARK    1  A    between atoms: C_1  and  C_2
REMARK    2  A    between atoms: C_5  and  S_6
REMARK    3  A    between atoms: S_6  and  C_7
REMARK    4  A    between atoms: C_7  and  C_8
REMARK    5  A    between atoms: C_8  and  C_10
REMARK                            x       y       z     vdW  Elec       q    Type
REMARK                         _______ _______ _______ _____ _____    ______ ____
ROOT
ATOM      1  C   UNL     1       2.437   6.836  19.281  0.00  0.00    +0.000 C 
ATOM      2  O   UNL     1       2.959   7.365  18.303  0.00  0.00    +0.000 OA
ENDROOT
BRANCH   1   3
ATOM      3  C   UNL     1       2.366   5.293  19.372  0.00  0.00    +0.000 C 
ATOM      4  C   UNL     1       1.869   4.706  18.035  0.00  0.00    +0.000 C 
ATOM      5  C   UNL     1       1.773   3.173  18.112  0.00  0.00    +0.000 C 
ATOM      6  C   UNL     1       3.162   2.593  18.423  0.00  0.00    +0.000 C 
ATOM      7  C   UNL     1       3.672   3.139  19.765  0.00  0.00    +0.000 C 
ATOM      8  C   UNL     1       2.689   2.756  20.882  0.00  0.00    +0.000 C 
ATOM      9  C   UNL     1       1.298   3.337  20.582  0.00  0.00    +0.000 C 
ATOM     10  C   UNL     1       0.800   2.781  19.237  0.00  0.00    +0.000 C 
ATOM     11  C   UNL     1       1.396   4.870  20.495  0.00  0.00    +0.000 C 
ATOM     12  C   UNL     1       3.762   4.673  19.681  0.00  0.00    +0.000 C 
ENDBRANCH   1   3
BRANCH   1  13
ATOM     13  C   UNL     1       1.830   7.658  20.442  0.00  0.00    +0.000 C 
BRANCH  13  14
ATOM     14  S   UNL     1       1.261   9.275  19.832  0.00  0.00    +0.000 S 
BRANCH  14  19
ATOM     15  C   UNL     1      -2.033  12.176  23.205  0.00  0.00    +0.000 C 
ATOM     16  C   UNL     1      -1.022  11.264  22.604  0.00  0.00    +0.000 A 
ATOM     17  N   UNL     1      -0.205  10.475  23.275  0.00  0.00    +0.000 NA
ATOM     18  N   UNL     1       0.631   9.739  22.438  0.00  0.00    +0.000 NA
ATOM     19  C   UNL     1       0.409  10.002  21.170  0.00  0.00    +0.000 A 
ATOM     20  S   UNL     1      -0.833  11.165  20.900  0.00  0.00    +0.000 S 
ENDBRANCH  14  19
ENDBRANCH  13  14
ENDBRANCH   1  13
TORSDOF 4
ENDMDL
