MODEL 1
REMARK VINA RESULT:      -6.9      0.000      0.000
REMARK  Name = 
REMARK  6 active torsions:
REMARK  status: ('A' for Active; 'I' for Inactive)
REMARK    1  A    between atoms: C_1  and  C_2
REMARK    2  A    between atoms: C_2  and  C_3
REMARK    3  A    between atoms: C_8  and  N_9
REMARK    4  A    between atoms: C_10  and  C_12
REMARK    5  A    between atoms: C_15  and  S_16
REMARK    6  A    between atoms: S_16  and  N_17
REMARK                            x       y       z     vdW  Elec       q    Type
REMARK                         _______ _______ _______ _____ _____    ______ ____
ROOT
ATOM      1  N   UNL     1       4.733   4.159  17.887  0.00  0.00    +0.000 N 
ATOM      2  C   UNL     1       6.071   4.345  17.585  0.00  0.00    +0.000 C 
ATOM      3  O   UNL     1       6.956   4.379  18.428  0.00  0.00    +0.000 OA
ATOM      4  H   UNL     1       4.053   4.229  17.146  0.00  0.00    +0.000 HD
ENDROOT
BRANCH   1  12
ATOM      5  C   UNL     1       2.899   2.516  20.843  0.00  0.00    +0.000 C 
ATOM      6  C   UNL     1       3.141   2.866  19.355  0.00  0.00    +0.000 C 
ATOM      7  C   UNL     1       3.571   1.551  18.672  0.00  0.00    +0.000 C 
ATOM      8  C   UNL     1       1.826   3.345  18.693  0.00  0.00    +0.000 C 
ATOM      9  C   UNL     1       1.318   4.673  19.247  0.00  0.00    +0.000 C 
ATOM     10  C   UNL     1       2.386   5.760  19.190  0.00  0.00    +0.000 C 
ATOM     11  C   UNL     1       3.712   5.323  19.815  0.00  0.00    +0.000 C 
ATOM     12  C   UNL     1       4.235   3.983  19.254  0.00  0.00    +0.000 C 
ENDBRANCH   1  12
BRANCH   2  13
ATOM     13  C   UNL     1       6.356   4.470  16.159  0.00  0.00    +0.000 A 
ATOM     14  C   UNL     1       7.396   5.203  15.613  0.00  0.00    +0.000 A 
ATOM     15  O   UNL     1       7.445   5.060  14.262  0.00  0.00    +0.000 OA
ATOM     16  C   UNL     1       6.426   4.213  13.892  0.00  0.00    +0.000 A 
ATOM     17  C   UNL     1       5.712   3.877  15.036  0.00  0.00    +0.000 A 
BRANCH  16  18
ATOM     18  S   UNL     1       6.192   3.677  12.198  0.00  0.00    +0.000 S 
ATOM     19  O   UNL     1       4.766   3.736  11.993  0.00  0.00    +0.000 OA
ATOM     20  O   UNL     1       7.138   4.450  11.430  0.00  0.00    +0.000 OA
BRANCH  18  21
ATOM     21  N   UNL     1       6.655   2.065  12.122  0.00  0.00    +0.000 NA
ATOM     22  H   UNL     1       6.330   1.623  11.263  0.00  0.00    +0.000 HD
ATOM     23  H   UNL     1       6.407   1.562  12.971  0.00  0.00    +0.000 HD
ENDBRANCH  18  21
ENDBRANCH  16  18
ENDBRANCH   2  13
TORSDOF 4
ENDMDL
MODEL 2
REMARK VINA RESULT:      -6.9      0.932      1.215
REMARK  Name = 
REMARK  6 active torsions:
REMARK  status: ('A' for Active; 'I' for Inactive)
REMARK    1  A    between atoms: C_1  and  C_2
REMARK    2  A    between atoms: C_2  and  C_3
REMARK    3  A    between atoms: C_8  and  N_9
REMARK    4  A    between atoms: C_10  and  C_12
REMARK    5  A    between atoms: C_15  and  S_16
REMARK    6  A    between atoms: S_16  and  N_17
REMARK                            x       y       z     vdW  Elec       q    Type
REMARK                         _______ _______ _______ _____ _____    ______ ____
ROOT
ATOM      1  N   UNL     1       4.169   4.086  17.837  0.00  0.00    +0.000 N 
ATOM      2  C   UNL     1       5.163   4.992  17.508  0.00  0.00    +0.000 C 
ATOM      3  O   UNL     1       5.512   5.908  18.240  0.00  0.00    +0.000 OA
ATOM      4  H   UNL     1       3.878   3.412  17.147  0.00  0.00    +0.000 HD
ENDROOT
BRANCH   1  12
ATOM      5  C   UNL     1       2.767   2.870  21.208  0.00  0.00    +0.000 C 
ATOM      6  C   UNL     1       3.263   2.714  19.749  0.00  0.00    +0.000 C 
ATOM      7  C   UNL     1       4.596   1.941  19.833  0.00  0.00    +0.000 C 
ATOM      8  C   UNL     1       2.263   1.864  18.929  0.00  0.00    +0.000 C 
ATOM      9  C   UNL     1       0.913   2.545  18.727  0.00  0.00    +0.000 C 
ATOM     10  C   UNL     1       1.060   3.941  18.131  0.00  0.00    +0.000 C 
ATOM     11  C   UNL     1       2.057   4.811  18.900  0.00  0.00    +0.000 C 
ATOM     12  C   UNL     1       3.428   4.131  19.101  0.00  0.00    +0.000 C 
ENDBRANCH   1  12
BRANCH   2  13
ATOM     13  C   UNL     1       5.795   4.752  16.215  0.00  0.00    +0.000 A 
ATOM     14  C   UNL     1       7.159   4.701  15.989  0.00  0.00    +0.000 A 
ATOM     15  O   UNL     1       7.435   4.382  14.697  0.00  0.00    +0.000 OA
ATOM     16  C   UNL     1       6.237   4.211  14.041  0.00  0.00    +0.000 A 
ATOM     17  C   UNL     1       5.214   4.481  14.943  0.00  0.00    +0.000 A 
BRANCH  16  18
ATOM     18  S   UNL     1       6.146   3.685  12.331  0.00  0.00    +0.000 S 
ATOM     19  O   UNL     1       4.761   3.861  11.971  0.00  0.00    +0.000 OA
ATOM     20  O   UNL     1       7.233   4.371  11.674  0.00  0.00    +0.000 OA
BRANCH  18  21
ATOM     21  N   UNL     1       6.478   2.039  12.302  0.00  0.00    +0.000 NA
ATOM     22  H   UNL     1       6.382   1.655  11.363  0.00  0.00    +0.000 HD
ATOM     23  H   UNL     1       5.953   1.537  13.015  0.00  0.00    +0.000 HD
ENDBRANCH  18  21
ENDBRANCH  16  18
ENDBRANCH   2  13
TORSDOF 4
ENDMDL
MODEL 3
REMARK VINA RESULT:      -6.6      5.917      8.383
REMARK  Name = 
REMARK  6 active torsions:
REMARK  status: ('A' for Active; 'I' for Inactive)
REMARK    1  A    between atoms: C_1  and  C_2
REMARK    2  A    between atoms: C_2  and  C_3
REMARK    3  A    between atoms: C_8  and  N_9
REMARK    4  A    between atoms: C_10  and  C_12
REMARK    5  A    between atoms: C_15  and  S_16
REMARK    6  A    between atoms: S_16  and  N_17
REMARK                            x       y       z     vdW  Elec       q    Type
REMARK                         _______ _______ _______ _____ _____    ______ ____
ROOT
ATOM      1  N   UNL     1       2.714   6.705  18.627  0.00  0.00    +0.000 N 
ATOM      2  C   UNL     1       2.342   7.985  18.252  0.00  0.00    +0.000 C 
ATOM      3  O   UNL     1       2.519   8.438  17.130  0.00  0.00    +0.000 OA
ATOM      4  H   UNL     1       2.612   6.432  19.591  0.00  0.00    +0.000 HD
ENDROOT
BRANCH   1  12
ATOM      5  C   UNL     1       3.398   3.380  16.816  0.00  0.00    +0.000 C 
ATOM      6  C   UNL     1       2.941   4.274  17.994  0.00  0.00    +0.000 C 
ATOM      7  C   UNL     1       1.410   4.100  18.091  0.00  0.00    +0.000 C 
ATOM      8  C   UNL     1       3.568   3.780  19.320  0.00  0.00    +0.000 C 
ATOM      9  C   UNL     1       5.084   3.948  19.372  0.00  0.00    +0.000 C 
ATOM     10  C   UNL     1       5.510   5.380  19.066  0.00  0.00    +0.000 C 
ATOM     11  C   UNL     1       4.896   5.918  17.771  0.00  0.00    +0.000 C 
ATOM     12  C   UNL     1       3.361   5.758  17.715  0.00  0.00    +0.000 C 
ENDBRANCH   1  12
BRANCH   2  13
ATOM     13  C   UNL     1       1.684   8.754  19.302  0.00  0.00    +0.000 A 
ATOM     14  C   UNL     1       1.070   9.982  19.128  0.00  0.00    +0.000 A 
ATOM     15  O   UNL     1       0.481  10.408  20.277  0.00  0.00    +0.000 OA
ATOM     16  C   UNL     1       0.697   9.449  21.240  0.00  0.00    +0.000 A 
ATOM     17  C   UNL     1       1.477   8.445  20.677  0.00  0.00    +0.000 A 
BRANCH  16  18
ATOM     18  S   UNL     1       0.001   9.569  22.887  0.00  0.00    +0.000 S 
ATOM     19  O   UNL     1      -1.077   8.611  22.896  0.00  0.00    +0.000 OA
ATOM     20  O   UNL     1       1.136   9.498  23.776  0.00  0.00    +0.000 OA
BRANCH  18  21
ATOM     21  N   UNL     1      -0.673  11.101  23.028  0.00  0.00    +0.000 NA
ATOM     22  H   UNL     1      -1.270  11.321  22.232  0.00  0.00    +0.000 HD
ATOM     23  H   UNL     1       0.034  11.806  23.227  0.00  0.00    +0.000 HD
ENDBRANCH  18  21
ENDBRANCH  16  18
ENDBRANCH   2  13
TORSDOF 4
ENDMDL
MODEL 4
REMARK VINA RESULT:      -6.6      5.039      6.693
REMARK  Name = 
REMARK  6 active torsions:
REMARK  status: ('A' for Active; 'I' for Inactive)
REMARK    1  A    between atoms: C_1  and  C_2
REMARK    2  A    between atoms: C_2  and  C_3
REMARK    3  A    between atoms: C_8  and  N_9
REMARK    4  A    between atoms: C_10  and  C_12
REMARK    5  A    between atoms: C_15  and  S_16
REMARK    6  A    between atoms: S_16  and  N_17
REMARK                            x       y       z     vdW  Elec       q    Type
REMARK                         _______ _______ _______ _____ _____    ______ ____
ROOT
ATOM      1  N   UNL     1       2.664   5.276  19.223  0.00  0.00    +0.000 N 
ATOM      2  C   UNL     1       3.463   6.280  18.702  0.00  0.00    +0.000 C 
ATOM      3  O   UNL     1       4.640   6.123  18.411  0.00  0.00    +0.000 OA
ATOM      4  H   UNL     1       1.728   5.504  19.518  0.00  0.00    +0.000 HD
ENDROOT
BRANCH   1  12
ATOM      5  C   UNL     1       3.492   1.582  18.535  0.00  0.00    +0.000 C 
ATOM      6  C   UNL     1       2.695   2.900  18.378  0.00  0.00    +0.000 C 
ATOM      7  C   UNL     1       2.984   3.406  16.949  0.00  0.00    +0.000 C 
ATOM      8  C   UNL     1       1.175   2.627  18.494  0.00  0.00    +0.000 C 
ATOM      9  C   UNL     1       0.747   2.168  19.885  0.00  0.00    +0.000 C 
ATOM     10  C   UNL     1       1.214   3.129  20.973  0.00  0.00    +0.000 C 
ATOM     11  C   UNL     1       2.709   3.444  20.884  0.00  0.00    +0.000 C 
ATOM     12  C   UNL     1       3.148   3.917  19.481  0.00  0.00    +0.000 C 
ENDBRANCH   1  12
BRANCH   2  13
ATOM     13  C   UNL     1       2.778   7.550  18.495  0.00  0.00    +0.000 A 
ATOM     14  C   UNL     1       2.908   8.356  17.377  0.00  0.00    +0.000 A 
ATOM     15  O   UNL     1       2.082   9.434  17.445  0.00  0.00    +0.000 OA
ATOM     16  C   UNL     1       1.380   9.351  18.626  0.00  0.00    +0.000 A 
ATOM     17  C   UNL     1       1.826   8.227  19.311  0.00  0.00    +0.000 A 
BRANCH  16  18
ATOM     18  S   UNL     1       0.104  10.529  19.067  0.00  0.00    +0.000 S 
ATOM     19  O   UNL     1      -0.620   9.894  20.140  0.00  0.00    +0.000 OA
ATOM     20  O   UNL     1       0.794  11.788  19.210  0.00  0.00    +0.000 OA
BRANCH  18  21
ATOM     21  N   UNL     1      -0.932  10.651  17.751  0.00  0.00    +0.000 NA
ATOM     22  H   UNL     1      -0.451  11.018  16.930  0.00  0.00    +0.000 HD
ATOM     23  H   UNL     1      -1.788  11.148  17.990  0.00  0.00    +0.000 HD
ENDBRANCH  18  21
ENDBRANCH  16  18
ENDBRANCH   2  13
TORSDOF 4
ENDMDL
MODEL 5
REMARK VINA RESULT:      -6.6      5.670      7.703
REMARK  Name = 
REMARK  6 active torsions:
REMARK  status: ('A' for Active; 'I' for Inactive)
REMARK    1  A    between atoms: C_1  and  C_2
REMARK    2  A    between atoms: C_2  and  C_3
REMARK    3  A    between atoms: C_8  and  N_9
REMARK    4  A    between atoms: C_10  and  C_12
REMARK    5  A    between atoms: C_15  and  S_16
REMARK    6  A    between atoms: S_16  and  N_17
REMARK                            x       y       z     vdW  Elec       q    Type
REMARK                         _______ _______ _______ _____ _____    ______ ____
ROOT
ATOM      1  N   UNL     1       2.356   5.866  19.411  0.00  0.00    +0.000 N 
ATOM      2  C   UNL     1       2.757   6.927  18.617  0.00  0.00    +0.000 C 
ATOM      3  O   UNL     1       3.603   6.833  17.740  0.00  0.00    +0.000 OA
ATOM      4  H   UNL     1       1.716   6.041  20.169  0.00  0.00    +0.000 HD
ENDROOT
BRANCH   1  12
ATOM      5  C   UNL     1       2.630   2.210  18.245  0.00  0.00    +0.000 C 
ATOM      6  C   UNL     1       1.890   3.510  18.642  0.00  0.00    +0.000 C 
ATOM      7  C   UNL     1       1.258   4.053  17.343  0.00  0.00    +0.000 C 
ATOM      8  C   UNL     1       0.748   3.197  19.639  0.00  0.00    +0.000 C 
ATOM      9  C   UNL     1       1.246   2.697  20.992  0.00  0.00    +0.000 C 
ATOM     10  C   UNL     1       2.267   3.647  21.610  0.00  0.00    +0.000 C 
ATOM     11  C   UNL     1       3.405   4.001  20.651  0.00  0.00    +0.000 C 
ATOM     12  C   UNL     1       2.908   4.514  19.282  0.00  0.00    +0.000 C 
ENDBRANCH   1  12
BRANCH   2  13
ATOM     13  C   UNL     1       2.061   8.180  18.889  0.00  0.00    +0.000 A 
ATOM     14  C   UNL     1       1.818   9.177  17.960  0.00  0.00    +0.000 A 
ATOM     15  O   UNL     1       1.081  10.185  18.498  0.00  0.00    +0.000 OA
ATOM     16  C   UNL     1       0.818   9.860  19.809  0.00  0.00    +0.000 A 
ATOM     17  C   UNL     1       1.452   8.655  20.086  0.00  0.00    +0.000 A 
BRANCH  16  18
ATOM     18  S   UNL     1      -0.216  10.878  20.862  0.00  0.00    +0.000 S 
ATOM     19  O   UNL     1      -1.198  11.441  19.969  0.00  0.00    +0.000 OA
ATOM     20  O   UNL     1      -0.550  10.032  21.982  0.00  0.00    +0.000 OA
BRANCH  18  21
ATOM     21  N   UNL     1       0.744  12.135  21.428  0.00  0.00    +0.000 NA
ATOM     22  H   UNL     1       0.209  12.996  21.530  0.00  0.00    +0.000 HD
ATOM     23  H   UNL     1       1.595  12.234  20.880  0.00  0.00    +0.000 HD
ENDBRANCH  18  21
ENDBRANCH  16  18
ENDBRANCH   2  13
TORSDOF 4
ENDMDL
MODEL 6
REMARK VINA RESULT:      -6.5      6.203      8.529
REMARK  Name = 
REMARK  6 active torsions:
REMARK  status: ('A' for Active; 'I' for Inactive)
REMARK    1  A    between atoms: C_1  and  C_2
REMARK    2  A    between atoms: C_2  and  C_3
REMARK    3  A    between atoms: C_8  and  N_9
REMARK    4  A    between atoms: C_10  and  C_12
REMARK    5  A    between atoms: C_15  and  S_16
REMARK    6  A    between atoms: S_16  and  N_17
REMARK                            x       y       z     vdW  Elec       q    Type
REMARK                         _______ _______ _______ _____ _____    ______ ____
ROOT
ATOM      1  N   UNL     1       2.689   6.712  18.772  0.00  0.00    +0.000 N 
ATOM      2  C   UNL     1       2.271   8.008  18.519  0.00  0.00    +0.000 C 
ATOM      3  O   UNL     1       2.459   8.583  17.456  0.00  0.00    +0.000 OA
ATOM      4  H   UNL     1       2.573   6.337  19.700  0.00  0.00    +0.000 HD
ENDROOT
BRANCH   1  12
ATOM      5  C   UNL     1       3.550   3.637  16.626  0.00  0.00    +0.000 C 
ATOM      6  C   UNL     1       3.015   4.378  17.876  0.00  0.00    +0.000 C 
ATOM      7  C   UNL     1       1.487   4.157  17.881  0.00  0.00    +0.000 C 
ATOM      8  C   UNL     1       3.597   3.748  19.165  0.00  0.00    +0.000 C 
ATOM      9  C   UNL     1       5.103   3.945  19.308  0.00  0.00    +0.000 C 
ATOM     10  C   UNL     1       5.501   5.412  19.188  0.00  0.00    +0.000 C 
ATOM     11  C   UNL     1       4.929   6.082  17.936  0.00  0.00    +0.000 C 
ATOM     12  C   UNL     1       3.404   5.893  17.790  0.00  0.00    +0.000 C 
ENDBRANCH   1  12
BRANCH   2  13
ATOM     13  C   UNL     1       1.550   8.636  19.621  0.00  0.00    +0.000 A 
ATOM     14  C   UNL     1       1.428   8.113  20.897  0.00  0.00    +0.000 A 
ATOM     15  O   UNL     1       0.765   8.968  21.720  0.00  0.00    +0.000 OA
ATOM     16  C   UNL     1       0.439  10.088  20.989  0.00  0.00    +0.000 A 
ATOM     17  C   UNL     1       0.869   9.885  19.683  0.00  0.00    +0.000 A 
BRANCH  16  18
ATOM     18  S   UNL     1      -0.362  11.513  21.722  0.00  0.00    +0.000 S 
ATOM     19  O   UNL     1      -1.504  11.761  20.878  0.00  0.00    +0.000 OA
ATOM     20  O   UNL     1      -0.463  11.199  23.127  0.00  0.00    +0.000 OA
BRANCH  18  21
ATOM     21  N   UNL     1       0.691  12.811  21.555  0.00  0.00    +0.000 NA
ATOM     22  H   UNL     1       0.241  13.600  21.094  0.00  0.00    +0.000 HD
ATOM     23  H   UNL     1       1.573  12.528  21.134  0.00  0.00    +0.000 HD
ENDBRANCH  18  21
ENDBRANCH  16  18
ENDBRANCH   2  13
TORSDOF 4
ENDMDL
MODEL 7
REMARK VINA RESULT:      -6.5      6.174      8.512
REMARK  Name = 
REMARK  6 active torsions:
REMARK  status: ('A' for Active; 'I' for Inactive)
REMARK    1  A    between atoms: C_1  and  C_2
REMARK    2  A    between atoms: C_2  and  C_3
REMARK    3  A    between atoms: C_8  and  N_9
REMARK    4  A    between atoms: C_10  and  C_12
REMARK    5  A    between atoms: C_15  and  S_16
REMARK    6  A    between atoms: S_16  and  N_17
REMARK                            x       y       z     vdW  Elec       q    Type
REMARK                         _______ _______ _______ _____ _____    ______ ____
ROOT
ATOM      1  N   UNL     1       2.635   6.682  18.734  0.00  0.00    +0.000 N 
ATOM      2  C   UNL     1       2.276   7.992  18.468  0.00  0.00    +0.000 C 
ATOM      3  O   UNL     1       2.507   8.553  17.406  0.00  0.00    +0.000 OA
ATOM      4  H   UNL     1       2.487   6.317  19.661  0.00  0.00    +0.000 HD
ENDROOT
BRANCH   1  12
ATOM      5  C   UNL     1       3.446   3.541  16.665  0.00  0.00    +0.000 C 
ATOM      6  C   UNL     1       2.929   4.321  17.898  0.00  0.00    +0.000 C 
ATOM      7  C   UNL     1       1.399   4.117  17.920  0.00  0.00    +0.000 C 
ATOM      8  C   UNL     1       3.513   3.719  19.199  0.00  0.00    +0.000 C 
ATOM      9  C   UNL     1       5.023   3.903  19.326  0.00  0.00    +0.000 C 
ATOM     10  C   UNL     1       5.436   5.362  19.165  0.00  0.00    +0.000 C 
ATOM     11  C   UNL     1       4.862   6.004  17.900  0.00  0.00    +0.000 C 
ATOM     12  C   UNL     1       3.334   5.829  17.769  0.00  0.00    +0.000 C 
ENDBRANCH   1  12
BRANCH   2  13
ATOM     13  C   UNL     1       1.562   8.655  19.553  0.00  0.00    +0.000 A 
ATOM     14  C   UNL     1       1.431   8.164  20.841  0.00  0.00    +0.000 A 
ATOM     15  O   UNL     1       0.778   9.046  21.643  0.00  0.00    +0.000 OA
ATOM     16  C   UNL     1       0.467  10.152  20.885  0.00  0.00    +0.000 A 
ATOM     17  C   UNL     1       0.896   9.914  19.584  0.00  0.00    +0.000 A 
BRANCH  16  18
ATOM     18  S   UNL     1      -0.317  11.605  21.583  0.00  0.00    +0.000 S 
ATOM     19  O   UNL     1       0.730  12.596  21.627  0.00  0.00    +0.000 OA
ATOM     20  O   UNL     1      -1.536  11.767  20.828  0.00  0.00    +0.000 OA
BRANCH  18  21
ATOM     21  N   UNL     1      -0.733  11.228  23.166  0.00  0.00    +0.000 NA
ATOM     22  H   UNL     1      -1.335  11.942  23.574  0.00  0.00    +0.000 HD
ATOM     23  H   UNL     1       0.086  11.001  23.727  0.00  0.00    +0.000 HD
ENDBRANCH  18  21
ENDBRANCH  16  18
ENDBRANCH   2  13
TORSDOF 4
ENDMDL
MODEL 8
REMARK VINA RESULT:      -6.4      5.085      6.804
REMARK  Name = 
REMARK  6 active torsions:
REMARK  status: ('A' for Active; 'I' for Inactive)
REMARK    1  A    between atoms: C_1  and  C_2
REMARK    2  A    between atoms: C_2  and  C_3
REMARK    3  A    between atoms: C_8  and  N_9
REMARK    4  A    between atoms: C_10  and  C_12
REMARK    5  A    between atoms: C_15  and  S_16
REMARK    6  A    between atoms: S_16  and  N_17
REMARK                            x       y       z     vdW  Elec       q    Type
REMARK                         _______ _______ _______ _____ _____    ______ ____
ROOT
ATOM      1  N   UNL     1       2.638   5.292  19.230  0.00  0.00    +0.000 N 
ATOM      2  C   UNL     1       3.424   6.307  18.711  0.00  0.00    +0.000 C 
ATOM      3  O   UNL     1       4.598   6.162  18.403  0.00  0.00    +0.000 OA
ATOM      4  H   UNL     1       1.704   5.511  19.539  0.00  0.00    +0.000 HD
ENDROOT
BRANCH   1  12
ATOM      5  C   UNL     1       3.462   1.606  18.499  0.00  0.00    +0.000 C 
ATOM      6  C   UNL     1       2.656   2.921  18.371  0.00  0.00    +0.000 C 
ATOM      7  C   UNL     1       2.905   3.436  16.938  0.00  0.00    +0.000 C 
ATOM      8  C   UNL     1       1.141   2.641  18.526  0.00  0.00    +0.000 C 
ATOM      9  C   UNL     1       0.753   2.172  19.925  0.00  0.00    +0.000 C 
ATOM     10  C   UNL     1       1.244   3.129  21.005  0.00  0.00    +0.000 C 
ATOM     11  C   UNL     1       2.735   3.452  20.878  0.00  0.00    +0.000 C 
ATOM     12  C   UNL     1       3.134   3.934  19.467  0.00  0.00    +0.000 C 
ENDBRANCH   1  12
BRANCH   2  13
ATOM     13  C   UNL     1       2.727   7.575  18.526  0.00  0.00    +0.000 A 
ATOM     14  C   UNL     1       2.824   8.385  17.408  0.00  0.00    +0.000 A 
ATOM     15  O   UNL     1       1.995   9.459  17.501  0.00  0.00    +0.000 OA
ATOM     16  C   UNL     1       1.325   9.369  18.699  0.00  0.00    +0.000 A 
ATOM     17  C   UNL     1       1.794   8.245  19.369  0.00  0.00    +0.000 A 
BRANCH  16  18
ATOM     18  S   UNL     1       0.055  10.540  19.178  0.00  0.00    +0.000 S 
ATOM     19  O   UNL     1       0.726  11.815  19.196  0.00  0.00    +0.000 OA
ATOM     20  O   UNL     1      -1.066  10.242  18.320  0.00  0.00    +0.000 OA
BRANCH  18  21
ATOM     21  N   UNL     1      -0.387  10.170  20.756  0.00  0.00    +0.000 NA
ATOM     22  H   UNL     1      -1.224  10.679  21.038  0.00  0.00    +0.000 HD
ATOM     23  H   UNL     1       0.397  10.266  21.398  0.00  0.00    +0.000 HD
ENDBRANCH  18  21
ENDBRANCH  16  18
ENDBRANCH   2  13
TORSDOF 4
ENDMDL
MODEL 9
REMARK VINA RESULT:      -6.4      4.932      7.297
REMARK  Name = 
REMARK  6 active torsions:
REMARK  status: ('A' for Active; 'I' for Inactive)
REMARK    1  A    between atoms: C_1  and  C_2
REMARK    2  A    between atoms: C_2  and  C_3
REMARK    3  A    between atoms: C_8  and  N_9
REMARK    4  A    between atoms: C_10  and  C_12
REMARK    5  A    between atoms: C_15  and  S_16
REMARK    6  A    between atoms: S_16  and  N_17
REMARK                            x       y       z     vdW  Elec       q    Type
REMARK                         _______ _______ _______ _____ _____    ______ ____
ROOT
ATOM      1  N   UNL     1       4.330   6.035  18.629  0.00  0.00    +0.000 N 
ATOM      2  C   UNL     1       3.293   5.876  19.533  0.00  0.00    +0.000 C 
ATOM      3  O   UNL     1       3.128   4.865  20.201  0.00  0.00    +0.000 OA
ATOM      4  H   UNL     1       4.351   6.862  18.055  0.00  0.00    +0.000 HD
ENDROOT
BRANCH   1  12
ATOM      5  C   UNL     1       7.654   4.494  17.456  0.00  0.00    +0.000 C 
ATOM      6  C   UNL     1       6.479   5.500  17.422  0.00  0.00    +0.000 C 
ATOM      7  C   UNL     1       7.068   6.859  17.859  0.00  0.00    +0.000 C 
ATOM      8  C   UNL     1       5.940   5.651  15.979  0.00  0.00    +0.000 C 
ATOM      9  C   UNL     1       5.280   4.383  15.445  0.00  0.00    +0.000 C 
ATOM     10  C   UNL     1       4.194   3.866  16.382  0.00  0.00    +0.000 C 
ATOM     11  C   UNL     1       4.677   3.722  17.827  0.00  0.00    +0.000 C 
ATOM     12  C   UNL     1       5.340   5.004  18.377  0.00  0.00    +0.000 C 
ENDBRANCH   1  12
BRANCH   2  13
ATOM     13  C   UNL     1       2.416   7.035  19.655  0.00  0.00    +0.000 A 
ATOM     14  C   UNL     1       1.669   7.358  20.775  0.00  0.00    +0.000 A 
ATOM     15  O   UNL     1       1.014   8.538  20.609  0.00  0.00    +0.000 OA
ATOM     16  C   UNL     1       1.329   9.021  19.359  0.00  0.00    +0.000 A 
ATOM     17  C   UNL     1       2.150   8.090  18.735  0.00  0.00    +0.000 A 
BRANCH  16  18
ATOM     18  S   UNL     1       0.750  10.612  18.772  0.00  0.00    +0.000 S 
ATOM     19  O   UNL     1      -0.390  10.301  17.946  0.00  0.00    +0.000 OA
ATOM     20  O   UNL     1       0.675  11.438  19.953  0.00  0.00    +0.000 OA
BRANCH  18  21
ATOM     21  N   UNL     1       1.950  11.237  17.777  0.00  0.00    +0.000 NA
ATOM     22  H   UNL     1       2.604  11.817  18.300  0.00  0.00    +0.000 HD
ATOM     23  H   UNL     1       1.558  11.688  16.953  0.00  0.00    +0.000 HD
ENDBRANCH  18  21
ENDBRANCH  16  18
ENDBRANCH   2  13
TORSDOF 4
ENDMDL
