MODEL 1
REMARK VINA RESULT:      -8.3      0.000      0.000
REMARK  Name = 
REMARK  7 active torsions:
REMARK  status: ('A' for Active; 'I' for Inactive)
REMARK    1  A    between atoms: C_1  and  C_2
REMARK    2  A    between atoms: C_2  and  C_3
REMARK    3  A    between atoms: C_4  and  C_5
REMARK    4  A    between atoms: N_11  and  N_12
REMARK    5  A    between atoms: N_12  and  C_13
REMARK    6  A    between atoms: C_16  and  N_17
REMARK    7  A    between atoms: C_21  and  N_22
REMARK                            x       y       z     vdW  Elec       q    Type
REMARK                         _______ _______ _______ _____ _____    ______ ____
ROOT
ATOM      1  N   UNL     1       4.770   4.509  19.366  0.00  0.00    +0.000 N 
ATOM      2  H   UNL     1       5.367   4.077  20.080  0.00  0.00    +0.000 HD
ENDROOT
BRANCH   1   3
ATOM      3  C   UNL     1       5.370   4.598  18.084  0.00  0.00    +0.000 A 
ATOM      4  C   UNL     1       4.707   4.022  16.981  0.00  0.00    +0.000 A 
ATOM      5  C   UNL     1       5.238   4.067  15.689  0.00  0.00    +0.000 A 
ATOM      6  C   UNL     1       6.464   4.698  15.472  0.00  0.00    +0.000 A 
ATOM      7  C   UNL     1       7.171   5.259  16.543  0.00  0.00    +0.000 A 
ATOM      8  C   UNL     1       6.628   5.196  17.844  0.00  0.00    +0.000 A 
BRANCH   6   9
ATOM      9  N   UNL     1       7.008   4.778  14.110  0.00  0.00    +0.000 N 
ATOM     10  O   UNL     1       7.924   5.585  13.902  0.00  0.00    +0.000 OA
ATOM     11  O   UNL     1       6.518   4.031  13.252  0.00  0.00    +0.000 OA
ENDBRANCH   6   9
BRANCH   8  12
ATOM     12  N   UNL     1       7.409   5.801  18.938  0.00  0.00    +0.000 N 
ATOM     13  O   UNL     1       8.051   6.837  18.698  0.00  0.00    +0.000 OA
ATOM     14  O   UNL     1       7.383   5.240  20.040  0.00  0.00    +0.000 OA
ENDBRANCH   8  12
ENDBRANCH   1   3
BRANCH   1  17
ATOM     15  C   UNL     1       2.229   3.781  20.247  0.00  0.00    +0.000 C 
ATOM     16  C   UNL     1       2.730   5.206  20.149  0.00  0.00    +0.000 C 
ATOM     17  N   UNL     1       3.926   5.515  19.724  0.00  0.00    +0.000 NA
BRANCH  16  18
ATOM     18  C   UNL     1       1.846   6.354  20.524  0.00  0.00    +0.000 C 
ATOM     19  C   UNL     1       1.984   7.635  20.151  0.00  0.00    +0.000 C 
BRANCH  19  20
ATOM     20  C   UNL     1       1.085   8.706  20.616  0.00  0.00    +0.000 A 
ATOM     21  C   UNL     1       0.691   8.813  21.958  0.00  0.00    +0.000 A 
ATOM     22  C   UNL     1      -0.155   9.844  22.375  0.00  0.00    +0.000 A 
ATOM     23  C   UNL     1      -0.603  10.792  21.458  0.00  0.00    +0.000 A 
ATOM     24  C   UNL     1      -0.193  10.718  20.128  0.00  0.00    +0.000 A 
ATOM     25  C   UNL     1       0.652   9.684  19.711  0.00  0.00    +0.000 A 
ENDBRANCH  19  20
ENDBRANCH  16  18
ENDBRANCH   1  17
TORSDOF 6
ENDMDL
MODEL 2
REMARK VINA RESULT:      -8.3      0.089      1.332
REMARK  Name = 
REMARK  7 active torsions:
REMARK  status: ('A' for Active; 'I' for Inactive)
REMARK    1  A    between atoms: C_1  and  C_2
REMARK    2  A    between atoms: C_2  and  C_3
REMARK    3  A    between atoms: C_4  and  C_5
REMARK    4  A    between atoms: N_11  and  N_12
REMARK    5  A    between atoms: N_12  and  C_13
REMARK    6  A    between atoms: C_16  and  N_17
REMARK    7  A    between atoms: C_21  and  N_22
REMARK                            x       y       z     vdW  Elec       q    Type
REMARK                         _______ _______ _______ _____ _____    ______ ____
ROOT
ATOM      1  N   UNL     1       4.693   4.433  19.337  0.00  0.00    +0.000 N 
ATOM      2  H   UNL     1       5.261   3.946  20.041  0.00  0.00    +0.000 HD
ENDROOT
BRANCH   1   3
ATOM      3  C   UNL     1       5.311   4.543  18.066  0.00  0.00    +0.000 A 
ATOM      4  C   UNL     1       4.660   3.989  16.944  0.00  0.00    +0.000 A 
ATOM      5  C   UNL     1       5.210   4.055  15.660  0.00  0.00    +0.000 A 
ATOM      6  C   UNL     1       6.441   4.686  15.471  0.00  0.00    +0.000 A 
ATOM      7  C   UNL     1       7.136   5.224  16.562  0.00  0.00    +0.000 A 
ATOM      8  C   UNL     1       6.574   5.139  17.854  0.00  0.00    +0.000 A 
BRANCH   6   9
ATOM      9  N   UNL     1       7.004   4.788  14.118  0.00  0.00    +0.000 N 
ATOM     10  O   UNL     1       6.531   4.054  13.241  0.00  0.00    +0.000 OA
ATOM     11  O   UNL     1       7.917   5.605  13.938  0.00  0.00    +0.000 OA
ENDBRANCH   6   9
BRANCH   8  12
ATOM     12  N   UNL     1       7.342   5.721  18.970  0.00  0.00    +0.000 N 
ATOM     13  O   UNL     1       7.285   5.161  20.077  0.00  0.00    +0.000 OA
ATOM     14  O   UNL     1       8.005   6.740  18.740  0.00  0.00    +0.000 OA
ENDBRANCH   8  12
ENDBRANCH   1   3
BRANCH   1  17
ATOM     15  C   UNL     1       2.124   3.787  20.203  0.00  0.00    +0.000 C 
ATOM     16  C   UNL     1       2.684   5.192  20.145  0.00  0.00    +0.000 C 
ATOM     17  N   UNL     1       3.892   5.463  19.726  0.00  0.00    +0.000 NA
BRANCH  16  18
ATOM     18  C   UNL     1       1.850   6.365  20.555  0.00  0.00    +0.000 C 
ATOM     19  C   UNL     1       1.948   7.624  20.103  0.00  0.00    +0.000 C 
BRANCH  19  20
ATOM     20  C   UNL     1       1.109   8.725  20.607  0.00  0.00    +0.000 A 
ATOM     21  C   UNL     1       0.615   9.727  19.760  0.00  0.00    +0.000 A 
ATOM     22  C   UNL     1      -0.188  10.756  20.262  0.00  0.00    +0.000 A 
ATOM     23  C   UNL     1      -0.521  10.783  21.614  0.00  0.00    +0.000 A 
ATOM     24  C   UNL     1      -0.066   9.774  22.461  0.00  0.00    +0.000 A 
ATOM     25  C   UNL     1       0.739   8.747  21.958  0.00  0.00    +0.000 A 
ENDBRANCH  19  20
ENDBRANCH  16  18
ENDBRANCH   1  17
TORSDOF 6
ENDMDL
MODEL 3
REMARK VINA RESULT:      -8.0      2.013      2.621
REMARK  Name = 
REMARK  7 active torsions:
REMARK  status: ('A' for Active; 'I' for Inactive)
REMARK    1  A    between atoms: C_1  and  C_2
REMARK    2  A    between atoms: C_2  and  C_3
REMARK    3  A    between atoms: C_4  and  C_5
REMARK    4  A    between atoms: N_11  and  N_12
REMARK    5  A    between atoms: N_12  and  C_13
REMARK    6  A    between atoms: C_16  and  N_17
REMARK    7  A    between atoms: C_21  and  N_22
REMARK                            x       y       z     vdW  Elec       q    Type
REMARK                         _______ _______ _______ _____ _____    ______ ____
ROOT
ATOM      1  N   UNL     1       3.952   4.590  19.727  0.00  0.00    +0.000 N 
ATOM      2  H   UNL     1       4.503   4.149  20.473  0.00  0.00    +0.000 HD
ENDROOT
BRANCH   1   3
ATOM      3  C   UNL     1       4.589   4.593  18.460  0.00  0.00    +0.000 A 
ATOM      4  C   UNL     1       5.776   5.336  18.298  0.00  0.00    +0.000 A 
ATOM      5  C   UNL     1       6.458   5.390  17.078  0.00  0.00    +0.000 A 
ATOM      6  C   UNL     1       5.955   4.691  15.979  0.00  0.00    +0.000 A 
ATOM      7  C   UNL     1       4.763   3.964  16.087  0.00  0.00    +0.000 A 
ATOM      8  C   UNL     1       4.080   3.928  17.322  0.00  0.00    +0.000 A 
BRANCH   6   9
ATOM      9  N   UNL     1       6.687   4.716  14.706  0.00  0.00    +0.000 N 
ATOM     10  O   UNL     1       6.220   4.070  13.759  0.00  0.00    +0.000 OA
ATOM     11  O   UNL     1       7.728   5.386  14.656  0.00  0.00    +0.000 OA
ENDBRANCH   6   9
BRANCH   8  12
ATOM     12  N   UNL     1       2.830   3.149  17.386  0.00  0.00    +0.000 N 
ATOM     13  O   UNL     1       1.755   3.748  17.219  0.00  0.00    +0.000 OA
ATOM     14  O   UNL     1       2.922   1.934  17.606  0.00  0.00    +0.000 OA
ENDBRANCH   8  12
ENDBRANCH   1   3
BRANCH   1  17
ATOM     15  C   UNL     1       1.422   4.051  20.761  0.00  0.00    +0.000 C 
ATOM     16  C   UNL     1       1.975   5.440  20.519  0.00  0.00    +0.000 C 
ATOM     17  N   UNL     1       3.164   5.659  20.025  0.00  0.00    +0.000 NA
BRANCH  16  18
ATOM     18  C   UNL     1       1.154   6.653  20.823  0.00  0.00    +0.000 C 
ATOM     19  C   UNL     1       1.584   7.921  20.906  0.00  0.00    +0.000 C 
BRANCH  19  20
ATOM     20  C   UNL     1       0.702   9.046  21.261  0.00  0.00    +0.000 A 
ATOM     21  C   UNL     1       0.250   9.247  22.573  0.00  0.00    +0.000 A 
ATOM     22  C   UNL     1      -0.579  10.329  22.885  0.00  0.00    +0.000 A 
ATOM     23  C   UNL     1      -0.951  11.231  21.893  0.00  0.00    +0.000 A 
ATOM     24  C   UNL     1      -0.482  11.063  20.591  0.00  0.00    +0.000 A 
ATOM     25  C   UNL     1       0.346   9.980  20.279  0.00  0.00    +0.000 A 
ENDBRANCH  19  20
ENDBRANCH  16  18
ENDBRANCH   1  17
TORSDOF 6
ENDMDL
MODEL 4
REMARK VINA RESULT:      -7.9      1.805      2.683
REMARK  Name = 
REMARK  7 active torsions:
REMARK  status: ('A' for Active; 'I' for Inactive)
REMARK    1  A    between atoms: C_1  and  C_2
REMARK    2  A    between atoms: C_2  and  C_3
REMARK    3  A    between atoms: C_4  and  C_5
REMARK    4  A    between atoms: N_11  and  N_12
REMARK    5  A    between atoms: N_12  and  C_13
REMARK    6  A    between atoms: C_16  and  N_17
REMARK    7  A    between atoms: C_21  and  N_22
REMARK                            x       y       z     vdW  Elec       q    Type
REMARK                         _______ _______ _______ _____ _____    ______ ____
ROOT
ATOM      1  N   UNL     1       4.236   5.141  19.434  0.00  0.00    +0.000 N 
ATOM      2  H   UNL     1       4.776   4.718  20.198  0.00  0.00    +0.000 HD
ENDROOT
BRANCH   1   3
ATOM      3  C   UNL     1       4.831   4.999  18.154  0.00  0.00    +0.000 A 
ATOM      4  C   UNL     1       5.864   5.885  17.783  0.00  0.00    +0.000 A 
ATOM      5  C   UNL     1       6.495   5.808  16.537  0.00  0.00    +0.000 A 
ATOM      6  C   UNL     1       6.097   4.829  15.625  0.00  0.00    +0.000 A 
ATOM      7  C   UNL     1       5.055   3.948  15.941  0.00  0.00    +0.000 A 
ATOM      8  C   UNL     1       4.420   4.044  17.198  0.00  0.00    +0.000 A 
BRANCH   6   9
ATOM      9  N   UNL     1       6.782   4.724  14.330  0.00  0.00    +0.000 N 
ATOM     10  O   UNL     1       7.725   5.496  14.112  0.00  0.00    +0.000 OA
ATOM     11  O   UNL     1       6.374   3.867  13.534  0.00  0.00    +0.000 OA
ENDBRANCH   6   9
BRANCH   8  12
ATOM     12  N   UNL     1       3.330   3.094  17.484  0.00  0.00    +0.000 N 
ATOM     13  O   UNL     1       3.519   2.229  18.356  0.00  0.00    +0.000 OA
ATOM     14  O   UNL     1       2.283   3.210  16.836  0.00  0.00    +0.000 OA
ENDBRANCH   8  12
ENDBRANCH   1   3
BRANCH   1  17
ATOM     15  C   UNL     1       1.612   4.871  20.331  0.00  0.00    +0.000 C 
ATOM     16  C   UNL     1       2.309   6.194  20.097  0.00  0.00    +0.000 C 
ATOM     17  N   UNL     1       3.540   6.287  19.668  0.00  0.00    +0.000 NA
BRANCH  16  18
ATOM     18  C   UNL     1       1.594   7.487  20.331  0.00  0.00    +0.000 C 
ATOM     19  C   UNL     1       0.987   7.883  21.460  0.00  0.00    +0.000 C 
BRANCH  19  20
ATOM     20  C   UNL     1       0.264   9.161  21.577  0.00  0.00    +0.000 A 
ATOM     21  C   UNL     1       0.039   9.988  20.467  0.00  0.00    +0.000 A 
ATOM     22  C   UNL     1      -0.659  11.192  20.603  0.00  0.00    +0.000 A 
ATOM     23  C   UNL     1      -1.156  11.573  21.846  0.00  0.00    +0.000 A 
ATOM     24  C   UNL     1      -0.970  10.744  22.951  0.00  0.00    +0.000 A 
ATOM     25  C   UNL     1      -0.270   9.541  22.815  0.00  0.00    +0.000 A 
ENDBRANCH  19  20
ENDBRANCH  16  18
ENDBRANCH   1  17
TORSDOF 6
ENDMDL
MODEL 5
REMARK VINA RESULT:      -7.9      1.933      2.560
REMARK  Name = 
REMARK  7 active torsions:
REMARK  status: ('A' for Active; 'I' for Inactive)
REMARK    1  A    between atoms: C_1  and  C_2
REMARK    2  A    between atoms: C_2  and  C_3
REMARK    3  A    between atoms: C_4  and  C_5
REMARK    4  A    between atoms: N_11  and  N_12
REMARK    5  A    between atoms: N_12  and  C_13
REMARK    6  A    between atoms: C_16  and  N_17
REMARK    7  A    between atoms: C_21  and  N_22
REMARK                            x       y       z     vdW  Elec       q    Type
REMARK                         _______ _______ _______ _____ _____    ______ ____
ROOT
ATOM      1  N   UNL     1       4.051   5.068  19.440  0.00  0.00    +0.000 N 
ATOM      2  H   UNL     1       4.549   4.620  20.217  0.00  0.00    +0.000 HD
ENDROOT
BRANCH   1   3
ATOM      3  C   UNL     1       4.703   4.949  18.186  0.00  0.00    +0.000 A 
ATOM      4  C   UNL     1       5.777   5.814  17.894  0.00  0.00    +0.000 A 
ATOM      5  C   UNL     1       6.466   5.759  16.678  0.00  0.00    +0.000 A 
ATOM      6  C   UNL     1       6.086   4.822  15.716  0.00  0.00    +0.000 A 
ATOM      7  C   UNL     1       5.005   3.962  15.953  0.00  0.00    +0.000 A 
ATOM      8  C   UNL     1       4.313   4.037  17.180  0.00  0.00    +0.000 A 
BRANCH   6   9
ATOM      9  N   UNL     1       6.830   4.737  14.452  0.00  0.00    +0.000 N 
ATOM     10  O   UNL     1       7.797   5.495  14.301  0.00  0.00    +0.000 OA
ATOM     11  O   UNL     1       6.444   3.910  13.615  0.00  0.00    +0.000 OA
ENDBRANCH   6   9
BRANCH   8  12
ATOM     12  N   UNL     1       3.184   3.111  17.382  0.00  0.00    +0.000 N 
ATOM     13  O   UNL     1       3.437   1.940  17.709  0.00  0.00    +0.000 OA
ATOM     14  O   UNL     1       2.041   3.554  17.214  0.00  0.00    +0.000 OA
ENDBRANCH   8  12
ENDBRANCH   1   3
BRANCH   1  17
ATOM     15  C   UNL     1       1.506   4.815  20.545  0.00  0.00    +0.000 C 
ATOM     16  C   UNL     1       2.164   6.132  20.194  0.00  0.00    +0.000 C 
ATOM     17  N   UNL     1       3.357   6.217  19.669  0.00  0.00    +0.000 NA
BRANCH  16  18
ATOM     18  C   UNL     1       1.449   7.427  20.418  0.00  0.00    +0.000 C 
ATOM     19  C   UNL     1       0.973   7.897  21.580  0.00  0.00    +0.000 C 
BRANCH  19  20
ATOM     20  C   UNL     1       0.236   9.169  21.689  0.00  0.00    +0.000 A 
ATOM     21  C   UNL     1      -0.314   9.604  22.904  0.00  0.00    +0.000 A 
ATOM     22  C   UNL     1      -1.000  10.820  22.982  0.00  0.00    +0.000 A 
ATOM     23  C   UNL     1      -1.129  11.622  21.852  0.00  0.00    +0.000 A 
ATOM     24  C   UNL     1      -0.558  11.218  20.647  0.00  0.00    +0.000 A 
ATOM     25  C   UNL     1       0.127  10.001  20.568  0.00  0.00    +0.000 A 
ENDBRANCH  19  20
ENDBRANCH  16  18
ENDBRANCH   1  17
TORSDOF 6
ENDMDL
MODEL 6
REMARK VINA RESULT:      -7.7      4.636      7.377
REMARK  Name = 
REMARK  7 active torsions:
REMARK  status: ('A' for Active; 'I' for Inactive)
REMARK    1  A    between atoms: C_1  and  C_2
REMARK    2  A    between atoms: C_2  and  C_3
REMARK    3  A    between atoms: C_4  and  C_5
REMARK    4  A    between atoms: N_11  and  N_12
REMARK    5  A    between atoms: N_12  and  C_13
REMARK    6  A    between atoms: C_16  and  N_17
REMARK    7  A    between atoms: C_21  and  N_22
REMARK                            x       y       z     vdW  Elec       q    Type
REMARK                         _______ _______ _______ _____ _____    ______ ____
ROOT
ATOM      1  N   UNL     1       4.746   6.521  17.290  0.00  0.00    +0.000 N 
ATOM      2  H   UNL     1       4.153   6.845  16.517  0.00  0.00    +0.000 HD
ENDROOT
BRANCH   1   3
ATOM      3  C   UNL     1       4.078   5.694  18.228  0.00  0.00    +0.000 A 
ATOM      4  C   UNL     1       4.519   4.366  18.398  0.00  0.00    +0.000 A 
ATOM      5  C   UNL     1       3.908   3.490  19.301  0.00  0.00    +0.000 A 
ATOM      6  C   UNL     1       2.825   3.934  20.062  0.00  0.00    +0.000 A 
ATOM      7  C   UNL     1       2.335   5.236  19.903  0.00  0.00    +0.000 A 
ATOM      8  C   UNL     1       2.955   6.105  18.980  0.00  0.00    +0.000 A 
BRANCH   6   9
ATOM      9  N   UNL     1       2.203   3.028  21.037  0.00  0.00    +0.000 N 
ATOM     10  O   UNL     1       2.920   2.570  21.936  0.00  0.00    +0.000 OA
ATOM     11  O   UNL     1       0.998   2.779  20.900  0.00  0.00    +0.000 OA
ENDBRANCH   6   9
BRANCH   8  12
ATOM     12  N   UNL     1       2.403   7.466  18.850  0.00  0.00    +0.000 N 
ATOM     13  O   UNL     1       1.992   8.034  19.876  0.00  0.00    +0.000 OA
ATOM     14  O   UNL     1       2.379   7.970  17.720  0.00  0.00    +0.000 OA
ENDBRANCH   8  12
ENDBRANCH   1   3
BRANCH   1  17
ATOM     15  C   UNL     1       7.377   5.937  16.583  0.00  0.00    +0.000 C 
ATOM     16  C   UNL     1       6.959   7.102  17.453  0.00  0.00    +0.000 C 
ATOM     17  N   UNL     1       5.716   7.345  17.774  0.00  0.00    +0.000 NA
BRANCH  16  18
ATOM     18  C   UNL     1       7.980   8.039  18.018  0.00  0.00    +0.000 C 
ATOM     19  C   UNL     1       8.003   9.375  17.904  0.00  0.00    +0.000 C 
BRANCH  19  20
ATOM     20  C   UNL     1       9.084  10.209  18.457  0.00  0.00    +0.000 A 
ATOM     21  C   UNL     1       9.975  10.910  17.632  0.00  0.00    +0.000 A 
ATOM     22  C   UNL     1      10.986  11.703  18.183  0.00  0.00    +0.000 A 
ATOM     23  C   UNL     1      11.107  11.818  19.565  0.00  0.00    +0.000 A 
ATOM     24  C   UNL     1      10.207  11.155  20.397  0.00  0.00    +0.000 A 
ATOM     25  C   UNL     1       9.196  10.360  19.846  0.00  0.00    +0.000 A 
ENDBRANCH  19  20
ENDBRANCH  16  18
ENDBRANCH   1  17
TORSDOF 6
ENDMDL
MODEL 7
REMARK VINA RESULT:      -7.6      0.933      1.167
REMARK  Name = 
REMARK  7 active torsions:
REMARK  status: ('A' for Active; 'I' for Inactive)
REMARK    1  A    between atoms: C_1  and  C_2
REMARK    2  A    between atoms: C_2  and  C_3
REMARK    3  A    between atoms: C_4  and  C_5
REMARK    4  A    between atoms: N_11  and  N_12
REMARK    5  A    between atoms: N_12  and  C_13
REMARK    6  A    between atoms: C_16  and  N_17
REMARK    7  A    between atoms: C_21  and  N_22
REMARK                            x       y       z     vdW  Elec       q    Type
REMARK                         _______ _______ _______ _____ _____    ______ ____
ROOT
ATOM      1  N   UNL     1       4.942   4.120  18.172  0.00  0.00    +0.000 N 
ATOM      2  H   UNL     1       5.437   3.502  18.826  0.00  0.00    +0.000 HD
ENDROOT
BRANCH   1   3
ATOM      3  C   UNL     1       5.645   4.372  16.966  0.00  0.00    +0.000 A 
ATOM      4  C   UNL     1       5.111   3.885  15.755  0.00  0.00    +0.000 A 
ATOM      5  C   UNL     1       5.748   4.091  14.527  0.00  0.00    +0.000 A 
ATOM      6  C   UNL     1       6.952   4.797  14.488  0.00  0.00    +0.000 A 
ATOM      7  C   UNL     1       7.533   5.272  15.671  0.00  0.00    +0.000 A 
ATOM      8  C   UNL     1       6.884   5.048  16.904  0.00  0.00    +0.000 A 
BRANCH   6   9
ATOM      9  N   UNL     1       7.606   5.045  13.196  0.00  0.00    +0.000 N 
ATOM     10  O   UNL     1       8.512   5.889  13.162  0.00  0.00    +0.000 OA
ATOM     11  O   UNL     1       7.213   4.392  12.220  0.00  0.00    +0.000 OA
ENDBRANCH   6   9
BRANCH   8  12
ATOM     12  N   UNL     1       7.534   5.568  18.120  0.00  0.00    +0.000 N 
ATOM     13  O   UNL     1       7.840   4.761  19.014  0.00  0.00    +0.000 OA
ATOM     14  O   UNL     1       7.740   6.787  18.184  0.00  0.00    +0.000 OA
ENDBRANCH   8  12
ENDBRANCH   1   3
BRANCH   1  17
ATOM     15  C   UNL     1       2.979   3.441  20.028  0.00  0.00    +0.000 C 
ATOM     16  C   UNL     1       3.253   4.848  19.543  0.00  0.00    +0.000 C 
ATOM     17  N   UNL     1       4.178   5.133  18.664  0.00  0.00    +0.000 NA
BRANCH  16  18
ATOM     18  C   UNL     1       2.442   6.001  20.043  0.00  0.00    +0.000 C 
ATOM     19  C   UNL     1       2.297   7.201  19.461  0.00  0.00    +0.000 C 
BRANCH  19  20
ATOM     20  C   UNL     1       1.512   8.294  20.061  0.00  0.00    +0.000 A 
ATOM     21  C   UNL     1       1.116   8.269  21.406  0.00  0.00    +0.000 A 
ATOM     22  C   UNL     1       0.380   9.324  21.954  0.00  0.00    +0.000 A 
ATOM     23  C   UNL     1       0.046  10.424  21.168  0.00  0.00    +0.000 A 
ATOM     24  C   UNL     1       0.463  10.478  19.839  0.00  0.00    +0.000 A 
ATOM     25  C   UNL     1       1.197   9.421  19.291  0.00  0.00    +0.000 A 
ENDBRANCH  19  20
ENDBRANCH  16  18
ENDBRANCH   1  17
TORSDOF 6
ENDMDL
MODEL 8
REMARK VINA RESULT:      -7.6      1.093      1.576
REMARK  Name = 
REMARK  7 active torsions:
REMARK  status: ('A' for Active; 'I' for Inactive)
REMARK    1  A    between atoms: C_1  and  C_2
REMARK    2  A    between atoms: C_2  and  C_3
REMARK    3  A    between atoms: C_4  and  C_5
REMARK    4  A    between atoms: N_11  and  N_12
REMARK    5  A    between atoms: N_12  and  C_13
REMARK    6  A    between atoms: C_16  and  N_17
REMARK    7  A    between atoms: C_21  and  N_22
REMARK                            x       y       z     vdW  Elec       q    Type
REMARK                         _______ _______ _______ _____ _____    ______ ____
ROOT
ATOM      1  N   UNL     1       4.923   4.011  17.872  0.00  0.00    +0.000 N 
ATOM      2  H   UNL     1       5.415   3.388  18.523  0.00  0.00    +0.000 HD
ENDROOT
BRANCH   1   3
ATOM      3  C   UNL     1       5.643   4.296  16.684  0.00  0.00    +0.000 A 
ATOM      4  C   UNL     1       5.115   3.866  15.450  0.00  0.00    +0.000 A 
ATOM      5  C   UNL     1       5.770   4.107  14.238  0.00  0.00    +0.000 A 
ATOM      6  C   UNL     1       6.986   4.792  14.239  0.00  0.00    +0.000 A 
ATOM      7  C   UNL     1       7.562   5.211  15.445  0.00  0.00    +0.000 A 
ATOM      8  C   UNL     1       6.894   4.951  16.662  0.00  0.00    +0.000 A 
BRANCH   6   9
ATOM      9  N   UNL     1       7.659   5.078  12.965  0.00  0.00    +0.000 N 
ATOM     10  O   UNL     1       8.589   5.896  12.976  0.00  0.00    +0.000 OA
ATOM     11  O   UNL     1       7.257   4.481  11.958  0.00  0.00    +0.000 OA
ENDBRANCH   6   9
BRANCH   8  12
ATOM     12  N   UNL     1       7.540   5.412  17.904  0.00  0.00    +0.000 N 
ATOM     13  O   UNL     1       7.664   6.635  18.083  0.00  0.00    +0.000 OA
ATOM     14  O   UNL     1       7.925   4.551  18.705  0.00  0.00    +0.000 OA
ENDBRANCH   8  12
ENDBRANCH   1   3
BRANCH   1  17
ATOM     15  C   UNL     1       2.987   3.277  19.737  0.00  0.00    +0.000 C 
ATOM     16  C   UNL     1       3.221   4.692  19.251  0.00  0.00    +0.000 C 
ATOM     17  N   UNL     1       4.133   5.002  18.369  0.00  0.00    +0.000 NA
BRANCH  16  18
ATOM     18  C   UNL     1       2.381   5.822  19.757  0.00  0.00    +0.000 C 
ATOM     19  C   UNL     1       2.427   7.103  19.361  0.00  0.00    +0.000 C 
BRANCH  19  20
ATOM     20  C   UNL     1       1.588   8.157  19.957  0.00  0.00    +0.000 A 
ATOM     21  C   UNL     1       1.171   9.276  19.222  0.00  0.00    +0.000 A 
ATOM     22  C   UNL     1       0.366  10.258  19.810  0.00  0.00    +0.000 A 
ATOM     23  C   UNL     1      -0.044  10.122  21.133  0.00  0.00    +0.000 A 
ATOM     24  C   UNL     1       0.334   8.998  21.865  0.00  0.00    +0.000 A 
ATOM     25  C   UNL     1       1.140   8.018  21.278  0.00  0.00    +0.000 A 
ENDBRANCH  19  20
ENDBRANCH  16  18
ENDBRANCH   1  17
TORSDOF 6
ENDMDL
MODEL 9
REMARK VINA RESULT:      -7.5      4.634      7.134
REMARK  Name = 
REMARK  7 active torsions:
REMARK  status: ('A' for Active; 'I' for Inactive)
REMARK    1  A    between atoms: C_1  and  C_2
REMARK    2  A    between atoms: C_2  and  C_3
REMARK    3  A    between atoms: C_4  and  C_5
REMARK    4  A    between atoms: N_11  and  N_12
REMARK    5  A    between atoms: N_12  and  C_13
REMARK    6  A    between atoms: C_16  and  N_17
REMARK    7  A    between atoms: C_21  and  N_22
REMARK                            x       y       z     vdW  Elec       q    Type
REMARK                         _______ _______ _______ _____ _____    ______ ____
ROOT
ATOM      1  N   UNL     1       5.461   6.874  16.209  0.00  0.00    +0.000 N 
ATOM      2  H   UNL     1       5.140   7.099  15.261  0.00  0.00    +0.000 HD
ENDROOT
BRANCH   1   3
ATOM      3  C   UNL     1       4.502   6.194  17.002  0.00  0.00    +0.000 A 
ATOM      4  C   UNL     1       3.744   6.931  17.934  0.00  0.00    +0.000 A 
ATOM      5  C   UNL     1       2.783   6.329  18.752  0.00  0.00    +0.000 A 
ATOM      6  C   UNL     1       2.560   4.955  18.651  0.00  0.00    +0.000 A 
ATOM      7  C   UNL     1       3.311   4.178  17.760  0.00  0.00    +0.000 A 
ATOM      8  C   UNL     1       4.285   4.799  16.949  0.00  0.00    +0.000 A 
BRANCH   6   9
ATOM      9  N   UNL     1       1.527   4.324  19.484  0.00  0.00    +0.000 N 
ATOM     10  O   UNL     1       1.133   3.196  19.159  0.00  0.00    +0.000 OA
ATOM     11  O   UNL     1       1.114   4.960  20.464  0.00  0.00    +0.000 OA
ENDBRANCH   6   9
BRANCH   8  12
ATOM     12  N   UNL     1       5.050   3.940  16.026  0.00  0.00    +0.000 N 
ATOM     13  O   UNL     1       5.550   2.895  16.474  0.00  0.00    +0.000 OA
ATOM     14  O   UNL     1       5.152   4.310  14.849  0.00  0.00    +0.000 OA
ENDBRANCH   8  12
ENDBRANCH   1   3
BRANCH   1  17
ATOM     15  C   UNL     1       7.583   5.772  17.640  0.00  0.00    +0.000 C 
ATOM     16  C   UNL     1       7.301   7.255  17.526  0.00  0.00    +0.000 C 
ATOM     17  N   UNL     1       6.291   7.740  16.852  0.00  0.00    +0.000 NA
BRANCH  16  18
ATOM     18  C   UNL     1       8.175   8.255  18.215  0.00  0.00    +0.000 C 
ATOM     19  C   UNL     1       8.328   9.550  17.898  0.00  0.00    +0.000 C 
BRANCH  19  20
ATOM     20  C   UNL     1       9.255  10.445  18.611  0.00  0.00    +0.000 A 
ATOM     21  C   UNL     1       9.275  10.528  20.011  0.00  0.00    +0.000 A 
ATOM     22  C   UNL     1      10.172  11.379  20.664  0.00  0.00    +0.000 A 
ATOM     23  C   UNL     1      11.071  12.144  19.925  0.00  0.00    +0.000 A 
ATOM     24  C   UNL     1      11.086  12.046  18.535  0.00  0.00    +0.000 A 
ATOM     25  C   UNL     1      10.187  11.196  17.882  0.00  0.00    +0.000 A 
ENDBRANCH  19  20
ENDBRANCH  16  18
ENDBRANCH   1  17
TORSDOF 6
ENDMDL
