MODEL 1
REMARK VINA RESULT:      -8.0      0.000      0.000
REMARK  Name = 
REMARK  9 active torsions:
REMARK  status: ('A' for Active; 'I' for Inactive)
REMARK    1  A    between atoms: C_1  and  N_2
REMARK    2  A    between atoms: C_9  and  C_10
REMARK    3  A    between atoms: C_10  and  C_11
REMARK    4  A    between atoms: C_10  and  C_12
REMARK    5  A    between atoms: C_10  and  C_13
REMARK    6  A    between atoms: N_17  and  C_18
REMARK    7  A    between atoms: C_18  and  C_19
REMARK    8  A    between atoms: C_22  and  C_23
REMARK    9  A    between atoms: N_25  and  O_26
REMARK                            x       y       z     vdW  Elec       q    Type
REMARK                         _______ _______ _______ _____ _____    ______ ____
ROOT
ATOM      1  C   UNL     1       1.746   2.217  21.361  0.00  0.00    +0.000 C 
ATOM      2  N   UNL     1       2.500   2.945  20.344  0.00  0.00    +0.000 NA
ATOM      3  C   UNL     1       3.958   2.731  20.490  0.00  0.00    +0.000 C 
ATOM      4  C   UNL     1       4.768   3.339  19.307  0.00  0.00    +0.000 C 
ATOM      5  C   UNL     1       4.241   4.700  18.999  0.00  0.00    +0.000 A 
ATOM      6  C   UNL     1       3.042   5.166  19.497  0.00  0.00    +0.000 A 
ATOM      7  C   UNL     1       2.858   6.478  18.997  0.00  0.00    +0.000 A 
ATOM      8  C   UNL     1       1.864   7.457  19.212  0.00  0.00    +0.000 A 
ATOM      9  C   UNL     1       1.892   8.687  18.534  0.00  0.00    +0.000 A 
ATOM     10  C   UNL     1       2.942   8.897  17.630  0.00  0.00    +0.000 A 
ATOM     11  C   UNL     1       3.950   7.946  17.399  0.00  0.00    +0.000 A 
ATOM     12  C   UNL     1       3.914   6.744  18.121  0.00  0.00    +0.000 A 
ATOM     13  N   UNL     1       4.791   5.669  18.195  0.00  0.00    +0.000 N 
ATOM     14  C   UNL     1       2.161   4.387  20.420  0.00  0.00    +0.000 C 
ENDROOT
BRANCH   9  15
ATOM     15  C   UNL     1       0.825   9.764  18.826  0.00  0.00    +0.000 C 
ATOM     16  C   UNL     1       0.314   9.571  20.269  0.00  0.00    +0.000 C 
ATOM     17  C   UNL     1       1.390  11.195  18.686  0.00  0.00    +0.000 C 
ATOM     18  C   UNL     1      -0.391   9.678  17.873  0.00  0.00    +0.000 C 
ENDBRANCH   9  15
BRANCH  13  19
ATOM     19  C   UNL     1       6.108   5.602  17.554  0.00  0.00    +0.000 C 
BRANCH  19  20
ATOM     20  C   UNL     1       5.999   5.121  16.119  0.00  0.00    +0.000 A 
ATOM     21  C   UNL     1       4.793   4.601  15.628  0.00  0.00    +0.000 A 
ATOM     22  C   UNL     1       4.738   4.005  14.363  0.00  0.00    +0.000 A 
ATOM     23  C   UNL     1       5.889   3.926  13.571  0.00  0.00    +0.000 A 
ATOM     24  C   UNL     1       7.062   4.551  14.001  0.00  0.00    +0.000 A 
ATOM     25  C   UNL     1       7.111   5.148  15.264  0.00  0.00    +0.000 A 
BRANCH  23  26
ATOM     26  C   UNL     1       5.844   3.130  12.315  0.00  0.00    +0.000 C 
ATOM     27  O   UNL     1       4.809   3.013  11.663  0.00  0.00    +0.000 OA
ATOM     28  N   UNL     1       7.000   2.456  11.980  0.00  0.00    +0.000 N 
ATOM     29  H   UNL     1       7.735   2.268  12.654  0.00  0.00    +0.000 HD
BRANCH  28  30
ATOM     30  O   UNL     1       6.867   1.508  10.937  0.00  0.00    +0.000 OA
ATOM     31  H   UNL     1       7.551   0.843  11.171  0.00  0.00    +0.000 HD
ENDBRANCH  28  30
ENDBRANCH  23  26
ENDBRANCH  19  20
ENDBRANCH  13  19
TORSDOF 5
ENDMDL
MODEL 2
REMARK VINA RESULT:      -7.7      0.992      1.333
REMARK  Name = 
REMARK  9 active torsions:
REMARK  status: ('A' for Active; 'I' for Inactive)
REMARK    1  A    between atoms: C_1  and  N_2
REMARK    2  A    between atoms: C_9  and  C_10
REMARK    3  A    between atoms: C_10  and  C_11
REMARK    4  A    between atoms: C_10  and  C_12
REMARK    5  A    between atoms: C_10  and  C_13
REMARK    6  A    between atoms: N_17  and  C_18
REMARK    7  A    between atoms: C_18  and  C_19
REMARK    8  A    between atoms: C_22  and  C_23
REMARK    9  A    between atoms: N_25  and  O_26
REMARK                            x       y       z     vdW  Elec       q    Type
REMARK                         _______ _______ _______ _____ _____    ______ ____
ROOT
ATOM      1  C   UNL     1       1.218   2.557  21.303  0.00  0.00    +0.000 C 
ATOM      2  N   UNL     1       1.995   3.337  20.344  0.00  0.00    +0.000 NA
ATOM      3  C   UNL     1       3.451   3.163  20.554  0.00  0.00    +0.000 C 
ATOM      4  C   UNL     1       4.297   3.828  19.429  0.00  0.00    +0.000 C 
ATOM      5  C   UNL     1       3.742   5.180  19.133  0.00  0.00    +0.000 A 
ATOM      6  C   UNL     1       2.507   5.596  19.584  0.00  0.00    +0.000 A 
ATOM      7  C   UNL     1       2.306   6.916  19.112  0.00  0.00    +0.000 A 
ATOM      8  C   UNL     1       1.273   7.858  19.305  0.00  0.00    +0.000 A 
ATOM      9  C   UNL     1       1.295   9.107  18.662  0.00  0.00    +0.000 A 
ATOM     10  C   UNL     1       2.379   9.374  17.816  0.00  0.00    +0.000 A 
ATOM     11  C   UNL     1       3.427   8.462  17.609  0.00  0.00    +0.000 A 
ATOM     12  C   UNL     1       3.393   7.238  18.295  0.00  0.00    +0.000 A 
ATOM     13  N   UNL     1       4.300   6.188  18.383  0.00  0.00    +0.000 N 
ATOM     14  C   UNL     1       1.608   4.765  20.442  0.00  0.00    +0.000 C 
ENDROOT
BRANCH   9  15
ATOM     15  C   UNL     1       0.181  10.143  18.932  0.00  0.00    +0.000 C 
ATOM     16  C   UNL     1       0.796  11.556  18.857  0.00  0.00    +0.000 C 
ATOM     17  C   UNL     1      -0.966  10.044  17.903  0.00  0.00    +0.000 C 
ATOM     18  C   UNL     1      -0.467   9.977  20.327  0.00  0.00    +0.000 C 
ENDBRANCH   9  15
BRANCH  13  19
ATOM     19  C   UNL     1       5.647   6.180  17.805  0.00  0.00    +0.000 C 
BRANCH  19  20
ATOM     20  C   UNL     1       5.676   5.433  16.484  0.00  0.00    +0.000 A 
ATOM     21  C   UNL     1       6.140   4.111  16.419  0.00  0.00    +0.000 A 
ATOM     22  C   UNL     1       6.323   3.481  15.183  0.00  0.00    +0.000 A 
ATOM     23  C   UNL     1       6.041   4.166  13.996  0.00  0.00    +0.000 A 
ATOM     24  C   UNL     1       5.463   5.437  14.056  0.00  0.00    +0.000 A 
ATOM     25  C   UNL     1       5.278   6.060  15.293  0.00  0.00    +0.000 A 
BRANCH  23  26
ATOM     26  C   UNL     1       6.417   3.541  12.699  0.00  0.00    +0.000 C 
ATOM     27  O   UNL     1       7.069   4.149  11.855  0.00  0.00    +0.000 OA
ATOM     28  N   UNL     1       5.911   2.279  12.463  0.00  0.00    +0.000 N 
ATOM     29  H   UNL     1       5.120   1.905  12.977  0.00  0.00    +0.000 HD
BRANCH  28  30
ATOM     30  O   UNL     1       6.059   1.807  11.136  0.00  0.00    +0.000 OA
ATOM     31  H   UNL     1       7.008   1.985  10.956  0.00  0.00    +0.000 HD
ENDBRANCH  28  30
ENDBRANCH  23  26
ENDBRANCH  19  20
ENDBRANCH  13  19
TORSDOF 5
ENDMDL
MODEL 3
REMARK VINA RESULT:      -7.6      0.723      1.081
REMARK  Name = 
REMARK  9 active torsions:
REMARK  status: ('A' for Active; 'I' for Inactive)
REMARK    1  A    between atoms: C_1  and  N_2
REMARK    2  A    between atoms: C_9  and  C_10
REMARK    3  A    between atoms: C_10  and  C_11
REMARK    4  A    between atoms: C_10  and  C_12
REMARK    5  A    between atoms: C_10  and  C_13
REMARK    6  A    between atoms: N_17  and  C_18
REMARK    7  A    between atoms: C_18  and  C_19
REMARK    8  A    between atoms: C_22  and  C_23
REMARK    9  A    between atoms: N_25  and  O_26
REMARK                            x       y       z     vdW  Elec       q    Type
REMARK                         _______ _______ _______ _____ _____    ______ ____
ROOT
ATOM      1  C   UNL     1       1.413   2.320  20.776  0.00  0.00    +0.000 C 
ATOM      2  N   UNL     1       2.208   3.164  19.889  0.00  0.00    +0.000 NA
ATOM      3  C   UNL     1       3.659   2.996  20.135  0.00  0.00    +0.000 C 
ATOM      4  C   UNL     1       4.530   3.737  19.078  0.00  0.00    +0.000 C 
ATOM      5  C   UNL     1       3.965   5.098  18.844  0.00  0.00    +0.000 A 
ATOM      6  C   UNL     1       2.711   5.470  19.280  0.00  0.00    +0.000 A 
ATOM      7  C   UNL     1       2.506   6.813  18.880  0.00  0.00    +0.000 A 
ATOM      8  C   UNL     1       1.454   7.729  19.096  0.00  0.00    +0.000 A 
ATOM      9  C   UNL     1       1.477   9.014  18.528  0.00  0.00    +0.000 A 
ATOM     10  C   UNL     1       2.583   9.344  17.734  0.00  0.00    +0.000 A 
ATOM     11  C   UNL     1       3.650   8.459  17.507  0.00  0.00    +0.000 A 
ATOM     12  C   UNL     1       3.613   7.197  18.118  0.00  0.00    +0.000 A 
ATOM     13  N   UNL     1       4.531   6.155  18.173  0.00  0.00    +0.000 N 
ATOM     14  C   UNL     1       1.799   4.579  20.060  0.00  0.00    +0.000 C 
ENDROOT
BRANCH   9  15
ATOM     15  C   UNL     1       0.342  10.019  18.823  0.00  0.00    +0.000 C 
ATOM     16  C   UNL     1       0.927  11.446  18.792  0.00  0.00    +0.000 C 
ATOM     17  C   UNL     1      -0.799   9.926  17.788  0.00  0.00    +0.000 C 
ATOM     18  C   UNL     1      -0.308   9.799  20.210  0.00  0.00    +0.000 C 
ENDBRANCH   9  15
BRANCH  13  19
ATOM     19  C   UNL     1       5.895   6.197  17.637  0.00  0.00    +0.000 C 
BRANCH  19  20
ATOM     20  C   UNL     1       5.972   5.546  16.269  0.00  0.00    +0.000 A 
ATOM     21  C   UNL     1       5.317   6.117  15.167  0.00  0.00    +0.000 A 
ATOM     22  C   UNL     1       5.248   5.433  13.948  0.00  0.00    +0.000 A 
ATOM     23  C   UNL     1       5.837   4.171  13.815  0.00  0.00    +0.000 A 
ATOM     24  C   UNL     1       6.596   3.652  14.868  0.00  0.00    +0.000 A 
ATOM     25  C   UNL     1       6.665   4.341  16.082  0.00  0.00    +0.000 A 
BRANCH  23  26
ATOM     26  C   UNL     1       5.593   3.391  12.572  0.00  0.00    +0.000 C 
ATOM     27  O   UNL     1       4.531   3.472  11.959  0.00  0.00    +0.000 OA
ATOM     28  N   UNL     1       6.584   2.506  12.204  0.00  0.00    +0.000 N 
ATOM     29  H   UNL     1       7.295   2.183  12.853  0.00  0.00    +0.000 HD
BRANCH  28  30
ATOM     30  O   UNL     1       6.232   1.595  11.178  0.00  0.00    +0.000 OA
ATOM     31  H   UNL     1       6.369   0.726  11.615  0.00  0.00    +0.000 HD
ENDBRANCH  28  30
ENDBRANCH  23  26
ENDBRANCH  19  20
ENDBRANCH  13  19
TORSDOF 5
ENDMDL
MODEL 4
REMARK VINA RESULT:      -7.5      0.521      1.324
REMARK  Name = 
REMARK  9 active torsions:
REMARK  status: ('A' for Active; 'I' for Inactive)
REMARK    1  A    between atoms: C_1  and  N_2
REMARK    2  A    between atoms: C_9  and  C_10
REMARK    3  A    between atoms: C_10  and  C_11
REMARK    4  A    between atoms: C_10  and  C_12
REMARK    5  A    between atoms: C_10  and  C_13
REMARK    6  A    between atoms: N_17  and  C_18
REMARK    7  A    between atoms: C_18  and  C_19
REMARK    8  A    between atoms: C_22  and  C_23
REMARK    9  A    between atoms: N_25  and  O_26
REMARK                            x       y       z     vdW  Elec       q    Type
REMARK                         _______ _______ _______ _____ _____    ______ ____
ROOT
ATOM      1  C   UNL     1       1.622   2.505  21.251  0.00  0.00    +0.000 C 
ATOM      2  N   UNL     1       2.334   3.307  20.260  0.00  0.00    +0.000 NA
ATOM      3  C   UNL     1       3.802   3.170  20.403  0.00  0.00    +0.000 C 
ATOM      4  C   UNL     1       4.578   3.859  19.242  0.00  0.00    +0.000 C 
ATOM      5  C   UNL     1       3.976   5.198  18.977  0.00  0.00    +0.000 A 
ATOM      6  C   UNL     1       2.753   5.581  19.486  0.00  0.00    +0.000 A 
ATOM      7  C   UNL     1       2.497   6.896  19.028  0.00  0.00    +0.000 A 
ATOM      8  C   UNL     1       1.450   7.811  19.273  0.00  0.00    +0.000 A 
ATOM      9  C   UNL     1       1.410   9.062  18.634  0.00  0.00    +0.000 A 
ATOM     10  C   UNL     1       2.447   9.359  17.740  0.00  0.00    +0.000 A 
ATOM     11  C   UNL     1       3.507   8.474  17.482  0.00  0.00    +0.000 A 
ATOM     12  C   UNL     1       3.537   7.249  18.164  0.00  0.00    +0.000 A 
ATOM     13  N   UNL     1       4.472   6.222  18.206  0.00  0.00    +0.000 N 
ATOM     14  C   UNL     1       1.916   4.725  20.382  0.00  0.00    +0.000 C 
ENDROOT
BRANCH   9  15
ATOM     15  C   UNL     1       0.285  10.069  18.959  0.00  0.00    +0.000 C 
ATOM     16  C   UNL     1      -0.795   9.970  17.861  0.00  0.00    +0.000 C 
ATOM     17  C   UNL     1      -0.370   9.786  20.328  0.00  0.00    +0.000 C 
ATOM     18  C   UNL     1       0.785  11.532  19.007  0.00  0.00    +0.000 C 
ENDBRANCH   9  15
BRANCH  13  19
ATOM     19  C   UNL     1       5.791   6.249  17.566  0.00  0.00    +0.000 C 
BRANCH  19  20
ATOM     20  C   UNL     1       5.836   5.337  16.355  0.00  0.00    +0.000 A 
ATOM     21  C   UNL     1       7.031   5.149  15.644  0.00  0.00    +0.000 A 
ATOM     22  C   UNL     1       7.036   4.444  14.435  0.00  0.00    +0.000 A 
ATOM     23  C   UNL     1       5.846   3.915  13.924  0.00  0.00    +0.000 A 
ATOM     24  C   UNL     1       4.677   3.991  14.686  0.00  0.00    +0.000 A 
ATOM     25  C   UNL     1       4.678   4.692  15.895  0.00  0.00    +0.000 A 
BRANCH  23  26
ATOM     26  C   UNL     1       5.849   3.332  12.555  0.00  0.00    +0.000 C 
ATOM     27  O   UNL     1       4.857   3.383  11.831  0.00  0.00    +0.000 OA
ATOM     28  N   UNL     1       6.991   2.652  12.185  0.00  0.00    +0.000 N 
ATOM     29  H   UNL     1       7.667   2.315  12.863  0.00  0.00    +0.000 HD
BRANCH  28  30
ATOM     30  O   UNL     1       6.883   1.891  10.996  0.00  0.00    +0.000 OA
ATOM     31  H   UNL     1       7.501   2.359  10.393  0.00  0.00    +0.000 HD
ENDBRANCH  28  30
ENDBRANCH  23  26
ENDBRANCH  19  20
ENDBRANCH  13  19
TORSDOF 5
ENDMDL
MODEL 5
REMARK VINA RESULT:      -7.5      3.710      4.834
REMARK  Name = 
REMARK  9 active torsions:
REMARK  status: ('A' for Active; 'I' for Inactive)
REMARK    1  A    between atoms: C_1  and  N_2
REMARK    2  A    between atoms: C_9  and  C_10
REMARK    3  A    between atoms: C_10  and  C_11
REMARK    4  A    between atoms: C_10  and  C_12
REMARK    5  A    between atoms: C_10  and  C_13
REMARK    6  A    between atoms: N_17  and  C_18
REMARK    7  A    between atoms: C_18  and  C_19
REMARK    8  A    between atoms: C_22  and  C_23
REMARK    9  A    between atoms: N_25  and  O_26
REMARK                            x       y       z     vdW  Elec       q    Type
REMARK                         _______ _______ _______ _____ _____    ______ ____
ROOT
ATOM      1  C   UNL     1       1.462   2.359  22.039  0.00  0.00    +0.000 C 
ATOM      2  N   UNL     1       2.189   2.925  20.906  0.00  0.00    +0.000 NA
ATOM      3  C   UNL     1       3.631   2.591  20.964  0.00  0.00    +0.000 C 
ATOM      4  C   UNL     1       4.390   3.018  19.673  0.00  0.00    +0.000 C 
ATOM      5  C   UNL     1       3.957   4.389  19.278  0.00  0.00    +0.000 A 
ATOM      6  C   UNL     1       2.846   5.005  19.817  0.00  0.00    +0.000 A 
ATOM      7  C   UNL     1       2.734   6.280  19.212  0.00  0.00    +0.000 A 
ATOM      8  C   UNL     1       1.847   7.361  19.408  0.00  0.00    +0.000 A 
ATOM      9  C   UNL     1       1.924   8.520  18.617  0.00  0.00    +0.000 A 
ATOM     10  C   UNL     1       2.910   8.553  17.622  0.00  0.00    +0.000 A 
ATOM     11  C   UNL     1       3.813   7.498  17.408  0.00  0.00    +0.000 A 
ATOM     12  C   UNL     1       3.733   6.371  18.239  0.00  0.00    +0.000 A 
ATOM     13  N   UNL     1       4.520   5.231  18.349  0.00  0.00    +0.000 N 
ATOM     14  C   UNL     1       1.981   4.393  20.872  0.00  0.00    +0.000 C 
ENDROOT
BRANCH   9  15
ATOM     15  C   UNL     1       0.979   9.712  18.885  0.00  0.00    +0.000 C 
ATOM     16  C   UNL     1       0.550   9.674  20.367  0.00  0.00    +0.000 C 
ATOM     17  C   UNL     1       1.660  11.068  18.598  0.00  0.00    +0.000 C 
ATOM     18  C   UNL     1      -0.299   9.671  18.015  0.00  0.00    +0.000 C 
ENDBRANCH   9  15
BRANCH  13  19
ATOM     19  C   UNL     1       5.769   4.988  17.622  0.00  0.00    +0.000 C 
BRANCH  19  20
ATOM     20  C   UNL     1       6.737   6.145  17.786  0.00  0.00    +0.000 A 
ATOM     21  C   UNL     1       7.639   6.176  18.861  0.00  0.00    +0.000 A 
ATOM     22  C   UNL     1       8.413   7.316  19.107  0.00  0.00    +0.000 A 
ATOM     23  C   UNL     1       8.297   8.437  18.278  0.00  0.00    +0.000 A 
ATOM     24  C   UNL     1       7.495   8.368  17.136  0.00  0.00    +0.000 A 
ATOM     25  C   UNL     1       6.727   7.226  16.892  0.00  0.00    +0.000 A 
BRANCH  23  26
ATOM     26  C   UNL     1       8.992   9.693  18.668  0.00  0.00    +0.000 C 
ATOM     27  O   UNL     1       9.454  10.462  17.829  0.00  0.00    +0.000 OA
ATOM     28  N   UNL     1       9.172   9.894  20.021  0.00  0.00    +0.000 N 
ATOM     29  H   UNL     1       9.106   9.140  20.698  0.00  0.00    +0.000 HD
BRANCH  28  30
ATOM     30  O   UNL     1      10.051  10.951  20.364  0.00  0.00    +0.000 OA
ATOM     31  H   UNL     1       9.511  11.745  20.161  0.00  0.00    +0.000 HD
ENDBRANCH  28  30
ENDBRANCH  23  26
ENDBRANCH  19  20
ENDBRANCH  13  19
TORSDOF 5
ENDMDL
MODEL 6
REMARK VINA RESULT:      -7.5      5.005      8.400
REMARK  Name = 
REMARK  9 active torsions:
REMARK  status: ('A' for Active; 'I' for Inactive)
REMARK    1  A    between atoms: C_1  and  N_2
REMARK    2  A    between atoms: C_9  and  C_10
REMARK    3  A    between atoms: C_10  and  C_11
REMARK    4  A    between atoms: C_10  and  C_12
REMARK    5  A    between atoms: C_10  and  C_13
REMARK    6  A    between atoms: N_17  and  C_18
REMARK    7  A    between atoms: C_18  and  C_19
REMARK    8  A    between atoms: C_22  and  C_23
REMARK    9  A    between atoms: N_25  and  O_26
REMARK                            x       y       z     vdW  Elec       q    Type
REMARK                         _______ _______ _______ _____ _____    ______ ____
ROOT
ATOM      1  C   UNL     1       0.412  15.152  22.731  0.00  0.00    +0.000 C 
ATOM      2  N   UNL     1       0.494  13.943  21.916  0.00  0.00    +0.000 NA
ATOM      3  C   UNL     1       1.721  13.928  21.086  0.00  0.00    +0.000 C 
ATOM      4  C   UNL     1       1.927  12.568  20.356  0.00  0.00    +0.000 C 
ATOM      5  C   UNL     1       0.628  12.121  19.776  0.00  0.00    +0.000 A 
ATOM      6  C   UNL     1      -0.580  12.692  20.120  0.00  0.00    +0.000 A 
ATOM      7  C   UNL     1      -1.589  12.020  19.389  0.00  0.00    +0.000 A 
ATOM      8  C   UNL     1      -2.985  12.207  19.284  0.00  0.00    +0.000 A 
ATOM      9  C   UNL     1      -3.780  11.345  18.510  0.00  0.00    +0.000 A 
ATOM     10  C   UNL     1      -3.132  10.289  17.856  0.00  0.00    +0.000 A 
ATOM     11  C   UNL     1      -1.745  10.081  17.933  0.00  0.00    +0.000 A 
ATOM     12  C   UNL     1      -0.975  10.982  18.683  0.00  0.00    +0.000 A 
ATOM     13  N   UNL     1       0.396  11.109  18.875  0.00  0.00    +0.000 N 
ATOM     14  C   UNL     1      -0.722  13.834  21.074  0.00  0.00    +0.000 C 
ENDROOT
BRANCH   9  15
ATOM     15  C   UNL     1      -5.296  11.601  18.366  0.00  0.00    +0.000 C 
ATOM     16  C   UNL     1      -5.734  12.588  19.467  0.00  0.00    +0.000 C 
ATOM     17  C   UNL     1      -5.655  12.199  16.989  0.00  0.00    +0.000 C 
ATOM     18  C   UNL     1      -6.139  10.312  18.516  0.00  0.00    +0.000 C 
ENDBRANCH   9  15
BRANCH  13  19
ATOM     19  C   UNL     1       1.426  10.319  18.192  0.00  0.00    +0.000 C 
BRANCH  19  20
ATOM     20  C   UNL     1       1.680   9.007  18.909  0.00  0.00    +0.000 A 
ATOM     21  C   UNL     1       2.330   7.949  18.256  0.00  0.00    +0.000 A 
ATOM     22  C   UNL     1       2.416   6.688  18.857  0.00  0.00    +0.000 A 
ATOM     23  C   UNL     1       1.856   6.470  20.121  0.00  0.00    +0.000 A 
ATOM     24  C   UNL     1       1.318   7.549  20.828  0.00  0.00    +0.000 A 
ATOM     25  C   UNL     1       1.238   8.807  20.226  0.00  0.00    +0.000 A 
BRANCH  23  26
ATOM     26  C   UNL     1       1.801   5.082  20.653  0.00  0.00    +0.000 C 
ATOM     27  O   UNL     1       2.768   4.566  21.208  0.00  0.00    +0.000 OA
ATOM     28  N   UNL     1       0.640   4.380  20.404  0.00  0.00    +0.000 N 
ATOM     29  H   UNL     1      -0.017   4.654  19.680  0.00  0.00    +0.000 HD
BRANCH  28  30
ATOM     30  O   UNL     1       0.700   2.993  20.685  0.00  0.00    +0.000 OA
ATOM     31  H   UNL     1       1.268   2.658  19.957  0.00  0.00    +0.000 HD
ENDBRANCH  28  30
ENDBRANCH  23  26
ENDBRANCH  19  20
ENDBRANCH  13  19
TORSDOF 5
ENDMDL
MODEL 7
REMARK VINA RESULT:      -7.4      5.219      8.986
REMARK  Name = 
REMARK  9 active torsions:
REMARK  status: ('A' for Active; 'I' for Inactive)
REMARK    1  A    between atoms: C_1  and  N_2
REMARK    2  A    between atoms: C_9  and  C_10
REMARK    3  A    between atoms: C_10  and  C_11
REMARK    4  A    between atoms: C_10  and  C_12
REMARK    5  A    between atoms: C_10  and  C_13
REMARK    6  A    between atoms: N_17  and  C_18
REMARK    7  A    between atoms: C_18  and  C_19
REMARK    8  A    between atoms: C_22  and  C_23
REMARK    9  A    between atoms: N_25  and  O_26
REMARK                            x       y       z     vdW  Elec       q    Type
REMARK                         _______ _______ _______ _____ _____    ______ ____
ROOT
ATOM      1  C   UNL     1      -5.147  11.355  16.700  0.00  0.00    +0.000 C 
ATOM      2  N   UNL     1      -3.885  11.713  17.340  0.00  0.00    +0.000 NA
ATOM      3  C   UNL     1      -2.818  10.735  17.024  0.00  0.00    +0.000 C 
ATOM      4  C   UNL     1      -1.421  11.195  17.534  0.00  0.00    +0.000 C 
ATOM      5  C   UNL     1      -1.556  11.731  18.920  0.00  0.00    +0.000 A 
ATOM      6  C   UNL     1      -2.777  12.033  19.488  0.00  0.00    +0.000 A 
ATOM      7  C   UNL     1      -2.527  12.519  20.793  0.00  0.00    +0.000 A 
ATOM      8  C   UNL     1      -3.376  12.917  21.849  0.00  0.00    +0.000 A 
ATOM      9  C   UNL     1      -2.857  13.423  23.052  0.00  0.00    +0.000 A 
ATOM     10  C   UNL     1      -1.463  13.525  23.157  0.00  0.00    +0.000 A 
ATOM     11  C   UNL     1      -0.591  13.130  22.129  0.00  0.00    +0.000 A 
ATOM     12  C   UNL     1      -1.141  12.593  20.955  0.00  0.00    +0.000 A 
ATOM     13  N   UNL     1      -0.564  12.033  19.821  0.00  0.00    +0.000 N 
ATOM     14  C   UNL     1      -4.090  11.826  18.804  0.00  0.00    +0.000 C 
ENDROOT
BRANCH   9  15
ATOM     15  C   UNL     1      -3.803  13.801  24.213  0.00  0.00    +0.000 C 
ATOM     16  C   UNL     1      -3.001  14.599  25.261  0.00  0.00    +0.000 C 
ATOM     17  C   UNL     1      -4.993  14.660  23.736  0.00  0.00    +0.000 C 
ATOM     18  C   UNL     1      -4.410  12.564  24.917  0.00  0.00    +0.000 C 
ENDBRANCH   9  15
BRANCH  13  19
ATOM     19  C   UNL     1       0.867  11.770  19.639  0.00  0.00    +0.000 C 
BRANCH  19  20
ATOM     20  C   UNL     1       1.152  10.281  19.591  0.00  0.00    +0.000 A 
ATOM     21  C   UNL     1       0.978   9.482  20.731  0.00  0.00    +0.000 A 
ATOM     22  C   UNL     1       1.398   8.147  20.735  0.00  0.00    +0.000 A 
ATOM     23  C   UNL     1       1.994   7.593  19.597  0.00  0.00    +0.000 A 
ATOM     24  C   UNL     1       2.058   8.344  18.421  0.00  0.00    +0.000 A 
ATOM     25  C   UNL     1       1.633   9.676  18.420  0.00  0.00    +0.000 A 
BRANCH  23  26
ATOM     26  C   UNL     1       2.594   6.235  19.689  0.00  0.00    +0.000 C 
ATOM     27  O   UNL     1       3.225   5.744  18.756  0.00  0.00    +0.000 OA
ATOM     28  N   UNL     1       2.319   5.525  20.840  0.00  0.00    +0.000 N 
ATOM     29  H   UNL     1       1.548   5.763  21.456  0.00  0.00    +0.000 HD
BRANCH  28  30
ATOM     30  O   UNL     1       2.674   4.154  20.804  0.00  0.00    +0.000 OA
ATOM     31  H   UNL     1       1.991   3.747  21.381  0.00  0.00    +0.000 HD
ENDBRANCH  28  30
ENDBRANCH  23  26
ENDBRANCH  19  20
ENDBRANCH  13  19
TORSDOF 5
ENDMDL
MODEL 8
REMARK VINA RESULT:      -7.4      4.579      8.188
REMARK  Name = 
REMARK  9 active torsions:
REMARK  status: ('A' for Active; 'I' for Inactive)
REMARK    1  A    between atoms: C_1  and  N_2
REMARK    2  A    between atoms: C_9  and  C_10
REMARK    3  A    between atoms: C_10  and  C_11
REMARK    4  A    between atoms: C_10  and  C_12
REMARK    5  A    between atoms: C_10  and  C_13
REMARK    6  A    between atoms: N_17  and  C_18
REMARK    7  A    between atoms: C_18  and  C_19
REMARK    8  A    between atoms: C_22  and  C_23
REMARK    9  A    between atoms: N_25  and  O_26
REMARK                            x       y       z     vdW  Elec       q    Type
REMARK                         _______ _______ _______ _____ _____    ______ ____
ROOT
ATOM      1  C   UNL     1       0.627  15.189  22.655  0.00  0.00    +0.000 C 
ATOM      2  N   UNL     1       0.727  13.997  21.818  0.00  0.00    +0.000 NA
ATOM      3  C   UNL     1       1.941  14.028  20.969  0.00  0.00    +0.000 C 
ATOM      4  C   UNL     1       2.170  12.687  20.212  0.00  0.00    +0.000 C 
ATOM      5  C   UNL     1       0.874  12.216  19.644  0.00  0.00    +0.000 A 
ATOM      6  C   UNL     1      -0.342  12.749  20.017  0.00  0.00    +0.000 A 
ATOM      7  C   UNL     1      -1.345  12.063  19.290  0.00  0.00    +0.000 A 
ATOM      8  C   UNL     1      -2.746  12.215  19.210  0.00  0.00    +0.000 A 
ATOM      9  C   UNL     1      -3.531  11.345  18.433  0.00  0.00    +0.000 A 
ATOM     10  C   UNL     1      -2.866  10.318  17.750  0.00  0.00    +0.000 A 
ATOM     11  C   UNL     1      -1.473  10.146  17.803  0.00  0.00    +0.000 A 
ATOM     12  C   UNL     1      -0.715  11.054  18.557  0.00  0.00    +0.000 A 
ATOM     13  N   UNL     1       0.655  11.214  18.730  0.00  0.00    +0.000 N 
ATOM     14  C   UNL     1      -0.499  13.871  20.992  0.00  0.00    +0.000 C 
ENDROOT
BRANCH   9  15
ATOM     15  C   UNL     1      -5.056  11.564  18.317  0.00  0.00    +0.000 C 
ATOM     16  C   UNL     1      -5.486  12.597  19.379  0.00  0.00    +0.000 C 
ATOM     17  C   UNL     1      -5.462  12.086  16.922  0.00  0.00    +0.000 C 
ATOM     18  C   UNL     1      -5.867  10.268  18.553  0.00  0.00    +0.000 C 
ENDBRANCH   9  15
BRANCH  13  19
ATOM     19  C   UNL     1       1.694  10.463  18.018  0.00  0.00    +0.000 C 
BRANCH  19  20
ATOM     20  C   UNL     1       1.809   9.045  18.544  0.00  0.00    +0.000 A 
ATOM     21  C   UNL     1       1.452   8.741  19.866  0.00  0.00    +0.000 A 
ATOM     22  C   UNL     1       1.713   7.474  20.401  0.00  0.00    +0.000 A 
ATOM     23  C   UNL     1       2.333   6.494  19.617  0.00  0.00    +0.000 A 
ATOM     24  C   UNL     1       2.578   6.749  18.265  0.00  0.00    +0.000 A 
ATOM     25  C   UNL     1       2.311   8.014  17.735  0.00  0.00    +0.000 A 
BRANCH  23  26
ATOM     26  C   UNL     1       2.763   5.224  20.263  0.00  0.00    +0.000 C 
ATOM     27  O   UNL     1       3.555   4.460  19.717  0.00  0.00    +0.000 OA
ATOM     28  N   UNL     1       2.150   4.912  21.458  0.00  0.00    +0.000 N 
ATOM     29  H   UNL     1       1.277   5.340  21.751  0.00  0.00    +0.000 HD
BRANCH  28  30
ATOM     30  O   UNL     1       2.374   3.594  21.926  0.00  0.00    +0.000 OA
ATOM     31  H   UNL     1       2.133   3.666  22.875  0.00  0.00    +0.000 HD
ENDBRANCH  28  30
ENDBRANCH  23  26
ENDBRANCH  19  20
ENDBRANCH  13  19
TORSDOF 5
ENDMDL
MODEL 9
REMARK VINA RESULT:      -7.4      0.950      1.372
REMARK  Name = 
REMARK  9 active torsions:
REMARK  status: ('A' for Active; 'I' for Inactive)
REMARK    1  A    between atoms: C_1  and  N_2
REMARK    2  A    between atoms: C_9  and  C_10
REMARK    3  A    between atoms: C_10  and  C_11
REMARK    4  A    between atoms: C_10  and  C_12
REMARK    5  A    between atoms: C_10  and  C_13
REMARK    6  A    between atoms: N_17  and  C_18
REMARK    7  A    between atoms: C_18  and  C_19
REMARK    8  A    between atoms: C_22  and  C_23
REMARK    9  A    between atoms: N_25  and  O_26
REMARK                            x       y       z     vdW  Elec       q    Type
REMARK                         _______ _______ _______ _____ _____    ______ ____
ROOT
ATOM      1  C   UNL     1       1.196   2.325  21.805  0.00  0.00    +0.000 C 
ATOM      2  N   UNL     1       2.104   2.898  20.815  0.00  0.00    +0.000 NA
ATOM      3  C   UNL     1       3.518   2.601  21.139  0.00  0.00    +0.000 C 
ATOM      4  C   UNL     1       4.491   3.035  20.003  0.00  0.00    +0.000 C 
ATOM      5  C   UNL     1       4.105   4.391  19.517  0.00  0.00    +0.000 A 
ATOM      6  C   UNL     1       2.901   4.984  19.836  0.00  0.00    +0.000 A 
ATOM      7  C   UNL     1       2.872   6.250  19.203  0.00  0.00    +0.000 A 
ATOM      8  C   UNL     1       1.940   7.310  19.219  0.00  0.00    +0.000 A 
ATOM      9  C   UNL     1       2.133   8.463  18.440  0.00  0.00    +0.000 A 
ATOM     10  C   UNL     1       3.283   8.512  17.641  0.00  0.00    +0.000 A 
ATOM     11  C   UNL     1       4.233   7.478  17.609  0.00  0.00    +0.000 A 
ATOM     12  C   UNL     1       4.030   6.357  18.428  0.00  0.00    +0.000 A 
ATOM     13  N   UNL     1       4.809   5.238  18.695  0.00  0.00    +0.000 N 
ATOM     14  C   UNL     1       1.872   4.360  20.724  0.00  0.00    +0.000 C 
ENDROOT
BRANCH   9  15
ATOM     15  C   UNL     1       1.128   9.634  18.515  0.00  0.00    +0.000 C 
ATOM     16  C   UNL     1       0.612   9.745  19.965  0.00  0.00    +0.000 C 
ATOM     17  C   UNL     1       1.771  10.978  18.110  0.00  0.00    +0.000 C 
ATOM     18  C   UNL     1      -0.093   9.436  17.587  0.00  0.00    +0.000 C 
ENDBRANCH   9  15
BRANCH  13  19
ATOM     19  C   UNL     1       6.175   5.020  18.210  0.00  0.00    +0.000 C 
BRANCH  19  20
ATOM     20  C   UNL     1       6.181   4.538  16.772  0.00  0.00    +0.000 A 
ATOM     21  C   UNL     1       7.111   5.043  15.851  0.00  0.00    +0.000 A 
ATOM     22  C   UNL     1       7.011   4.726  14.492  0.00  0.00    +0.000 A 
ATOM     23  C   UNL     1       5.981   3.895  14.037  0.00  0.00    +0.000 A 
ATOM     24  C   UNL     1       5.127   3.289  14.963  0.00  0.00    +0.000 A 
ATOM     25  C   UNL     1       5.234   3.606  16.320  0.00  0.00    +0.000 A 
BRANCH  23  26
ATOM     26  C   UNL     1       5.791   3.722  12.572  0.00  0.00    +0.000 C 
ATOM     27  O   UNL     1       6.698   3.943  11.774  0.00  0.00    +0.000 OA
ATOM     28  N   UNL     1       4.516   3.396  12.158  0.00  0.00    +0.000 N 
ATOM     29  H   UNL     1       3.700   3.536  12.745  0.00  0.00    +0.000 HD
BRANCH  28  30
ATOM     30  O   UNL     1       4.291   3.488  10.763  0.00  0.00    +0.000 OA
ATOM     31  H   UNL     1       3.312   3.432  10.706  0.00  0.00    +0.000 HD
ENDBRANCH  28  30
ENDBRANCH  23  26
ENDBRANCH  19  20
ENDBRANCH  13  19
TORSDOF 5
ENDMDL
