MODEL 1
REMARK VINA RESULT:      -7.4      0.000      0.000
REMARK  Name = 
REMARK  2 active torsions:
REMARK  status: ('A' for Active; 'I' for Inactive)
REMARK    1  A    between atoms: C_5  and  S_6
REMARK    2  A    between atoms: S_6  and  C_8
REMARK                            x       y       z     vdW  Elec       q    Type
REMARK                         _______ _______ _______ _____ _____    ______ ____
ROOT
ATOM      1  S   UNL     1       4.149   3.582  18.511  0.00  0.00    +0.000 S 
ATOM      2  O   UNL     1       4.769   2.808  19.731  0.00  0.00    +0.000 OA
ENDROOT
BRANCH   1   3
ATOM      3  C   UNL     1       3.336   5.056  19.119  0.00  0.00    +0.000 A 
ATOM      4  C   UNL     1       2.693   5.098  20.345  0.00  0.00    +0.000 A 
ATOM      5  C   UNL     1       1.995   6.255  20.674  0.00  0.00    +0.000 A 
ATOM      6  C   UNL     1       1.957   7.325  19.771  0.00  0.00    +0.000 A 
ATOM      7  C   UNL     1       1.257   8.510  20.059  0.00  0.00    +0.000 A 
ATOM      8  C   UNL     1       1.240   9.558  19.142  0.00  0.00    +0.000 A 
ATOM      9  C   UNL     1       1.921   9.428  17.937  0.00  0.00    +0.000 A 
ATOM     10  C   UNL     1       2.612   8.246  17.652  0.00  0.00    +0.000 A 
ATOM     11  C   UNL     1       2.642   7.184  18.546  0.00  0.00    +0.000 A 
ATOM     12  N   UNL     1       3.313   6.065  18.216  0.00  0.00    +0.000 NA
ENDBRANCH   1   3
BRANCH   1  17
ATOM     13  N   UNL     1       7.512   5.323  14.646  0.00  0.00    +0.000 N 
ATOM     14  C   UNL     1       6.937   4.962  15.797  0.00  0.00    +0.000 A 
ATOM     15  N   UNL     1       7.488   5.162  16.968  0.00  0.00    +0.000 NA
ATOM     16  C   UNL     1       6.642   4.709  17.968  0.00  0.00    +0.000 A 
ATOM     17  C   UNL     1       5.461   4.154  17.531  0.00  0.00    +0.000 A 
ATOM     18  S   UNL     1       5.396   4.208  15.824  0.00  0.00    +0.000 S 
ATOM     19  H   UNL     1       8.418   5.774  14.658  0.00  0.00    +0.000 HD
ATOM     20  H   UNL     1       7.072   5.169  13.749  0.00  0.00    +0.000 HD
ENDBRANCH   1  17
TORSDOF 2
ENDMDL
MODEL 2
REMARK VINA RESULT:      -7.1      2.564      3.884
REMARK  Name = 
REMARK  2 active torsions:
REMARK  status: ('A' for Active; 'I' for Inactive)
REMARK    1  A    between atoms: C_5  and  S_6
REMARK    2  A    between atoms: S_6  and  C_8
REMARK                            x       y       z     vdW  Elec       q    Type
REMARK                         _______ _______ _______ _____ _____    ______ ____
ROOT
ATOM      1  S   UNL     1       6.951   5.065  17.984  0.00  0.00    +0.000 S 
ATOM      2  O   UNL     1       7.471   6.537  18.180  0.00  0.00    +0.000 OA
ENDROOT
BRANCH   1   3
ATOM      3  C   UNL     1       5.252   4.980  18.542  0.00  0.00    +0.000 A 
ATOM      4  C   UNL     1       4.348   6.007  18.332  0.00  0.00    +0.000 A 
ATOM      5  C   UNL     1       3.086   5.890  18.905  0.00  0.00    +0.000 A 
ATOM      6  C   UNL     1       2.771   4.760  19.669  0.00  0.00    +0.000 A 
ATOM      7  C   UNL     1       1.510   4.604  20.273  0.00  0.00    +0.000 A 
ATOM      8  C   UNL     1       1.226   3.467  21.024  0.00  0.00    +0.000 A 
ATOM      9  C   UNL     1       2.196   2.483  21.175  0.00  0.00    +0.000 A 
ATOM     10  C   UNL     1       3.449   2.642  20.578  0.00  0.00    +0.000 A 
ATOM     11  C   UNL     1       3.762   3.768  19.826  0.00  0.00    +0.000 A 
ATOM     12  N   UNL     1       4.988   3.877  19.283  0.00  0.00    +0.000 NA
ENDBRANCH   1   3
BRANCH   1  17
ATOM     13  N   UNL     1       5.895   3.477  12.920  0.00  0.00    +0.000 N 
ATOM     14  C   UNL     1       6.379   4.059  14.021  0.00  0.00    +0.000 A 
ATOM     15  N   UNL     1       7.241   5.046  13.991  0.00  0.00    +0.000 NA
ATOM     16  C   UNL     1       7.530   5.455  15.284  0.00  0.00    +0.000 A 
ATOM     17  C   UNL     1       6.889   4.754  16.279  0.00  0.00    +0.000 A 
ATOM     18  S   UNL     1       5.886   3.556  15.585  0.00  0.00    +0.000 S 
ATOM     19  H   UNL     1       6.196   3.798  12.009  0.00  0.00    +0.000 HD
ATOM     20  H   UNL     1       5.226   2.721  12.958  0.00  0.00    +0.000 HD
ENDBRANCH   1  17
TORSDOF 2
ENDMDL
MODEL 3
REMARK VINA RESULT:      -7.0      3.283      4.300
REMARK  Name = 
REMARK  2 active torsions:
REMARK  status: ('A' for Active; 'I' for Inactive)
REMARK    1  A    between atoms: C_5  and  S_6
REMARK    2  A    between atoms: S_6  and  C_8
REMARK                            x       y       z     vdW  Elec       q    Type
REMARK                         _______ _______ _______ _____ _____    ______ ____
ROOT
ATOM      1  S   UNL     1       4.970   4.309  16.123  0.00  0.00    +0.000 S 
ATOM      2  O   UNL     1       5.875   3.032  15.969  0.00  0.00    +0.000 OA
ENDROOT
BRANCH   1   3
ATOM      3  C   UNL     1       3.651   3.941  17.275  0.00  0.00    +0.000 A 
ATOM      4  C   UNL     1       2.330   4.270  17.022  0.00  0.00    +0.000 A 
ATOM      5  C   UNL     1       1.399   4.044  18.031  0.00  0.00    +0.000 A 
ATOM      6  C   UNL     1       1.815   3.504  19.254  0.00  0.00    +0.000 A 
ATOM      7  C   UNL     1       0.909   3.266  20.303  0.00  0.00    +0.000 A 
ATOM      8  C   UNL     1       1.353   2.726  21.507  0.00  0.00    +0.000 A 
ATOM      9  C   UNL     1       2.700   2.421  21.668  0.00  0.00    +0.000 A 
ATOM     10  C   UNL     1       3.599   2.663  20.625  0.00  0.00    +0.000 A 
ATOM     11  C   UNL     1       3.184   3.204  19.415  0.00  0.00    +0.000 A 
ATOM     12  N   UNL     1       4.093   3.428  18.448  0.00  0.00    +0.000 NA
ENDBRANCH   1   3
BRANCH   1  17
ATOM     13  N   UNL     1       8.519   7.293  18.914  0.00  0.00    +0.000 N 
ATOM     14  C   UNL     1       7.539   6.851  18.121  0.00  0.00    +0.000 A 
ATOM     15  N   UNL     1       6.853   7.632  17.323  0.00  0.00    +0.000 NA
ATOM     16  C   UNL     1       5.931   6.882  16.610  0.00  0.00    +0.000 A 
ATOM     17  C   UNL     1       5.923   5.536  16.895  0.00  0.00    +0.000 A 
ATOM     18  S   UNL     1       7.108   5.191  18.078  0.00  0.00    +0.000 S 
ATOM     19  H   UNL     1       8.759   8.276  18.914  0.00  0.00    +0.000 HD
ATOM     20  H   UNL     1       9.044   6.677  19.519  0.00  0.00    +0.000 HD
ENDBRANCH   1  17
TORSDOF 2
ENDMDL
MODEL 4
REMARK VINA RESULT:      -7.0      1.539      2.340
REMARK  Name = 
REMARK  2 active torsions:
REMARK  status: ('A' for Active; 'I' for Inactive)
REMARK    1  A    between atoms: C_5  and  S_6
REMARK    2  A    between atoms: S_6  and  C_8
REMARK                            x       y       z     vdW  Elec       q    Type
REMARK                         _______ _______ _______ _____ _____    ______ ____
ROOT
ATOM      1  S   UNL     1       4.603   4.981  18.713  0.00  0.00    +0.000 S 
ATOM      2  O   UNL     1       5.744   5.301  19.747  0.00  0.00    +0.000 OA
ENDROOT
BRANCH   1   3
ATOM      3  C   UNL     1       3.473   6.368  18.661  0.00  0.00    +0.000 A 
ATOM      4  C   UNL     1       3.425   7.249  17.594  0.00  0.00    +0.000 A 
ATOM      5  C   UNL     1       2.594   8.358  17.703  0.00  0.00    +0.000 A 
ATOM      6  C   UNL     1       1.844   8.554  18.869  0.00  0.00    +0.000 A 
ATOM      7  C   UNL     1       0.996   9.665  19.024  0.00  0.00    +0.000 A 
ATOM      8  C   UNL     1       0.260   9.831  20.195  0.00  0.00    +0.000 A 
ATOM      9  C   UNL     1       0.367   8.890  21.212  0.00  0.00    +0.000 A 
ATOM     10  C   UNL     1       1.214   7.788  21.057  0.00  0.00    +0.000 A 
ATOM     11  C   UNL     1       1.962   7.600  19.902  0.00  0.00    +0.000 A 
ATOM     12  N   UNL     1       2.771   6.529  19.808  0.00  0.00    +0.000 NA
ENDBRANCH   1   3
BRANCH   1  17
ATOM     13  N   UNL     1       7.680   5.321  14.275  0.00  0.00    +0.000 N 
ATOM     14  C   UNL     1       6.730   5.053  15.176  0.00  0.00    +0.000 A 
ATOM     15  N   UNL     1       5.754   4.207  14.958  0.00  0.00    +0.000 NA
ATOM     16  C   UNL     1       4.949   4.119  16.084  0.00  0.00    +0.000 A 
ATOM     17  C   UNL     1       5.325   4.919  17.138  0.00  0.00    +0.000 A 
ATOM     18  S   UNL     1       6.730   5.799  16.720  0.00  0.00    +0.000 S 
ATOM     19  H   UNL     1       7.662   4.861  13.374  0.00  0.00    +0.000 HD
ATOM     20  H   UNL     1       8.432   5.971  14.460  0.00  0.00    +0.000 HD
ENDBRANCH   1  17
TORSDOF 2
ENDMDL
MODEL 5
REMARK VINA RESULT:      -7.0      1.326      2.129
REMARK  Name = 
REMARK  2 active torsions:
REMARK  status: ('A' for Active; 'I' for Inactive)
REMARK    1  A    between atoms: C_5  and  S_6
REMARK    2  A    between atoms: S_6  and  C_8
REMARK                            x       y       z     vdW  Elec       q    Type
REMARK                         _______ _______ _______ _____ _____    ______ ____
ROOT
ATOM      1  S   UNL     1       5.091   4.787  18.712  0.00  0.00    +0.000 S 
ATOM      2  O   UNL     1       6.177   5.175  19.782  0.00  0.00    +0.000 OA
ENDROOT
BRANCH   1   3
ATOM      3  C   UNL     1       3.911   6.126  18.583  0.00  0.00    +0.000 A 
ATOM      4  C   UNL     1       3.868   6.977  17.492  0.00  0.00    +0.000 A 
ATOM      5  C   UNL     1       2.990   8.054  17.541  0.00  0.00    +0.000 A 
ATOM      6  C   UNL     1       2.191   8.249  18.674  0.00  0.00    +0.000 A 
ATOM      7  C   UNL     1       1.295   9.329  18.770  0.00  0.00    +0.000 A 
ATOM      8  C   UNL     1       0.510   9.494  19.909  0.00  0.00    +0.000 A 
ATOM      9  C   UNL     1       0.616   8.583  20.953  0.00  0.00    +0.000 A 
ATOM     10  C   UNL     1       1.511   7.513  20.858  0.00  0.00    +0.000 A 
ATOM     11  C   UNL     1       2.308   7.327  19.736  0.00  0.00    +0.000 A 
ATOM     12  N   UNL     1       3.161   6.287  19.699  0.00  0.00    +0.000 NA
ENDBRANCH   1   3
BRANCH   1  17
ATOM     13  N   UNL     1       6.612   4.115  13.562  0.00  0.00    +0.000 N 
ATOM     14  C   UNL     1       6.524   4.440  14.856  0.00  0.00    +0.000 A 
ATOM     15  N   UNL     1       7.379   5.230  15.457  0.00  0.00    +0.000 NA
ATOM     16  C   UNL     1       7.009   5.401  16.782  0.00  0.00    +0.000 A 
ATOM     17  C   UNL     1       5.878   4.719  17.168  0.00  0.00    +0.000 A 
ATOM     18  S   UNL     1       5.249   3.847  15.839  0.00  0.00    +0.000 S 
ATOM     19  H   UNL     1       7.369   4.485  13.002  0.00  0.00    +0.000 HD
ATOM     20  H   UNL     1       5.940   3.510  13.110  0.00  0.00    +0.000 HD
ENDBRANCH   1  17
TORSDOF 2
ENDMDL
MODEL 6
REMARK VINA RESULT:      -7.0      0.850      1.111
REMARK  Name = 
REMARK  2 active torsions:
REMARK  status: ('A' for Active; 'I' for Inactive)
REMARK    1  A    between atoms: C_5  and  S_6
REMARK    2  A    between atoms: S_6  and  C_8
REMARK                            x       y       z     vdW  Elec       q    Type
REMARK                         _______ _______ _______ _____ _____    ______ ____
ROOT
ATOM      1  S   UNL     1       4.176   3.673  18.582  0.00  0.00    +0.000 S 
ATOM      2  O   UNL     1       5.241   3.232  19.652  0.00  0.00    +0.000 OA
ENDROOT
BRANCH   1   3
ATOM      3  C   UNL     1       3.329   5.131  19.183  0.00  0.00    +0.000 A 
ATOM      4  C   UNL     1       2.661   5.156  20.395  0.00  0.00    +0.000 A 
ATOM      5  C   UNL     1       1.939   6.300  20.716  0.00  0.00    +0.000 A 
ATOM      6  C   UNL     1       1.904   7.376  19.820  0.00  0.00    +0.000 A 
ATOM      7  C   UNL     1       1.182   8.549  20.102  0.00  0.00    +0.000 A 
ATOM      8  C   UNL     1       1.169   9.603  19.191  0.00  0.00    +0.000 A 
ATOM      9  C   UNL     1       1.877   9.490  18.000  0.00  0.00    +0.000 A 
ATOM     10  C   UNL     1       2.591   8.321  17.721  0.00  0.00    +0.000 A 
ATOM     11  C   UNL     1       2.618   7.253  18.609  0.00  0.00    +0.000 A 
ATOM     12  N   UNL     1       3.311   6.146  18.287  0.00  0.00    +0.000 NA
ENDBRANCH   1   3
BRANCH   1  17
ATOM     13  N   UNL     1       7.712   5.368  14.853  0.00  0.00    +0.000 N 
ATOM     14  C   UNL     1       6.641   4.918  15.513  0.00  0.00    +0.000 A 
ATOM     15  N   UNL     1       5.558   4.489  14.914  0.00  0.00    +0.000 NA
ATOM     16  C   UNL     1       4.637   4.063  15.859  0.00  0.00    +0.000 A 
ATOM     17  C   UNL     1       5.037   4.193  17.169  0.00  0.00    +0.000 A 
ATOM     18  S   UNL     1       6.611   4.855  17.227  0.00  0.00    +0.000 S 
ATOM     19  H   UNL     1       7.707   5.387  13.842  0.00  0.00    +0.000 HD
ATOM     20  H   UNL     1       8.545   5.689  15.329  0.00  0.00    +0.000 HD
ENDBRANCH   1  17
TORSDOF 2
ENDMDL
MODEL 7
REMARK VINA RESULT:      -6.9      2.878      4.094
REMARK  Name = 
REMARK  2 active torsions:
REMARK  status: ('A' for Active; 'I' for Inactive)
REMARK    1  A    between atoms: C_5  and  S_6
REMARK    2  A    between atoms: S_6  and  C_8
REMARK                            x       y       z     vdW  Elec       q    Type
REMARK                         _______ _______ _______ _____ _____    ______ ____
ROOT
ATOM      1  S   UNL     1       5.439   4.753  16.055  0.00  0.00    +0.000 S 
ATOM      2  O   UNL     1       6.197   3.671  15.201  0.00  0.00    +0.000 OA
ENDROOT
BRANCH   1   3
ATOM      3  C   UNL     1       4.285   3.921  17.141  0.00  0.00    +0.000 A 
ATOM      4  C   UNL     1       3.936   2.591  16.977  0.00  0.00    +0.000 A 
ATOM      5  C   UNL     1       2.945   2.072  17.803  0.00  0.00    +0.000 A 
ATOM      6  C   UNL     1       2.334   2.894  18.758  0.00  0.00    +0.000 A 
ATOM      7  C   UNL     1       1.324   2.413  19.609  0.00  0.00    +0.000 A 
ATOM      8  C   UNL     1       0.737   3.254  20.552  0.00  0.00    +0.000 A 
ATOM      9  C   UNL     1       1.158   4.575  20.649  0.00  0.00    +0.000 A 
ATOM     10  C   UNL     1       2.160   5.052  19.799  0.00  0.00    +0.000 A 
ATOM     11  C   UNL     1       2.759   4.237  18.847  0.00  0.00    +0.000 A 
ATOM     12  N   UNL     1       3.710   4.749  18.046  0.00  0.00    +0.000 NA
ENDBRANCH   1   3
BRANCH   1  17
ATOM     13  N   UNL     1       8.635   8.012  18.961  0.00  0.00    +0.000 N 
ATOM     14  C   UNL     1       7.994   6.972  18.420  0.00  0.00    +0.000 A 
ATOM     15  N   UNL     1       8.111   5.746  18.866  0.00  0.00    +0.000 NA
ATOM     16  C   UNL     1       7.307   4.897  18.122  0.00  0.00    +0.000 A 
ATOM     17  C   UNL     1       6.601   5.499  17.106  0.00  0.00    +0.000 A 
ATOM     18  S   UNL     1       6.939   7.174  17.083  0.00  0.00    +0.000 S 
ATOM     19  H   UNL     1       9.246   7.867  19.755  0.00  0.00    +0.000 HD
ATOM     20  H   UNL     1       8.529   8.954  18.611  0.00  0.00    +0.000 HD
ENDBRANCH   1  17
TORSDOF 2
ENDMDL
MODEL 8
REMARK VINA RESULT:      -6.9      3.470      5.655
REMARK  Name = 
REMARK  2 active torsions:
REMARK  status: ('A' for Active; 'I' for Inactive)
REMARK    1  A    between atoms: C_5  and  S_6
REMARK    2  A    between atoms: S_6  and  C_8
REMARK                            x       y       z     vdW  Elec       q    Type
REMARK                         _______ _______ _______ _____ _____    ______ ____
ROOT
ATOM      1  S   UNL     1       3.538   2.886  17.653  0.00  0.00    +0.000 S 
ATOM      2  O   UNL     1       2.231   3.047  16.794  0.00  0.00    +0.000 OA
ENDROOT
BRANCH   1   3
ATOM      3  C   UNL     1       4.495   4.393  17.527  0.00  0.00    +0.000 A 
ATOM      4  C   UNL     1       4.271   5.336  16.538  0.00  0.00    +0.000 A 
ATOM      5  C   UNL     1       5.144   6.416  16.459  0.00  0.00    +0.000 A 
ATOM      6  C   UNL     1       6.210   6.516  17.361  0.00  0.00    +0.000 A 
ATOM      7  C   UNL     1       7.121   7.587  17.312  0.00  0.00    +0.000 A 
ATOM      8  C   UNL     1       8.169   7.661  18.226  0.00  0.00    +0.000 A 
ATOM      9  C   UNL     1       8.312   6.669  19.190  0.00  0.00    +0.000 A 
ATOM     10  C   UNL     1       7.408   5.604  19.233  0.00  0.00    +0.000 A 
ATOM     11  C   UNL     1       6.356   5.503  18.332  0.00  0.00    +0.000 A 
ATOM     12  N   UNL     1       5.521   4.451  18.410  0.00  0.00    +0.000 NA
ENDBRANCH   1   3
BRANCH   1  17
ATOM     13  N   UNL     1       1.041   2.555  22.442  0.00  0.00    +0.000 N 
ATOM     14  C   UNL     1       1.928   2.601  21.444  0.00  0.00    +0.000 A 
ATOM     15  N   UNL     1       3.206   2.365  21.609  0.00  0.00    +0.000 NA
ATOM     16  C   UNL     1       3.862   2.459  20.390  0.00  0.00    +0.000 A 
ATOM     17  C   UNL     1       3.063   2.783  19.318  0.00  0.00    +0.000 A 
ATOM     18  S   UNL     1       1.445   2.964  19.838  0.00  0.00    +0.000 S 
ATOM     19  H   UNL     1       1.351   2.330  23.379  0.00  0.00    +0.000 HD
ATOM     20  H   UNL     1       0.057   2.732  22.299  0.00  0.00    +0.000 HD
ENDBRANCH   1  17
TORSDOF 2
ENDMDL
MODEL 9
REMARK VINA RESULT:      -6.9      1.047      1.135
REMARK  Name = 
REMARK  2 active torsions:
REMARK  status: ('A' for Active; 'I' for Inactive)
REMARK    1  A    between atoms: C_5  and  S_6
REMARK    2  A    between atoms: S_6  and  C_8
REMARK                            x       y       z     vdW  Elec       q    Type
REMARK                         _______ _______ _______ _____ _____    ______ ____
ROOT
ATOM      1  S   UNL     1       2.974   3.936  18.628  0.00  0.00    +0.000 S 
ATOM      2  O   UNL     1       2.928   2.891  19.803  0.00  0.00    +0.000 OA
ENDROOT
BRANCH   1   3
ATOM      3  C   UNL     1       2.459   5.530  19.259  0.00  0.00    +0.000 A 
ATOM      4  C   UNL     1       1.915   5.690  20.522  0.00  0.00    +0.000 A 
ATOM      5  C   UNL     1       1.442   6.950  20.871  0.00  0.00    +0.000 A 
ATOM      6  C   UNL     1       1.523   8.003  19.953  0.00  0.00    +0.000 A 
ATOM      7  C   UNL     1       1.051   9.291  20.262  0.00  0.00    +0.000 A 
ATOM      8  C   UNL     1       1.149  10.320  19.327  0.00  0.00    +0.000 A 
ATOM      9  C   UNL     1       1.718  10.067  18.085  0.00  0.00    +0.000 A 
ATOM     10  C   UNL     1       2.182   8.784  17.779  0.00  0.00    +0.000 A 
ATOM     11  C   UNL     1       2.094   7.740  18.689  0.00  0.00    +0.000 A 
ATOM     12  N   UNL     1       2.545   6.521  18.340  0.00  0.00    +0.000 NA
ENDBRANCH   1   3
BRANCH   1  17
ATOM     13  N   UNL     1       7.757   4.604  16.187  0.00  0.00    +0.000 N 
ATOM     14  C   UNL     1       6.757   4.471  17.063  0.00  0.00    +0.000 A 
ATOM     15  N   UNL     1       6.902   4.656  18.352  0.00  0.00    +0.000 NA
ATOM     16  C   UNL     1       5.686   4.476  18.992  0.00  0.00    +0.000 A 
ATOM     17  C   UNL     1       4.635   4.138  18.171  0.00  0.00    +0.000 A 
ATOM     18  S   UNL     1       5.173   4.054  16.552  0.00  0.00    +0.000 S 
ATOM     19  H   UNL     1       8.680   4.858  16.514  0.00  0.00    +0.000 HD
ATOM     20  H   UNL     1       7.628   4.464  15.195  0.00  0.00    +0.000 HD
ENDBRANCH   1  17
TORSDOF 2
ENDMDL
