MODEL 1
REMARK VINA RESULT:      -7.2      0.000      0.000
REMARK  Name = 
REMARK  5 active torsions:
REMARK  status: ('A' for Active; 'I' for Inactive)
REMARK    1  A    between atoms: C_1  and  C_2
REMARK    2  A    between atoms: C_2  and  C_3
REMARK    3  A    between atoms: C_6  and  C_7
REMARK    4  A    between atoms: C_8  and  C_9
REMARK    5  A    between atoms: C_11  and  N_12
REMARK                            x       y       z     vdW  Elec       q    Type
REMARK                         _______ _______ _______ _____ _____    ______ ____
ROOT
ATOM      1  C   UNL     1       2.568   6.037  18.193  0.00  0.00    +0.000 C 
ATOM      2  C   UNL     1       2.086   7.297  18.914  0.00  0.00    +0.000 C 
ATOM      3  C   UNL     1       1.630   7.256  20.184  0.00  0.00    +0.000 C 
ATOM      4  O   UNL     1       1.554   6.061  20.888  0.00  0.00    +0.000 OA
ATOM      5  C   UNL     1       1.854   4.856  20.277  0.00  0.00    +0.000 C 
ATOM      6  C   UNL     1       2.316   4.794  19.016  0.00  0.00    +0.000 C 
ATOM      7  C   UNL     1       2.602   3.458  18.415  0.00  0.00    +0.000 C 
ATOM      8  O   UNL     1       2.959   3.361  17.243  0.00  0.00    +0.000 OA
ATOM      9  C   UNL     1       2.489   2.229  19.293  0.00  0.00    +0.000 C 
ATOM     10  C   UNL     1       1.388   2.392  20.326  0.00  0.00    +0.000 C 
ATOM     11  C   UNL     1       1.590   3.661  21.144  0.00  0.00    +0.000 C 
ENDROOT
BRANCH   1  15
ATOM     12  C   UNL     1       6.461   6.433  17.633  0.00  0.00    +0.000 A 
ATOM     13  C   UNL     1       5.880   6.525  16.386  0.00  0.00    +0.000 A 
ATOM     14  C   UNL     1       4.467   6.383  16.438  0.00  0.00    +0.000 A 
ATOM     15  C   UNL     1       4.011   6.166  17.723  0.00  0.00    +0.000 A 
ATOM     16  S   UNL     1       5.312   6.053  18.839  0.00  0.00    +0.000 S 
BRANCH  12  18
ATOM     17  C   UNL     1       8.205   8.143  18.066  0.00  0.00    +0.000 C 
ATOM     18  C   UNL     1       7.895   6.654  17.995  0.00  0.00    +0.000 C 
ENDBRANCH  12  18
ENDBRANCH   1  15
BRANCH   3  19
ATOM     19  N   UNL     1       1.212   8.336  20.927  0.00  0.00    +0.000 N 
ATOM     20  H   UNL     1       1.673   8.451  21.828  0.00  0.00    +0.000 HD
ATOM     21  H   UNL     1       0.199   8.379  20.996  0.00  0.00    +0.000 HD
ENDBRANCH   3  19
BRANCH   2  22
ATOM     22  C   UNL     1       2.172   8.543  18.215  0.00  0.00    +0.000 C 
ATOM     23  N   UNL     1       2.209   9.548  17.640  0.00  0.00    +0.000 NA
ENDBRANCH   2  22
TORSDOF 4
ENDMDL
MODEL 2
REMARK VINA RESULT:      -6.8      1.241      1.761
REMARK  Name = 
REMARK  5 active torsions:
REMARK  status: ('A' for Active; 'I' for Inactive)
REMARK    1  A    between atoms: C_1  and  C_2
REMARK    2  A    between atoms: C_2  and  C_3
REMARK    3  A    between atoms: C_6  and  C_7
REMARK    4  A    between atoms: C_8  and  C_9
REMARK    5  A    between atoms: C_11  and  N_12
REMARK                            x       y       z     vdW  Elec       q    Type
REMARK                         _______ _______ _______ _____ _____    ______ ____
ROOT
ATOM      1  C   UNL     1       2.828   5.637  18.181  0.00  0.00    +0.000 C 
ATOM      2  C   UNL     1       2.475   6.979  18.824  0.00  0.00    +0.000 C 
ATOM      3  C   UNL     1       1.984   7.055  20.080  0.00  0.00    +0.000 C 
ATOM      4  O   UNL     1       1.755   5.914  20.838  0.00  0.00    +0.000 OA
ATOM      5  C   UNL     1       1.932   4.653  20.295  0.00  0.00    +0.000 C 
ATOM      6  C   UNL     1       2.416   4.475  19.055  0.00  0.00    +0.000 C 
ATOM      7  C   UNL     1       2.564   3.085  18.527  0.00  0.00    +0.000 C 
ATOM      8  O   UNL     1       2.937   2.889  17.373  0.00  0.00    +0.000 OA
ATOM      9  C   UNL     1       2.289   1.924  19.460  0.00  0.00    +0.000 C 
ATOM     10  C   UNL     1       1.188   2.262  20.450  0.00  0.00    +0.000 C 
ATOM     11  C   UNL     1       1.512   3.542  21.211  0.00  0.00    +0.000 C 
ENDROOT
BRANCH   1  15
ATOM     12  C   UNL     1       6.369   5.324  16.452  0.00  0.00    +0.000 A 
ATOM     13  C   UNL     1       6.608   5.429  17.807  0.00  0.00    +0.000 A 
ATOM     14  C   UNL     1       5.409   5.565  18.556  0.00  0.00    +0.000 A 
ATOM     15  C   UNL     1       4.288   5.579  17.750  0.00  0.00    +0.000 A 
ATOM     16  S   UNL     1       4.712   5.513  16.087  0.00  0.00    +0.000 S 
BRANCH  12  18
ATOM     17  C   UNL     1       6.661   4.465  14.143  0.00  0.00    +0.000 C 
ATOM     18  C   UNL     1       7.359   5.046  15.365  0.00  0.00    +0.000 C 
ENDBRANCH  12  18
ENDBRANCH   1  15
BRANCH   3  19
ATOM     19  N   UNL     1       1.673   8.212  20.756  0.00  0.00    +0.000 N 
ATOM     20  H   UNL     1       1.860   9.077  20.253  0.00  0.00    +0.000 HD
ATOM     21  H   UNL     1       2.058   8.215  21.697  0.00  0.00    +0.000 HD
ENDBRANCH   3  19
BRANCH   2  22
ATOM     22  C   UNL     1       2.719   8.169  18.068  0.00  0.00    +0.000 C 
ATOM     23  N   UNL     1       2.888   9.128  17.440  0.00  0.00    +0.000 NA
ENDBRANCH   2  22
TORSDOF 4
ENDMDL
MODEL 3
REMARK VINA RESULT:      -6.1      3.269      4.296
REMARK  Name = 
REMARK  5 active torsions:
REMARK  status: ('A' for Active; 'I' for Inactive)
REMARK    1  A    between atoms: C_1  and  C_2
REMARK    2  A    between atoms: C_2  and  C_3
REMARK    3  A    between atoms: C_6  and  C_7
REMARK    4  A    between atoms: C_8  and  C_9
REMARK    5  A    between atoms: C_11  and  N_12
REMARK                            x       y       z     vdW  Elec       q    Type
REMARK                         _______ _______ _______ _____ _____    ______ ____
ROOT
ATOM      1  C   UNL     1       5.071   5.611  17.705  0.00  0.00    +0.000 C 
ATOM      2  C   UNL     1       6.396   5.988  18.371  0.00  0.00    +0.000 C 
ATOM      3  C   UNL     1       6.886   5.291  19.419  0.00  0.00    +0.000 C 
ATOM      4  O   UNL     1       6.196   4.211  19.956  0.00  0.00    +0.000 OA
ATOM      5  C   UNL     1       4.935   3.873  19.495  0.00  0.00    +0.000 C 
ATOM      6  C   UNL     1       4.364   4.508  18.458  0.00  0.00    +0.000 C 
ATOM      7  C   UNL     1       2.993   4.102  18.027  0.00  0.00    +0.000 C 
ATOM      8  O   UNL     1       2.414   4.707  17.128  0.00  0.00    +0.000 OA
ATOM      9  C   UNL     1       2.352   2.900  18.688  0.00  0.00    +0.000 C 
ATOM     10  C   UNL     1       2.769   2.786  20.144  0.00  0.00    +0.000 C 
ATOM     11  C   UNL     1       4.287   2.769  20.277  0.00  0.00    +0.000 C 
ENDROOT
BRANCH   1  15
ATOM     12  C   UNL     1       5.822   4.267  14.065  0.00  0.00    +0.000 A 
ATOM     13  C   UNL     1       5.402   5.572  13.915  0.00  0.00    +0.000 A 
ATOM     14  C   UNL     1       5.080   6.180  15.159  0.00  0.00    +0.000 A 
ATOM     15  C   UNL     1       5.245   5.314  16.222  0.00  0.00    +0.000 A 
ATOM     16  S   UNL     1       5.708   3.749  15.688  0.00  0.00    +0.000 S 
BRANCH  12  18
ATOM     17  C   UNL     1       5.320   3.115  11.926  0.00  0.00    +0.000 C 
ATOM     18  C   UNL     1       6.360   3.351  13.011  0.00  0.00    +0.000 C 
ENDBRANCH  12  18
ENDBRANCH   1  15
BRANCH   3  19
ATOM     19  N   UNL     1       8.080   5.527  20.058  0.00  0.00    +0.000 N 
ATOM     20  H   UNL     1       8.299   4.894  20.825  0.00  0.00    +0.000 HD
ATOM     21  H   UNL     1       8.186   6.505  20.314  0.00  0.00    +0.000 HD
ENDBRANCH   3  19
BRANCH   2  22
ATOM     22  C   UNL     1       7.133   7.086  17.824  0.00  0.00    +0.000 C 
ATOM     23  N   UNL     1       7.718   7.967  17.350  0.00  0.00    +0.000 NA
ENDBRANCH   2  22
TORSDOF 4
ENDMDL
MODEL 4
REMARK VINA RESULT:      -6.0      2.317      4.642
REMARK  Name = 
REMARK  5 active torsions:
REMARK  status: ('A' for Active; 'I' for Inactive)
REMARK    1  A    between atoms: C_1  and  C_2
REMARK    2  A    between atoms: C_2  and  C_3
REMARK    3  A    between atoms: C_6  and  C_7
REMARK    4  A    between atoms: C_8  and  C_9
REMARK    5  A    between atoms: C_11  and  N_12
REMARK                            x       y       z     vdW  Elec       q    Type
REMARK                         _______ _______ _______ _____ _____    ______ ____
ROOT
ATOM      1  C   UNL     1       3.662   5.785  18.657  0.00  0.00    +0.000 C 
ATOM      2  C   UNL     1       4.672   5.655  17.517  0.00  0.00    +0.000 C 
ATOM      3  C   UNL     1       4.656   4.601  16.673  0.00  0.00    +0.000 C 
ATOM      4  O   UNL     1       3.733   3.573  16.816  0.00  0.00    +0.000 OA
ATOM      5  C   UNL     1       2.860   3.547  17.890  0.00  0.00    +0.000 C 
ATOM      6  C   UNL     1       2.801   4.549  18.783  0.00  0.00    +0.000 C 
ATOM      7  C   UNL     1       1.847   4.446  19.927  0.00  0.00    +0.000 C 
ATOM      8  O   UNL     1       1.817   5.311  20.798  0.00  0.00    +0.000 OA
ATOM      9  C   UNL     1       0.885   3.276  19.964  0.00  0.00    +0.000 C 
ATOM     10  C   UNL     1       1.513   2.029  19.366  0.00  0.00    +0.000 C 
ATOM     11  C   UNL     1       2.029   2.300  17.958  0.00  0.00    +0.000 C 
ENDROOT
BRANCH   1  15
ATOM     12  C   UNL     1       1.386   8.994  19.040  0.00  0.00    +0.000 A 
ATOM     13  C   UNL     1       1.711   8.909  17.703  0.00  0.00    +0.000 A 
ATOM     14  C   UNL     1       2.549   7.796  17.422  0.00  0.00    +0.000 A 
ATOM     15  C   UNL     1       2.856   7.074  18.558  0.00  0.00    +0.000 A 
ATOM     16  S   UNL     1       2.192   7.805  19.963  0.00  0.00    +0.000 S 
BRANCH  12  18
ATOM     17  C   UNL     1      -0.648  10.377  18.713  0.00  0.00    +0.000 C 
ATOM     18  C   UNL     1       0.433   9.945  19.694  0.00  0.00    +0.000 C 
ENDBRANCH  12  18
ENDBRANCH   1  15
BRANCH   3  19
ATOM     19  N   UNL     1       5.494   4.413  15.598  0.00  0.00    +0.000 N 
ATOM     20  H   UNL     1       5.121   3.835  14.848  0.00  0.00    +0.000 HD
ATOM     21  H   UNL     1       6.425   4.127  15.890  0.00  0.00    +0.000 HD
ENDBRANCH   3  19
BRANCH   2  22
ATOM     22  C   UNL     1       5.621   6.711  17.338  0.00  0.00    +0.000 C 
ATOM     23  N   UNL     1       6.411   7.544  17.179  0.00  0.00    +0.000 NA
ENDBRANCH   2  22
TORSDOF 4
ENDMDL
MODEL 5
REMARK VINA RESULT:      -5.9      2.690      5.253
REMARK  Name = 
REMARK  5 active torsions:
REMARK  status: ('A' for Active; 'I' for Inactive)
REMARK    1  A    between atoms: C_1  and  C_2
REMARK    2  A    between atoms: C_2  and  C_3
REMARK    3  A    between atoms: C_6  and  C_7
REMARK    4  A    between atoms: C_8  and  C_9
REMARK    5  A    between atoms: C_11  and  N_12
REMARK                            x       y       z     vdW  Elec       q    Type
REMARK                         _______ _______ _______ _____ _____    ______ ____
ROOT
ATOM      1  C   UNL     1       3.867   5.646  17.754  0.00  0.00    +0.000 C 
ATOM      2  C   UNL     1       3.245   4.361  18.302  0.00  0.00    +0.000 C 
ATOM      3  C   UNL     1       3.923   3.547  19.139  0.00  0.00    +0.000 C 
ATOM      4  O   UNL     1       5.229   3.828  19.522  0.00  0.00    +0.000 OA
ATOM      5  C   UNL     1       5.912   4.904  18.982  0.00  0.00    +0.000 C 
ATOM      6  C   UNL     1       5.323   5.770  18.141  0.00  0.00    +0.000 C 
ATOM      7  C   UNL     1       6.126   6.898  17.582  0.00  0.00    +0.000 C 
ATOM      8  O   UNL     1       5.638   7.667  16.758  0.00  0.00    +0.000 OA
ATOM      9  C   UNL     1       7.539   7.101  18.089  0.00  0.00    +0.000 C 
ATOM     10  C   UNL     1       8.198   5.774  18.425  0.00  0.00    +0.000 C 
ATOM     11  C   UNL     1       7.348   4.976  19.407  0.00  0.00    +0.000 C 
ENDROOT
BRANCH   1  15
ATOM     12  C   UNL     1       1.596   8.508  19.263  0.00  0.00    +0.000 A 
ATOM     13  C   UNL     1       1.810   8.842  17.942  0.00  0.00    +0.000 A 
ATOM     14  C   UNL     1       2.634   7.896  17.275  0.00  0.00    +0.000 A 
ATOM     15  C   UNL     1       3.041   6.876  18.112  0.00  0.00    +0.000 A 
ATOM     16  S   UNL     1       2.488   7.125  19.719  0.00  0.00    +0.000 S 
BRANCH  12  18
ATOM     17  C   UNL     1       1.147   8.907  21.671  0.00  0.00    +0.000 C 
ATOM     18  C   UNL     1       0.691   9.184  20.244  0.00  0.00    +0.000 C 
ENDBRANCH  12  18
ENDBRANCH   1  15
BRANCH   3  19
ATOM     19  N   UNL     1       3.439   2.394  19.713  0.00  0.00    +0.000 N 
ATOM     20  H   UNL     1       2.569   2.496  20.231  0.00  0.00    +0.000 HD
ATOM     21  H   UNL     1       4.156   1.905  20.242  0.00  0.00    +0.000 HD
ENDBRANCH   3  19
BRANCH   2  22
ATOM     22  C   UNL     1       1.894   4.060  17.936  0.00  0.00    +0.000 C 
ATOM     23  N   UNL     1       0.807   3.784  17.646  0.00  0.00    +0.000 NA
ENDBRANCH   2  22
TORSDOF 4
ENDMDL
MODEL 6
REMARK VINA RESULT:      -5.7      9.352     11.191
REMARK  Name = 
REMARK  5 active torsions:
REMARK  status: ('A' for Active; 'I' for Inactive)
REMARK    1  A    between atoms: C_1  and  C_2
REMARK    2  A    between atoms: C_2  and  C_3
REMARK    3  A    between atoms: C_6  and  C_7
REMARK    4  A    between atoms: C_8  and  C_9
REMARK    5  A    between atoms: C_11  and  N_12
REMARK                            x       y       z     vdW  Elec       q    Type
REMARK                         _______ _______ _______ _____ _____    ______ ____
ROOT
ATOM      1  C   UNL     1       8.926  15.097  19.267  0.00  0.00    +0.000 C 
ATOM      2  C   UNL     1       9.510  15.996  18.177  0.00  0.00    +0.000 C 
ATOM      3  C   UNL     1      10.338  15.511  17.227  0.00  0.00    +0.000 C 
ATOM      4  O   UNL     1      10.716  14.175  17.209  0.00  0.00    +0.000 OA
ATOM      5  C   UNL     1      10.332  13.315  18.224  0.00  0.00    +0.000 C 
ATOM      6  C   UNL     1       9.511  13.704  19.213  0.00  0.00    +0.000 C 
ATOM      7  C   UNL     1       9.153  12.727  20.284  0.00  0.00    +0.000 C 
ATOM      8  O   UNL     1       8.460  13.070  21.239  0.00  0.00    +0.000 OA
ATOM      9  C   UNL     1       9.622  11.294  20.143  0.00  0.00    +0.000 C 
ATOM     10  C   UNL     1      10.973  11.224  19.453  0.00  0.00    +0.000 C 
ATOM     11  C   UNL     1      10.939  11.948  18.112  0.00  0.00    +0.000 C 
ENDROOT
BRANCH   1  15
ATOM     12  C   UNL     1       5.033  15.038  18.580  0.00  0.00    +0.000 A 
ATOM     13  C   UNL     1       5.189  15.464  19.882  0.00  0.00    +0.000 A 
ATOM     14  C   UNL     1       6.554  15.518  20.272  0.00  0.00    +0.000 A 
ATOM     15  C   UNL     1       7.402  15.112  19.260  0.00  0.00    +0.000 A 
ATOM     16  S   UNL     1       6.525  14.590  17.879  0.00  0.00    +0.000 S 
BRANCH  12  18
ATOM     17  C   UNL     1       2.556  15.124  18.688  0.00  0.00    +0.000 C 
ATOM     18  C   UNL     1       3.770  14.973  17.781  0.00  0.00    +0.000 C 
ENDBRANCH  12  18
ENDBRANCH   1  15
BRANCH   3  19
ATOM     19  N   UNL     1      10.883  16.229  16.187  0.00  0.00    +0.000 N 
ATOM     20  H   UNL     1      10.212  16.666  15.559  0.00  0.00    +0.000 HD
ATOM     21  H   UNL     1      11.596  15.699  15.693  0.00  0.00    +0.000 HD
ENDBRANCH   3  19
BRANCH   2  22
ATOM     22  C   UNL     1       9.121  17.374  18.164  0.00  0.00    +0.000 C 
ATOM     23  N   UNL     1       8.839  18.497  18.149  0.00  0.00    +0.000 NA
ENDBRANCH   2  22
TORSDOF 4
ENDMDL
MODEL 7
REMARK VINA RESULT:      -5.7      2.677      5.401
REMARK  Name = 
REMARK  5 active torsions:
REMARK  status: ('A' for Active; 'I' for Inactive)
REMARK    1  A    between atoms: C_1  and  C_2
REMARK    2  A    between atoms: C_2  and  C_3
REMARK    3  A    between atoms: C_6  and  C_7
REMARK    4  A    between atoms: C_8  and  C_9
REMARK    5  A    between atoms: C_11  and  N_12
REMARK                            x       y       z     vdW  Elec       q    Type
REMARK                         _______ _______ _______ _____ _____    ______ ____
ROOT
ATOM      1  C   UNL     1       3.348   5.327  18.188  0.00  0.00    +0.000 C 
ATOM      2  C   UNL     1       3.049   4.082  19.023  0.00  0.00    +0.000 C 
ATOM      3  C   UNL     1       4.036   3.356  19.591  0.00  0.00    +0.000 C 
ATOM      4  O   UNL     1       5.372   3.695  19.423  0.00  0.00    +0.000 OA
ATOM      5  C   UNL     1       5.742   4.734  18.586  0.00  0.00    +0.000 C 
ATOM      6  C   UNL     1       4.833   5.513  17.976  0.00  0.00    +0.000 C 
ATOM      7  C   UNL     1       5.304   6.605  17.073  0.00  0.00    +0.000 C 
ATOM      8  O   UNL     1       4.500   7.291  16.447  0.00  0.00    +0.000 OA
ATOM      9  C   UNL     1       6.791   6.879  16.983  0.00  0.00    +0.000 C 
ATOM     10  C   UNL     1       7.596   5.600  17.135  0.00  0.00    +0.000 C 
ATOM     11  C   UNL     1       7.227   4.872  18.421  0.00  0.00    +0.000 C 
ENDROOT
BRANCH   1  15
ATOM     12  C   UNL     1       1.484   8.172  20.202  0.00  0.00    +0.000 A 
ATOM     13  C   UNL     1       1.551   8.606  18.894  0.00  0.00    +0.000 A 
ATOM     14  C   UNL     1       2.219   7.676  18.052  0.00  0.00    +0.000 A 
ATOM     15  C   UNL     1       2.659   6.566  18.746  0.00  0.00    +0.000 A 
ATOM     16  S   UNL     1       2.332   6.707  20.426  0.00  0.00    +0.000 S 
BRANCH  12  18
ATOM     17  C   UNL     1      -0.168   9.910  20.840  0.00  0.00    +0.000 C 
ATOM     18  C   UNL     1       0.758   8.810  21.343  0.00  0.00    +0.000 C 
ENDBRANCH  12  18
ENDBRANCH   1  15
BRANCH   3  19
ATOM     19  N   UNL     1       3.867   2.247  20.387  0.00  0.00    +0.000 N 
ATOM     20  H   UNL     1       4.345   2.277  21.286  0.00  0.00    +0.000 HD
ATOM     21  H   UNL     1       4.042   1.385  19.878  0.00  0.00    +0.000 HD
ENDBRANCH   3  19
BRANCH   2  22
ATOM     22  C   UNL     1       1.678   3.723  19.225  0.00  0.00    +0.000 C 
ATOM     23  N   UNL     1       0.577   3.400  19.383  0.00  0.00    +0.000 NA
ENDBRANCH   2  22
TORSDOF 4
ENDMDL
MODEL 8
REMARK VINA RESULT:      -5.6      2.750      5.507
REMARK  Name = 
REMARK  5 active torsions:
REMARK  status: ('A' for Active; 'I' for Inactive)
REMARK    1  A    between atoms: C_1  and  C_2
REMARK    2  A    between atoms: C_2  and  C_3
REMARK    3  A    between atoms: C_6  and  C_7
REMARK    4  A    between atoms: C_8  and  C_9
REMARK    5  A    between atoms: C_11  and  N_12
REMARK                            x       y       z     vdW  Elec       q    Type
REMARK                         _______ _______ _______ _____ _____    ______ ____
ROOT
ATOM      1  C   UNL     1       3.337   5.341  18.356  0.00  0.00    +0.000 C 
ATOM      2  C   UNL     1       3.142   4.007  19.078  0.00  0.00    +0.000 C 
ATOM      3  C   UNL     1       4.188   3.303  19.560  0.00  0.00    +0.000 C 
ATOM      4  O   UNL     1       5.494   3.747  19.401  0.00  0.00    +0.000 OA
ATOM      5  C   UNL     1       5.774   4.881  18.657  0.00  0.00    +0.000 C 
ATOM      6  C   UNL     1       4.801   5.647  18.137  0.00  0.00    +0.000 C 
ATOM      7  C   UNL     1       5.176   6.847  17.331  0.00  0.00    +0.000 C 
ATOM      8  O   UNL     1       4.313   7.529  16.784  0.00  0.00    +0.000 OA
ATOM      9  C   UNL     1       6.639   7.230  17.241  0.00  0.00    +0.000 C 
ATOM     10  C   UNL     1       7.531   6.001  17.260  0.00  0.00    +0.000 C 
ATOM     11  C   UNL     1       7.241   5.135  18.480  0.00  0.00    +0.000 C 
ENDROOT
BRANCH   1  15
ATOM     12  C   UNL     1       1.421   8.595  19.527  0.00  0.00    +0.000 A 
ATOM     13  C   UNL     1       1.664   7.858  20.667  0.00  0.00    +0.000 A 
ATOM     14  C   UNL     1       2.341   6.641  20.388  0.00  0.00    +0.000 A 
ATOM     15  C   UNL     1       2.579   6.474  19.038  0.00  0.00    +0.000 A 
ATOM     16  S   UNL     1       1.902   7.756  18.119  0.00  0.00    +0.000 S 
BRANCH  12  18
ATOM     17  C   UNL     1      -0.101  10.076  18.244  0.00  0.00    +0.000 C 
ATOM     18  C   UNL     1       0.848   9.973  19.430  0.00  0.00    +0.000 C 
ENDBRANCH  12  18
ENDBRANCH   1  15
BRANCH   3  19
ATOM     19  N   UNL     1       4.113   2.117  20.253  0.00  0.00    +0.000 N 
ATOM     20  H   UNL     1       4.571   1.322  19.812  0.00  0.00    +0.000 HD
ATOM     21  H   UNL     1       3.162   1.910  20.546  0.00  0.00    +0.000 HD
ENDBRANCH   3  19
BRANCH   2  22
ATOM     22  C   UNL     1       1.803   3.538  19.270  0.00  0.00    +0.000 C 
ATOM     23  N   UNL     1       0.714   3.163  19.392  0.00  0.00    +0.000 NA
ENDBRANCH   2  22
TORSDOF 4
ENDMDL
MODEL 9
REMARK VINA RESULT:      -5.6      1.016      1.181
REMARK  Name = 
REMARK  5 active torsions:
REMARK  status: ('A' for Active; 'I' for Inactive)
REMARK    1  A    between atoms: C_1  and  C_2
REMARK    2  A    between atoms: C_2  and  C_3
REMARK    3  A    between atoms: C_6  and  C_7
REMARK    4  A    between atoms: C_8  and  C_9
REMARK    5  A    between atoms: C_11  and  N_12
REMARK                            x       y       z     vdW  Elec       q    Type
REMARK                         _______ _______ _______ _____ _____    ______ ____
ROOT
ATOM      1  C   UNL     1       2.181   6.050  18.315  0.00  0.00    +0.000 C 
ATOM      2  C   UNL     1       2.006   7.278  19.210  0.00  0.00    +0.000 C 
ATOM      3  C   UNL     1       1.813   7.162  20.541  0.00  0.00    +0.000 C 
ATOM      4  O   UNL     1       1.741   5.920  21.157  0.00  0.00    +0.000 OA
ATOM      5  C   UNL     1       1.769   4.754  20.410  0.00  0.00    +0.000 C 
ATOM      6  C   UNL     1       1.956   4.767  19.080  0.00  0.00    +0.000 C 
ATOM      7  C   UNL     1       1.957   3.472  18.337  0.00  0.00    +0.000 C 
ATOM      8  O   UNL     1       2.057   3.452  17.112  0.00  0.00    +0.000 OA
ATOM      9  C   UNL     1       1.880   2.182  19.128  0.00  0.00    +0.000 C 
ATOM     10  C   UNL     1       1.036   2.355  20.379  0.00  0.00    +0.000 C 
ATOM     11  C   UNL     1       1.546   3.515  21.225  0.00  0.00    +0.000 C 
ENDROOT
BRANCH   1  15
ATOM     12  C   UNL     1       5.851   5.751  16.877  0.00  0.00    +0.000 A 
ATOM     13  C   UNL     1       5.207   6.691  16.099  0.00  0.00    +0.000 A 
ATOM     14  C   UNL     1       3.859   6.889  16.500  0.00  0.00    +0.000 A 
ATOM     15  C   UNL     1       3.505   6.079  17.562  0.00  0.00    +0.000 A 
ATOM     16  S   UNL     1       4.790   5.029  18.003  0.00  0.00    +0.000 S 
BRANCH  12  18
ATOM     17  C   UNL     1       7.692   4.901  15.448  0.00  0.00    +0.000 C 
ATOM     18  C   UNL     1       7.297   5.367  16.842  0.00  0.00    +0.000 C 
ENDBRANCH  12  18
ENDBRANCH   1  15
BRANCH   3  19
ATOM     19  N   UNL     1       1.683   8.203  21.432  0.00  0.00    +0.000 N 
ATOM     20  H   UNL     1       1.763   9.135  21.030  0.00  0.00    +0.000 HD
ATOM     21  H   UNL     1       2.272   8.076  22.250  0.00  0.00    +0.000 HD
ENDBRANCH   3  19
BRANCH   2  22
ATOM     22  C   UNL     1       2.095   8.570  18.600  0.00  0.00    +0.000 C 
ATOM     23  N   UNL     1       2.145   9.606  18.083  0.00  0.00    +0.000 NA
ENDBRANCH   2  22
TORSDOF 4
ENDMDL
