MODEL 1
REMARK VINA RESULT:      -7.4      0.000      0.000
REMARK  Name = 
REMARK  9 active torsions:
REMARK  status: ('A' for Active; 'I' for Inactive)
REMARK    1  A    between atoms: C_1  and  N_2
REMARK    2  A    between atoms: N_2  and  C_3
REMARK    3  A    between atoms: N_2  and  C_4
REMARK    4  A    between atoms: N_2  and  C_22
REMARK    5  A    between atoms: C_4  and  C_5
REMARK    6  A    between atoms: C_5  and  C_6
REMARK    7  A    between atoms: C_6  and  N_7
REMARK    8  A    between atoms: C_22  and  C_23
REMARK    9  A    between atoms: C_26  and  N_27
REMARK                            x       y       z     vdW  Elec       q    Type
REMARK                         _______ _______ _______ _____ _____    ______ ____
ROOT
ATOM      1  C   UNL     1       3.505   6.353  17.048  0.00  0.00    +0.000 C 
ENDROOT
BRANCH   1   2
ATOM      2  N   UNL     1       2.570   6.422  18.202  0.00  0.00    +0.000 N 
ATOM      3  C   UNL     1       2.104   7.713  18.620  0.00  0.00    +0.000 A 
ATOM      4  C   UNL     1       2.199   8.870  17.812  0.00  0.00    +0.000 A 
ATOM      5  C   UNL     1       1.755  10.135  18.232  0.00  0.00    +0.000 A 
ATOM      6  C   UNL     1       1.178  10.297  19.483  0.00  0.00    +0.000 A 
ATOM      7  C   UNL     1       1.039   9.182  20.295  0.00  0.00    +0.000 A 
ATOM      8  C   UNL     1       1.481   7.911  19.875  0.00  0.00    +0.000 A 
ATOM      9  S   UNL     1       1.169   6.619  21.047  0.00  0.00    +0.000 S 
ATOM     10  C   UNL     1       1.840   5.195  20.245  0.00  0.00    +0.000 A 
ATOM     11  C   UNL     1       1.741   4.002  20.993  0.00  0.00    +0.000 A 
ATOM     12  C   UNL     1       2.268   2.808  20.518  0.00  0.00    +0.000 A 
ATOM     13  C   UNL     1       2.891   2.802  19.287  0.00  0.00    +0.000 A 
ATOM     14 CL   UNL     1       3.587   1.349  18.682  0.00  0.00    +0.000 Cl
ATOM     15  C   UNL     1       2.977   3.976  18.529  0.00  0.00    +0.000 A 
ATOM     16  C   UNL     1       2.461   5.216  18.979  0.00  0.00    +0.000 A 
ENDBRANCH   1   2
BRANCH   1  17
ATOM     17  C   UNL     1       4.893   6.846  17.478  0.00  0.00    +0.000 C 
BRANCH  17  18
ATOM     18  C   UNL     1       5.638   5.875  18.391  0.00  0.00    +0.000 C 
BRANCH  18  20
ATOM     19  C   UNL     1       7.547   7.211  17.416  0.00  0.00    +0.000 C 
ATOM     20  N   UNL     1       7.158   5.932  18.174  0.00  0.00    +0.000 N 
ATOM     21  C   UNL     1       7.914   5.949  19.523  0.00  0.00    +0.000 C 
BRANCH  20  22
ATOM     22  C   UNL     1       7.685   4.709  17.381  0.00  0.00    +0.000 C 
BRANCH  22  23
ATOM     23  C   UNL     1       7.009   4.461  16.046  0.00  0.00    +0.000 A 
ATOM     24  C   UNL     1       5.868   3.641  15.974  0.00  0.00    +0.000 A 
ATOM     25  C   UNL     1       5.319   3.284  14.740  0.00  0.00    +0.000 A 
ATOM     26  C   UNL     1       5.896   3.768  13.563  0.00  0.00    +0.000 A 
ATOM     27  C   UNL     1       6.993   4.639  13.617  0.00  0.00    +0.000 A 
ATOM     28  C   UNL     1       7.541   4.987  14.856  0.00  0.00    +0.000 A 
BRANCH  26  29
ATOM     29  N   UNL     1       5.367   3.339  12.262  0.00  0.00    +0.000 N 
ATOM     30  O   UNL     1       4.357   3.911  11.833  0.00  0.00    +0.000 OA
ATOM     31  O   UNL     1       5.953   2.413  11.684  0.00  0.00    +0.000 OA
ENDBRANCH  26  29
ENDBRANCH  22  23
ENDBRANCH  20  22
ENDBRANCH  18  20
ENDBRANCH  17  18
ENDBRANCH   1  17
TORSDOF 7
ENDMDL
MODEL 2
REMARK VINA RESULT:      -7.3      5.463      9.486
REMARK  Name = 
REMARK  9 active torsions:
REMARK  status: ('A' for Active; 'I' for Inactive)
REMARK    1  A    between atoms: C_1  and  N_2
REMARK    2  A    between atoms: N_2  and  C_3
REMARK    3  A    between atoms: N_2  and  C_4
REMARK    4  A    between atoms: N_2  and  C_22
REMARK    5  A    between atoms: C_4  and  C_5
REMARK    6  A    between atoms: C_5  and  C_6
REMARK    7  A    between atoms: C_6  and  N_7
REMARK    8  A    between atoms: C_22  and  C_23
REMARK    9  A    between atoms: C_26  and  N_27
REMARK                            x       y       z     vdW  Elec       q    Type
REMARK                         _______ _______ _______ _____ _____    ______ ____
ROOT
ATOM      1  C   UNL     1       3.102   6.716  19.632  0.00  0.00    +0.000 C 
ENDROOT
BRANCH   1   2
ATOM      2  N   UNL     1       3.390   5.599  18.694  0.00  0.00    +0.000 N 
ATOM      3  C   UNL     1       2.562   4.430  18.759  0.00  0.00    +0.000 A 
ATOM      4  C   UNL     1       1.303   4.406  19.404  0.00  0.00    +0.000 A 
ATOM      5  C   UNL     1       0.502   3.254  19.478  0.00  0.00    +0.000 A 
ATOM      6  C   UNL     1       0.921   2.069  18.892  0.00  0.00    +0.000 A 
ATOM      7  C   UNL     1       2.136   2.056  18.224  0.00  0.00    +0.000 A 
ATOM      8  C   UNL     1       2.940   3.212  18.146  0.00  0.00    +0.000 A 
ATOM      9  S   UNL     1       4.430   2.987  17.212  0.00  0.00    +0.000 S 
ATOM     10  C   UNL     1       5.198   4.575  17.318  0.00  0.00    +0.000 A 
ATOM     11  C   UNL     1       6.445   4.666  16.662  0.00  0.00    +0.000 A 
ATOM     12  C   UNL     1       7.195   5.833  16.698  0.00  0.00    +0.000 A 
ATOM     13  C   UNL     1       6.696   6.920  17.387  0.00  0.00    +0.000 A 
ATOM     14 CL   UNL     1       7.614   8.372  17.483  0.00  0.00    +0.000 Cl
ATOM     15  C   UNL     1       5.452   6.846  18.024  0.00  0.00    +0.000 A 
ATOM     16  C   UNL     1       4.659   5.672  18.020  0.00  0.00    +0.000 A 
ENDBRANCH   1   2
BRANCH   1  17
ATOM     17  C   UNL     1       2.298   7.804  18.907  0.00  0.00    +0.000 C 
BRANCH  17  18
ATOM     18  C   UNL     1       1.405   8.630  19.829  0.00  0.00    +0.000 C 
BRANCH  18  20
ATOM     19  C   UNL     1       1.938  10.298  18.008  0.00  0.00    +0.000 C 
ATOM     20  N   UNL     1       1.026   9.982  19.205  0.00  0.00    +0.000 N 
ATOM     21  C   UNL     1      -0.429   9.968  18.683  0.00  0.00    +0.000 C 
BRANCH  20  22
ATOM     22  C   UNL     1       1.127  11.147  20.222  0.00  0.00    +0.000 C 
BRANCH  22  23
ATOM     23  C   UNL     1      -0.139  11.434  21.007  0.00  0.00    +0.000 A 
ATOM     24  C   UNL     1      -1.050  12.402  20.547  0.00  0.00    +0.000 A 
ATOM     25  C   UNL     1      -2.144  12.784  21.327  0.00  0.00    +0.000 A 
ATOM     26  C   UNL     1      -2.351  12.178  22.569  0.00  0.00    +0.000 A 
ATOM     27  C   UNL     1      -1.491  11.165  23.015  0.00  0.00    +0.000 A 
ATOM     28  C   UNL     1      -0.394  10.792  22.231  0.00  0.00    +0.000 A 
BRANCH  26  29
ATOM     29  N   UNL     1      -3.458  12.626  23.424  0.00  0.00    +0.000 N 
ATOM     30  O   UNL     1      -3.916  13.759  23.227  0.00  0.00    +0.000 OA
ATOM     31  O   UNL     1      -3.850  11.849  24.306  0.00  0.00    +0.000 OA
ENDBRANCH  26  29
ENDBRANCH  22  23
ENDBRANCH  20  22
ENDBRANCH  18  20
ENDBRANCH  17  18
ENDBRANCH   1  17
TORSDOF 7
ENDMDL
MODEL 3
REMARK VINA RESULT:      -7.0      0.686      1.212
REMARK  Name = 
REMARK  9 active torsions:
REMARK  status: ('A' for Active; 'I' for Inactive)
REMARK    1  A    between atoms: C_1  and  N_2
REMARK    2  A    between atoms: N_2  and  C_3
REMARK    3  A    between atoms: N_2  and  C_4
REMARK    4  A    between atoms: N_2  and  C_22
REMARK    5  A    between atoms: C_4  and  C_5
REMARK    6  A    between atoms: C_5  and  C_6
REMARK    7  A    between atoms: C_6  and  N_7
REMARK    8  A    between atoms: C_22  and  C_23
REMARK    9  A    between atoms: C_26  and  N_27
REMARK                            x       y       z     vdW  Elec       q    Type
REMARK                         _______ _______ _______ _____ _____    ______ ____
ROOT
ATOM      1  C   UNL     1       3.418   6.722  17.176  0.00  0.00    +0.000 C 
ENDROOT
BRANCH   1   2
ATOM      2  N   UNL     1       2.483   6.786  18.330  0.00  0.00    +0.000 N 
ATOM      3  C   UNL     1       2.017   8.075  18.753  0.00  0.00    +0.000 A 
ATOM      4  C   UNL     1       2.113   9.236  17.949  0.00  0.00    +0.000 A 
ATOM      5  C   UNL     1       1.668  10.500  18.375  0.00  0.00    +0.000 A 
ATOM      6  C   UNL     1       1.090  10.656  19.625  0.00  0.00    +0.000 A 
ATOM      7  C   UNL     1       0.950   9.538  20.432  0.00  0.00    +0.000 A 
ATOM      8  C   UNL     1       1.393   8.268  20.007  0.00  0.00    +0.000 A 
ATOM      9  S   UNL     1       1.080   6.972  21.175  0.00  0.00    +0.000 S 
ATOM     10  C   UNL     1       1.751   5.551  20.367  0.00  0.00    +0.000 A 
ATOM     11  C   UNL     1       1.652   4.355  21.110  0.00  0.00    +0.000 A 
ATOM     12  C   UNL     1       2.179   3.163  20.631  0.00  0.00    +0.000 A 
ATOM     13  C   UNL     1       2.803   3.162  19.401  0.00  0.00    +0.000 A 
ATOM     14 CL   UNL     1       3.499   1.711  18.791  0.00  0.00    +0.000 Cl
ATOM     15  C   UNL     1       2.889   4.338  18.647  0.00  0.00    +0.000 A 
ATOM     16  C   UNL     1       2.373   5.577  19.102  0.00  0.00    +0.000 A 
ENDBRANCH   1   2
BRANCH   1  17
ATOM     17  C   UNL     1       4.841   7.055  17.646  0.00  0.00    +0.000 C 
BRANCH  17  18
ATOM     18  C   UNL     1       5.649   5.836  18.082  0.00  0.00    +0.000 C 
BRANCH  18  20
ATOM     19  C   UNL     1       7.979   6.775  18.354  0.00  0.00    +0.000 C 
ATOM     20  N   UNL     1       7.077   5.858  17.513  0.00  0.00    +0.000 N 
ATOM     21  C   UNL     1       7.708   4.447  17.535  0.00  0.00    +0.000 C 
BRANCH  20  22
ATOM     22  C   UNL     1       7.115   6.344  16.042  0.00  0.00    +0.000 C 
BRANCH  22  23
ATOM     23  C   UNL     1       6.712   5.311  15.007  0.00  0.00    +0.000 A 
ATOM     24  C   UNL     1       7.529   5.081  13.884  0.00  0.00    +0.000 A 
ATOM     25  C   UNL     1       7.106   4.243  12.850  0.00  0.00    +0.000 A 
ATOM     26  C   UNL     1       5.866   3.604  12.943  0.00  0.00    +0.000 A 
ATOM     27  C   UNL     1       5.068   3.770  14.084  0.00  0.00    +0.000 A 
ATOM     28  C   UNL     1       5.496   4.615  15.112  0.00  0.00    +0.000 A 
BRANCH  26  29
ATOM     29  N   UNL     1       5.385   2.779  11.828  0.00  0.00    +0.000 N 
ATOM     30  O   UNL     1       4.269   3.038  11.359  0.00  0.00    +0.000 OA
ATOM     31  O   UNL     1       6.118   1.859  11.439  0.00  0.00    +0.000 OA
ENDBRANCH  26  29
ENDBRANCH  22  23
ENDBRANCH  20  22
ENDBRANCH  18  20
ENDBRANCH  17  18
ENDBRANCH   1  17
TORSDOF 7
ENDMDL
MODEL 4
REMARK VINA RESULT:      -6.8      4.485      8.204
REMARK  Name = 
REMARK  9 active torsions:
REMARK  status: ('A' for Active; 'I' for Inactive)
REMARK    1  A    between atoms: C_1  and  N_2
REMARK    2  A    between atoms: N_2  and  C_3
REMARK    3  A    between atoms: N_2  and  C_4
REMARK    4  A    between atoms: N_2  and  C_22
REMARK    5  A    between atoms: C_4  and  C_5
REMARK    6  A    between atoms: C_5  and  C_6
REMARK    7  A    between atoms: C_6  and  N_7
REMARK    8  A    between atoms: C_22  and  C_23
REMARK    9  A    between atoms: C_26  and  N_27
REMARK                            x       y       z     vdW  Elec       q    Type
REMARK                         _______ _______ _______ _____ _____    ______ ____
ROOT
ATOM      1  C   UNL     1       2.629   6.958  17.860  0.00  0.00    +0.000 C 
ENDROOT
BRANCH   1   2
ATOM      2  N   UNL     1       3.406   5.701  18.012  0.00  0.00    +0.000 N 
ATOM      3  C   UNL     1       2.700   4.507  18.377  0.00  0.00    +0.000 A 
ATOM      4  C   UNL     1       1.295   4.374  18.268  0.00  0.00    +0.000 A 
ATOM      5  C   UNL     1       0.606   3.207  18.641  0.00  0.00    +0.000 A 
ATOM      6  C   UNL     1       1.298   2.109  19.129  0.00  0.00    +0.000 A 
ATOM      7  C   UNL     1       2.678   2.187  19.224  0.00  0.00    +0.000 A 
ATOM      8  C   UNL     1       3.373   3.355  18.848  0.00  0.00    +0.000 A 
ATOM      9  S   UNL     1       5.133   3.227  19.010  0.00  0.00    +0.000 S 
ATOM     10  C   UNL     1       5.689   4.820  18.487  0.00  0.00    +0.000 A 
ATOM     11  C   UNL     1       7.089   4.999  18.544  0.00  0.00    +0.000 A 
ATOM     12  C   UNL     1       7.674   6.213  18.213  0.00  0.00    +0.000 A 
ATOM     13  C   UNL     1       6.860   7.255  17.818  0.00  0.00    +0.000 A 
ATOM     14 CL   UNL     1       7.548   8.785  17.434  0.00  0.00    +0.000 Cl
ATOM     15  C   UNL     1       5.474   7.083  17.740  0.00  0.00    +0.000 A 
ATOM     16  C   UNL     1       4.834   5.864  18.076  0.00  0.00    +0.000 A 
ENDBRANCH   1   2
BRANCH   1  17
ATOM     17  C   UNL     1       2.636   7.734  19.184  0.00  0.00    +0.000 C 
BRANCH  17  18
ATOM     18  C   UNL     1       1.418   7.464  20.065  0.00  0.00    +0.000 C 
BRANCH  18  20
ATOM     19  C   UNL     1      -0.546   8.597  21.179  0.00  0.00    +0.000 C 
ATOM     20  N   UNL     1       0.933   8.733  20.781  0.00  0.00    +0.000 N 
ATOM     21  C   UNL     1       1.736   8.984  22.078  0.00  0.00    +0.000 C 
BRANCH  20  22
ATOM     22  C   UNL     1       1.093  10.001  19.903  0.00  0.00    +0.000 C 
BRANCH  22  23
ATOM     23  C   UNL     1      -0.155  10.436  19.159  0.00  0.00    +0.000 A 
ATOM     24  C   UNL     1      -0.979  11.444  19.693  0.00  0.00    +0.000 A 
ATOM     25  C   UNL     1      -2.205  11.756  19.100  0.00  0.00    +0.000 A 
ATOM     26  C   UNL     1      -2.606  11.076  17.947  0.00  0.00    +0.000 A 
ATOM     27  C   UNL     1      -1.769  10.115  17.364  0.00  0.00    +0.000 A 
ATOM     28  C   UNL     1      -0.546   9.803  17.967  0.00  0.00    +0.000 A 
BRANCH  26  29
ATOM     29  N   UNL     1      -3.925  11.350  17.360  0.00  0.00    +0.000 N 
ATOM     30  O   UNL     1      -4.103  11.043  16.174  0.00  0.00    +0.000 OA
ATOM     31  O   UNL     1      -4.771  11.893  18.084  0.00  0.00    +0.000 OA
ENDBRANCH  26  29
ENDBRANCH  22  23
ENDBRANCH  20  22
ENDBRANCH  18  20
ENDBRANCH  17  18
ENDBRANCH   1  17
TORSDOF 7
ENDMDL
MODEL 5
REMARK VINA RESULT:      -6.7      5.426      9.419
REMARK  Name = 
REMARK  9 active torsions:
REMARK  status: ('A' for Active; 'I' for Inactive)
REMARK    1  A    between atoms: C_1  and  N_2
REMARK    2  A    between atoms: N_2  and  C_3
REMARK    3  A    between atoms: N_2  and  C_4
REMARK    4  A    between atoms: N_2  and  C_22
REMARK    5  A    between atoms: C_4  and  C_5
REMARK    6  A    between atoms: C_5  and  C_6
REMARK    7  A    between atoms: C_6  and  N_7
REMARK    8  A    between atoms: C_22  and  C_23
REMARK    9  A    between atoms: C_26  and  N_27
REMARK                            x       y       z     vdW  Elec       q    Type
REMARK                         _______ _______ _______ _____ _____    ______ ____
ROOT
ATOM      1  C   UNL     1       2.893   7.055  17.399  0.00  0.00    +0.000 C 
ENDROOT
BRANCH   1   2
ATOM      2  N   UNL     1       3.635   5.824  17.780  0.00  0.00    +0.000 N 
ATOM      3  C   UNL     1       2.878   4.671  18.174  0.00  0.00    +0.000 A 
ATOM      4  C   UNL     1       1.497   4.520  17.900  0.00  0.00    +0.000 A 
ATOM      5  C   UNL     1       0.757   3.395  18.301  0.00  0.00    +0.000 A 
ATOM      6  C   UNL     1       1.372   2.357  18.986  0.00  0.00    +0.000 A 
ATOM      7  C   UNL     1       2.729   2.452  19.248  0.00  0.00    +0.000 A 
ATOM      8  C   UNL     1       3.476   3.579  18.845  0.00  0.00    +0.000 A 
ATOM      9  S   UNL     1       5.200   3.477  19.243  0.00  0.00    +0.000 S 
ATOM     10  C   UNL     1       5.831   5.011  18.633  0.00  0.00    +0.000 A 
ATOM     11  C   UNL     1       7.213   5.202  18.849  0.00  0.00    +0.000 A 
ATOM     12  C   UNL     1       7.845   6.379  18.472  0.00  0.00    +0.000 A 
ATOM     13  C   UNL     1       7.097   7.369  17.869  0.00  0.00    +0.000 A 
ATOM     14 CL   UNL     1       7.840   8.855  17.419  0.00  0.00    +0.000 Cl
ATOM     15  C   UNL     1       5.731   7.182  17.632  0.00  0.00    +0.000 A 
ATOM     16  C   UNL     1       5.044   6.001  18.010  0.00  0.00    +0.000 A 
ENDBRANCH   1   2
BRANCH   1  17
ATOM     17  C   UNL     1       2.529   7.850  18.661  0.00  0.00    +0.000 C 
BRANCH  17  18
ATOM     18  C   UNL     1       2.131   9.297  18.386  0.00  0.00    +0.000 C 
BRANCH  18  20
ATOM     19  C   UNL     1      -0.330   9.779  18.084  0.00  0.00    +0.000 C 
ATOM     20  N   UNL     1       0.823   9.680  19.095  0.00  0.00    +0.000 N 
ATOM     21  C   UNL     1       0.424   8.616  20.144  0.00  0.00    +0.000 C 
BRANCH  20  22
ATOM     22  C   UNL     1       0.936  11.031  19.847  0.00  0.00    +0.000 C 
BRANCH  22  23
ATOM     23  C   UNL     1      -0.229  11.366  20.757  0.00  0.00    +0.000 A 
ATOM     24  C   UNL     1      -1.307  12.130  20.272  0.00  0.00    +0.000 A 
ATOM     25  C   UNL     1      -2.316  12.572  21.131  0.00  0.00    +0.000 A 
ATOM     26  C   UNL     1      -2.268  12.230  22.485  0.00  0.00    +0.000 A 
ATOM     27  C   UNL     1      -1.238  11.415  22.974  0.00  0.00    +0.000 A 
ATOM     28  C   UNL     1      -0.228  10.981  22.109  0.00  0.00    +0.000 A 
BRANCH  26  29
ATOM     29  N   UNL     1      -3.287  12.751  23.405  0.00  0.00    +0.000 N 
ATOM     30  O   UNL     1      -3.876  11.940  24.132  0.00  0.00    +0.000 OA
ATOM     31  O   UNL     1      -3.511  13.969  23.380  0.00  0.00    +0.000 OA
ENDBRANCH  26  29
ENDBRANCH  22  23
ENDBRANCH  20  22
ENDBRANCH  18  20
ENDBRANCH  17  18
ENDBRANCH   1  17
TORSDOF 7
ENDMDL
MODEL 6
REMARK VINA RESULT:      -6.7      5.395      9.399
REMARK  Name = 
REMARK  9 active torsions:
REMARK  status: ('A' for Active; 'I' for Inactive)
REMARK    1  A    between atoms: C_1  and  N_2
REMARK    2  A    between atoms: N_2  and  C_3
REMARK    3  A    between atoms: N_2  and  C_4
REMARK    4  A    between atoms: N_2  and  C_22
REMARK    5  A    between atoms: C_4  and  C_5
REMARK    6  A    between atoms: C_5  and  C_6
REMARK    7  A    between atoms: C_6  and  N_7
REMARK    8  A    between atoms: C_22  and  C_23
REMARK    9  A    between atoms: C_26  and  N_27
REMARK                            x       y       z     vdW  Elec       q    Type
REMARK                         _______ _______ _______ _____ _____    ______ ____
ROOT
ATOM      1  C   UNL     1       3.209   7.405  17.230  0.00  0.00    +0.000 C 
ENDROOT
BRANCH   1   2
ATOM      2  N   UNL     1       3.930   6.175  17.654  0.00  0.00    +0.000 N 
ATOM      3  C   UNL     1       3.152   5.026  18.018  0.00  0.00    +0.000 A 
ATOM      4  C   UNL     1       1.787   4.875  17.680  0.00  0.00    +0.000 A 
ATOM      5  C   UNL     1       1.026   3.754  18.053  0.00  0.00    +0.000 A 
ATOM      6  C   UNL     1       1.606   2.719  18.772  0.00  0.00    +0.000 A 
ATOM      7  C   UNL     1       2.949   2.815  19.098  0.00  0.00    +0.000 A 
ATOM      8  C   UNL     1       3.716   3.937  18.723  0.00  0.00    +0.000 A 
ATOM      9  S   UNL     1       5.419   3.836  19.204  0.00  0.00    +0.000 S 
ATOM     10  C   UNL     1       6.081   5.364  18.615  0.00  0.00    +0.000 A 
ATOM     11  C   UNL     1       7.452   5.555  18.895  0.00  0.00    +0.000 A 
ATOM     12  C   UNL     1       8.104   6.728  18.541  0.00  0.00    +0.000 A 
ATOM     13  C   UNL     1       7.387   7.716  17.897  0.00  0.00    +0.000 A 
ATOM     14 CL   UNL     1       8.153   9.197  17.474  0.00  0.00    +0.000 Cl
ATOM     15  C   UNL     1       6.033   7.529  17.597  0.00  0.00    +0.000 A 
ATOM     16  C   UNL     1       5.327   6.352  17.949  0.00  0.00    +0.000 A 
ENDBRANCH   1   2
BRANCH   1  17
ATOM     17  C   UNL     1       2.447   7.995  18.426  0.00  0.00    +0.000 C 
BRANCH  17  18
ATOM     18  C   UNL     1       2.034   9.452  18.236  0.00  0.00    +0.000 C 
BRANCH  18  20
ATOM     19  C   UNL     1      -0.461   9.821  18.382  0.00  0.00    +0.000 C 
ATOM     20  N   UNL     1       0.867   9.843  19.156  0.00  0.00    +0.000 N 
ATOM     21  C   UNL     1       0.728   8.852  20.335  0.00  0.00    +0.000 C 
BRANCH  20  22
ATOM     22  C   UNL     1       1.054  11.252  19.774  0.00  0.00    +0.000 C 
BRANCH  22  23
ATOM     23  C   UNL     1      -0.088  11.735  20.647  0.00  0.00    +0.000 A 
ATOM     24  C   UNL     1      -0.186  11.306  21.983  0.00  0.00    +0.000 A 
ATOM     25  C   UNL     1      -1.305  11.621  22.757  0.00  0.00    +0.000 A 
ATOM     26  C   UNL     1      -2.330  12.395  22.205  0.00  0.00    +0.000 A 
ATOM     27  C   UNL     1      -2.220  12.885  20.896  0.00  0.00    +0.000 A 
ATOM     28  C   UNL     1      -1.099  12.561  20.126  0.00  0.00    +0.000 A 
BRANCH  26  29
ATOM     29  N   UNL     1      -3.541  12.669  22.989  0.00  0.00    +0.000 N 
ATOM     30  O   UNL     1      -3.400  13.193  24.102  0.00  0.00    +0.000 OA
ATOM     31  O   UNL     1      -4.628  12.337  22.498  0.00  0.00    +0.000 OA
ENDBRANCH  26  29
ENDBRANCH  22  23
ENDBRANCH  20  22
ENDBRANCH  18  20
ENDBRANCH  17  18
ENDBRANCH   1  17
TORSDOF 7
ENDMDL
MODEL 7
REMARK VINA RESULT:      -6.7      5.083      8.859
REMARK  Name = 
REMARK  9 active torsions:
REMARK  status: ('A' for Active; 'I' for Inactive)
REMARK    1  A    between atoms: C_1  and  N_2
REMARK    2  A    between atoms: N_2  and  C_3
REMARK    3  A    between atoms: N_2  and  C_4
REMARK    4  A    between atoms: N_2  and  C_22
REMARK    5  A    between atoms: C_4  and  C_5
REMARK    6  A    between atoms: C_5  and  C_6
REMARK    7  A    between atoms: C_6  and  N_7
REMARK    8  A    between atoms: C_22  and  C_23
REMARK    9  A    between atoms: C_26  and  N_27
REMARK                            x       y       z     vdW  Elec       q    Type
REMARK                         _______ _______ _______ _____ _____    ______ ____
ROOT
ATOM      1  C   UNL     1       2.981   6.809  19.406  0.00  0.00    +0.000 C 
ENDROOT
BRANCH   1   2
ATOM      2  N   UNL     1       3.367   5.641  18.572  0.00  0.00    +0.000 N 
ATOM      3  C   UNL     1       2.576   4.449  18.670  0.00  0.00    +0.000 A 
ATOM      4  C   UNL     1       1.278   4.423  19.234  0.00  0.00    +0.000 A 
ATOM      5  C   UNL     1       0.513   3.250  19.340  0.00  0.00    +0.000 A 
ATOM      6  C   UNL     1       1.009   2.042  18.870  0.00  0.00    +0.000 A 
ATOM      7  C   UNL     1       2.265   2.029  18.283  0.00  0.00    +0.000 A 
ATOM      8  C   UNL     1       3.034   3.206  18.172  0.00  0.00    +0.000 A 
ATOM      9  S   UNL     1       4.588   2.972  17.353  0.00  0.00    +0.000 S 
ATOM     10  C   UNL     1       5.295   4.591  17.391  0.00  0.00    +0.000 A 
ATOM     11  C   UNL     1       6.578   4.682  16.810  0.00  0.00    +0.000 A 
ATOM     12  C   UNL     1       7.285   5.877  16.809  0.00  0.00    +0.000 A 
ATOM     13  C   UNL     1       6.707   6.990  17.384  0.00  0.00    +0.000 A 
ATOM     14 CL   UNL     1       7.567   8.479  17.431  0.00  0.00    +0.000 Cl
ATOM     15  C   UNL     1       5.426   6.915  17.945  0.00  0.00    +0.000 A 
ATOM     16  C   UNL     1       4.675   5.714  17.976  0.00  0.00    +0.000 A 
ENDBRANCH   1   2
BRANCH   1  17
ATOM     17  C   UNL     1       1.923   7.643  18.668  0.00  0.00    +0.000 C 
BRANCH  17  18
ATOM     18  C   UNL     1       2.217   9.140  18.654  0.00  0.00    +0.000 C 
BRANCH  18  20
ATOM     19  C   UNL     1       0.178   9.369  20.128  0.00  0.00    +0.000 C 
ATOM     20  N   UNL     1       0.962   9.976  18.954  0.00  0.00    +0.000 N 
ATOM     21  C   UNL     1       1.337  11.423  19.349  0.00  0.00    +0.000 C 
BRANCH  20  22
ATOM     22  C   UNL     1       0.017  10.076  17.729  0.00  0.00    +0.000 C 
BRANCH  22  23
ATOM     23  C   UNL     1      -1.409  10.484  18.042  0.00  0.00    +0.000 A 
ATOM     24  C   UNL     1      -2.485   9.709  17.570  0.00  0.00    +0.000 A 
ATOM     25  C   UNL     1      -3.803  10.145  17.723  0.00  0.00    +0.000 A 
ATOM     26  C   UNL     1      -4.059  11.354  18.375  0.00  0.00    +0.000 A 
ATOM     27  C   UNL     1      -3.004  12.108  18.909  0.00  0.00    +0.000 A 
ATOM     28  C   UNL     1      -1.686  11.668  18.747  0.00  0.00    +0.000 A 
BRANCH  26  29
ATOM     29  N   UNL     1      -5.437  11.852  18.475  0.00  0.00    +0.000 N 
ATOM     30  O   UNL     1      -6.332  11.180  17.946  0.00  0.00    +0.000 OA
ATOM     31  O   UNL     1      -5.615  12.928  19.063  0.00  0.00    +0.000 OA
ENDBRANCH  26  29
ENDBRANCH  22  23
ENDBRANCH  20  22
ENDBRANCH  18  20
ENDBRANCH  17  18
ENDBRANCH   1  17
TORSDOF 7
ENDMDL
MODEL 8
REMARK VINA RESULT:      -6.7      0.759      1.328
REMARK  Name = 
REMARK  9 active torsions:
REMARK  status: ('A' for Active; 'I' for Inactive)
REMARK    1  A    between atoms: C_1  and  N_2
REMARK    2  A    between atoms: N_2  and  C_3
REMARK    3  A    between atoms: N_2  and  C_4
REMARK    4  A    between atoms: N_2  and  C_22
REMARK    5  A    between atoms: C_4  and  C_5
REMARK    6  A    between atoms: C_5  and  C_6
REMARK    7  A    between atoms: C_6  and  N_7
REMARK    8  A    between atoms: C_22  and  C_23
REMARK    9  A    between atoms: C_26  and  N_27
REMARK                            x       y       z     vdW  Elec       q    Type
REMARK                         _______ _______ _______ _____ _____    ______ ____
ROOT
ATOM      1  C   UNL     1       3.102   7.347  17.073  0.00  0.00    +0.000 C 
ENDROOT
BRANCH   1   2
ATOM      2  N   UNL     1       2.285   7.305  18.315  0.00  0.00    +0.000 N 
ATOM      3  C   UNL     1       1.791   8.544  18.843  0.00  0.00    +0.000 A 
ATOM      4  C   UNL     1       1.739   9.741  18.090  0.00  0.00    +0.000 A 
ATOM      5  C   UNL     1       1.268  10.956  18.617  0.00  0.00    +0.000 A 
ATOM      6  C   UNL     1       0.811  11.024  19.925  0.00  0.00    +0.000 A 
ATOM      7  C   UNL     1       0.818   9.867  20.687  0.00  0.00    +0.000 A 
ATOM      8  C   UNL     1       1.287   8.646  20.161  0.00  0.00    +0.000 A 
ATOM      9  S   UNL     1       1.168   7.285  21.290  0.00  0.00    +0.000 S 
ATOM     10  C   UNL     1       1.834   5.943  20.353  0.00  0.00    +0.000 A 
ATOM     11  C   UNL     1       1.879   4.713  21.044  0.00  0.00    +0.000 A 
ATOM     12  C   UNL     1       2.422   3.577  20.459  0.00  0.00    +0.000 A 
ATOM     13  C   UNL     1       2.918   3.666  19.174  0.00  0.00    +0.000 A 
ATOM     14 CL   UNL     1       3.631   2.287  18.430  0.00  0.00    +0.000 Cl
ATOM     15  C   UNL     1       2.860   4.876  18.474  0.00  0.00    +0.000 A 
ATOM     16  C   UNL     1       2.323   6.060  19.035  0.00  0.00    +0.000 A 
ENDBRANCH   1   2
BRANCH   1  17
ATOM     17  C   UNL     1       4.575   7.587  17.432  0.00  0.00    +0.000 C 
BRANCH  17  18
ATOM     18  C   UNL     1       5.547   6.668  16.697  0.00  0.00    +0.000 C 
BRANCH  18  20
ATOM     19  C   UNL     1       7.703   7.459  17.750  0.00  0.00    +0.000 C 
ATOM     20  N   UNL     1       6.742   6.272  17.579  0.00  0.00    +0.000 N 
ATOM     21  C   UNL     1       6.278   5.848  18.992  0.00  0.00    +0.000 C 
BRANCH  20  22
ATOM     22  C   UNL     1       7.535   5.076  16.990  0.00  0.00    +0.000 C 
BRANCH  22  23
ATOM     23  C   UNL     1       6.987   4.509  15.695  0.00  0.00    +0.000 A 
ATOM     24  C   UNL     1       7.487   4.960  14.459  0.00  0.00    +0.000 A 
ATOM     25  C   UNL     1       6.897   4.559  13.258  0.00  0.00    +0.000 A 
ATOM     26  C   UNL     1       5.812   3.679  13.283  0.00  0.00    +0.000 A 
ATOM     27  C   UNL     1       5.341   3.169  14.501  0.00  0.00    +0.000 A 
ATOM     28  C   UNL     1       5.933   3.579  15.699  0.00  0.00    +0.000 A 
BRANCH  26  29
ATOM     29  N   UNL     1       5.143   3.311  12.028  0.00  0.00    +0.000 N 
ATOM     30  O   UNL     1       5.362   2.183  11.568  0.00  0.00    +0.000 OA
ATOM     31  O   UNL     1       4.418   4.162  11.495  0.00  0.00    +0.000 OA
ENDBRANCH  26  29
ENDBRANCH  22  23
ENDBRANCH  20  22
ENDBRANCH  18  20
ENDBRANCH  17  18
ENDBRANCH   1  17
TORSDOF 7
ENDMDL
MODEL 9
REMARK VINA RESULT:      -6.6      4.353      8.269
REMARK  Name = 
REMARK  9 active torsions:
REMARK  status: ('A' for Active; 'I' for Inactive)
REMARK    1  A    between atoms: C_1  and  N_2
REMARK    2  A    between atoms: N_2  and  C_3
REMARK    3  A    between atoms: N_2  and  C_4
REMARK    4  A    between atoms: N_2  and  C_22
REMARK    5  A    between atoms: C_4  and  C_5
REMARK    6  A    between atoms: C_5  and  C_6
REMARK    7  A    between atoms: C_6  and  N_7
REMARK    8  A    between atoms: C_22  and  C_23
REMARK    9  A    between atoms: C_26  and  N_27
REMARK                            x       y       z     vdW  Elec       q    Type
REMARK                         _______ _______ _______ _____ _____    ______ ____
ROOT
ATOM      1  C   UNL     1       3.378   6.470  20.005  0.00  0.00    +0.000 C 
ENDROOT
BRANCH   1   2
ATOM      2  N   UNL     1       3.455   5.480  18.899  0.00  0.00    +0.000 N 
ATOM      3  C   UNL     1       2.566   4.355  18.935  0.00  0.00    +0.000 A 
ATOM      4  C   UNL     1       1.411   4.304  19.751  0.00  0.00    +0.000 A 
ATOM      5  C   UNL     1       0.552   3.193  19.793  0.00  0.00    +0.000 A 
ATOM      6  C   UNL     1       0.803   2.081  19.004  0.00  0.00    +0.000 A 
ATOM      7  C   UNL     1       1.908   2.101  18.168  0.00  0.00    +0.000 A 
ATOM      8  C   UNL     1       2.771   3.216  18.121  0.00  0.00    +0.000 A 
ATOM      9  S   UNL     1       4.095   3.049  16.955  0.00  0.00    +0.000 S 
ATOM     10  C   UNL     1       4.977   4.568  17.150  0.00  0.00    +0.000 A 
ATOM     11  C   UNL     1       6.123   4.688  16.333  0.00  0.00    +0.000 A 
ATOM     12  C   UNL     1       6.948   5.801  16.408  0.00  0.00    +0.000 A 
ATOM     13  C   UNL     1       6.627   6.806  17.298  0.00  0.00    +0.000 A 
ATOM     14 CL   UNL     1       7.645   8.185  17.442  0.00  0.00    +0.000 Cl
ATOM     15  C   UNL     1       5.482   6.706  18.097  0.00  0.00    +0.000 A 
ATOM     16  C   UNL     1       4.619   5.584  18.060  0.00  0.00    +0.000 A 
ENDBRANCH   1   2
BRANCH   1  17
ATOM     17  C   UNL     1       1.925   6.932  20.186  0.00  0.00    +0.000 C 
BRANCH  17  18
ATOM     18  C   UNL     1       1.686   8.387  19.791  0.00  0.00    +0.000 C 
BRANCH  18  20
ATOM     19  C   UNL     1      -0.461   8.458  21.120  0.00  0.00    +0.000 C 
ATOM     20  N   UNL     1       0.887   9.149  20.860  0.00  0.00    +0.000 N 
ATOM     21  C   UNL     1       1.650   9.190  22.204  0.00  0.00    +0.000 C 
BRANCH  20  22
ATOM     22  C   UNL     1       0.616  10.620  20.452  0.00  0.00    +0.000 C 
BRANCH  22  23
ATOM     23  C   UNL     1      -0.495  10.819  19.440  0.00  0.00    +0.000 A 
ATOM     24  C   UNL     1      -1.574  11.672  19.735  0.00  0.00    +0.000 A 
ATOM     25  C   UNL     1      -2.676  11.756  18.881  0.00  0.00    +0.000 A 
ATOM     26  C   UNL     1      -2.696  11.001  17.705  0.00  0.00    +0.000 A 
ATOM     27  C   UNL     1      -1.602  10.195  17.362  0.00  0.00    +0.000 A 
ATOM     28  C   UNL     1      -0.505  10.112  18.225  0.00  0.00    +0.000 A 
BRANCH  26  29
ATOM     29  N   UNL     1      -3.882  11.031  16.840  0.00  0.00    +0.000 N 
ATOM     30  O   UNL     1      -4.988  11.154  17.382  0.00  0.00    +0.000 OA
ATOM     31  O   UNL     1      -3.704  10.907  15.620  0.00  0.00    +0.000 OA
ENDBRANCH  26  29
ENDBRANCH  22  23
ENDBRANCH  20  22
ENDBRANCH  18  20
ENDBRANCH  17  18
ENDBRANCH   1  17
TORSDOF 7
ENDMDL
