MODEL 1
REMARK VINA RESULT:      -7.0      0.000      0.000
REMARK  Name = 
REMARK  9 active torsions:
REMARK  status: ('A' for Active; 'I' for Inactive)
REMARK    1  A    between atoms: S_2  and  N_4
REMARK    2  A    between atoms: S_2  and  C_11
REMARK    3  A    between atoms: N_4  and  C_5
REMARK    4  A    between atoms: C_5  and  C_6
REMARK    5  A    between atoms: C_6  and  C_7
REMARK    6  A    between atoms: C_7  and  C_8
REMARK    7  A    between atoms: C_8  and  C_9
REMARK    8  A    between atoms: C_9  and  O_10
REMARK    9  A    between atoms: C_14  and  C_15
REMARK                            x       y       z     vdW  Elec       q    Type
REMARK                         _______ _______ _______ _____ _____    ______ ____
ROOT
ATOM      1  O   UNL     1       7.679   4.245  17.784  0.00  0.00    +0.000 OA
ATOM      2  S   UNL     1       6.903   4.911  16.761  0.00  0.00    +0.000 S 
ATOM      3  O   UNL     1       7.506   5.874  15.863  0.00  0.00    +0.000 OA
ENDROOT
BRANCH   2   4
ATOM      4  C   UNL     1       5.511   5.688  17.527  0.00  0.00    +0.000 A 
ATOM      5  C   UNL     1       4.907   6.747  16.852  0.00  0.00    +0.000 A 
ATOM      6  C   UNL     1       3.821   7.404  17.421  0.00  0.00    +0.000 A 
ATOM      7  C   UNL     1       3.287   7.016  18.663  0.00  0.00    +0.000 A 
ATOM      8  C   UNL     1       3.889   5.921  19.310  0.00  0.00    +0.000 A 
ATOM      9  C   UNL     1       4.995   5.253  18.753  0.00  0.00    +0.000 A 
BRANCH   7  10
ATOM     10  C   UNL     1       2.177   7.795  19.256  0.00  0.00    +0.000 A 
ATOM     11  C   UNL     1       1.626   8.902  18.579  0.00  0.00    +0.000 A 
ATOM     12  C   UNL     1       0.675   9.728  19.176  0.00  0.00    +0.000 A 
ATOM     13  C   UNL     1       0.226   9.447  20.463  0.00  0.00    +0.000 A 
ATOM     14  C   UNL     1       0.722   8.336  21.139  0.00  0.00    +0.000 A 
ATOM     15  C   UNL     1       1.685   7.520  20.545  0.00  0.00    +0.000 A 
ENDBRANCH   7  10
ENDBRANCH   2   4
BRANCH   2  16
ATOM     16  N   UNL     1       6.227   3.699  15.780  0.00  0.00    +0.000 NA
ATOM     17  H   UNL     1       5.249   3.578  16.048  0.00  0.00    +0.000 HD
BRANCH  16  18
ATOM     18  C   UNL     1       6.485   3.868  14.342  0.00  0.00    +0.000 C 
BRANCH  18  19
ATOM     19  C   UNL     1       5.186   3.966  13.548  0.00  0.00    +0.000 C 
BRANCH  19  20
ATOM     20  C   UNL     1       5.383   3.293  12.185  0.00  0.00    +0.000 C 
BRANCH  20  21
ATOM     21  C   UNL     1       6.852   3.041  11.869  0.00  0.00    +0.000 C 
BRANCH  21  22
ATOM     22  C   UNL     1       7.028   1.764  11.056  0.00  0.00    +0.000 C 
BRANCH  22  23
ATOM     23  O   UNL     1       6.062   0.803  11.457  0.00  0.00    +0.000 OA
ATOM     24  H   UNL     1       6.271   0.540  12.369  0.00  0.00    +0.000 HD
ENDBRANCH  22  23
ENDBRANCH  21  22
ENDBRANCH  20  21
ENDBRANCH  19  20
ENDBRANCH  18  19
ENDBRANCH  16  18
ENDBRANCH   2  16
TORSDOF 9
ENDMDL
MODEL 2
REMARK VINA RESULT:      -6.9      2.952      4.228
REMARK  Name = 
REMARK  9 active torsions:
REMARK  status: ('A' for Active; 'I' for Inactive)
REMARK    1  A    between atoms: S_2  and  N_4
REMARK    2  A    between atoms: S_2  and  C_11
REMARK    3  A    between atoms: N_4  and  C_5
REMARK    4  A    between atoms: C_5  and  C_6
REMARK    5  A    between atoms: C_6  and  C_7
REMARK    6  A    between atoms: C_7  and  C_8
REMARK    7  A    between atoms: C_8  and  C_9
REMARK    8  A    between atoms: C_9  and  O_10
REMARK    9  A    between atoms: C_14  and  C_15
REMARK                            x       y       z     vdW  Elec       q    Type
REMARK                         _______ _______ _______ _____ _____    ______ ____
ROOT
ATOM      1  O   UNL     1       2.814   2.947  17.281  0.00  0.00    +0.000 OA
ATOM      2  S   UNL     1       3.605   3.385  18.412  0.00  0.00    +0.000 S 
ATOM      3  O   UNL     1       3.824   2.527  19.557  0.00  0.00    +0.000 OA
ENDROOT
BRANCH   2   4
ATOM      4  C   UNL     1       2.940   4.913  19.005  0.00  0.00    +0.000 A 
ATOM      5  C   UNL     1       2.327   4.911  20.256  0.00  0.00    +0.000 A 
ATOM      6  C   UNL     1       1.773   6.083  20.759  0.00  0.00    +0.000 A 
ATOM      7  C   UNL     1       1.830   7.296  20.048  0.00  0.00    +0.000 A 
ATOM      8  C   UNL     1       2.487   7.284  18.804  0.00  0.00    +0.000 A 
ATOM      9  C   UNL     1       3.043   6.104  18.276  0.00  0.00    +0.000 A 
BRANCH   7  10
ATOM     10  C   UNL     1       1.161   8.496  20.597  0.00  0.00    +0.000 A 
ATOM     11  C   UNL     1       0.959   9.642  19.800  0.00  0.00    +0.000 A 
ATOM     12  C   UNL     1       0.453  10.826  20.334  0.00  0.00    +0.000 A 
ATOM     13  C   UNL     1       0.106  10.886  21.680  0.00  0.00    +0.000 A 
ATOM     14  C   UNL     1       0.256   9.757  22.481  0.00  0.00    +0.000 A 
ATOM     15  C   UNL     1       0.776   8.577  21.948  0.00  0.00    +0.000 A 
ENDBRANCH   7  10
ENDBRANCH   2   4
BRANCH   2  16
ATOM     16  N   UNL     1       5.143   3.793  17.817  0.00  0.00    +0.000 NA
ATOM     17  H   UNL     1       5.828   3.165  18.242  0.00  0.00    +0.000 HD
BRANCH  16  18
ATOM     18  C   UNL     1       5.212   3.928  16.354  0.00  0.00    +0.000 C 
BRANCH  18  19
ATOM     19  C   UNL     1       5.610   5.342  15.942  0.00  0.00    +0.000 C 
BRANCH  19  20
ATOM     20  C   UNL     1       7.087   5.565  16.284  0.00  0.00    +0.000 C 
BRANCH  20  21
ATOM     21  C   UNL     1       7.284   6.661  17.325  0.00  0.00    +0.000 C 
BRANCH  21  22
ATOM     22  C   UNL     1       7.682   6.074  18.673  0.00  0.00    +0.000 C 
BRANCH  22  23
ATOM     23  O   UNL     1       7.954   4.687  18.532  0.00  0.00    +0.000 OA
ATOM     24  H   UNL     1       7.139   4.205  18.756  0.00  0.00    +0.000 HD
ENDBRANCH  22  23
ENDBRANCH  21  22
ENDBRANCH  20  21
ENDBRANCH  19  20
ENDBRANCH  18  19
ENDBRANCH  16  18
ENDBRANCH   2  16
TORSDOF 9
ENDMDL
MODEL 3
REMARK VINA RESULT:      -6.8      3.271      4.979
REMARK  Name = 
REMARK  9 active torsions:
REMARK  status: ('A' for Active; 'I' for Inactive)
REMARK    1  A    between atoms: S_2  and  N_4
REMARK    2  A    between atoms: S_2  and  C_11
REMARK    3  A    between atoms: N_4  and  C_5
REMARK    4  A    between atoms: C_5  and  C_6
REMARK    5  A    between atoms: C_6  and  C_7
REMARK    6  A    between atoms: C_7  and  C_8
REMARK    7  A    between atoms: C_8  and  C_9
REMARK    8  A    between atoms: C_9  and  O_10
REMARK    9  A    between atoms: C_14  and  C_15
REMARK                            x       y       z     vdW  Elec       q    Type
REMARK                         _______ _______ _______ _____ _____    ______ ____
ROOT
ATOM      1  O   UNL     1       5.018   4.543  15.970  0.00  0.00    +0.000 OA
ATOM      2  S   UNL     1       4.638   4.111  17.297  0.00  0.00    +0.000 S 
ATOM      3  O   UNL     1       3.894   2.887  17.509  0.00  0.00    +0.000 OA
ENDROOT
BRANCH   2   4
ATOM      4  C   UNL     1       3.749   5.422  18.083  0.00  0.00    +0.000 A 
ATOM      5  C   UNL     1       3.148   5.154  19.310  0.00  0.00    +0.000 A 
ATOM      6  C   UNL     1       2.421   6.147  19.959  0.00  0.00    +0.000 A 
ATOM      7  C   UNL     1       2.290   7.441  19.423  0.00  0.00    +0.000 A 
ATOM      8  C   UNL     1       2.936   7.701  18.201  0.00  0.00    +0.000 A 
ATOM      9  C   UNL     1       3.664   6.704  17.526  0.00  0.00    +0.000 A 
BRANCH   7  10
ATOM     10  C   UNL     1       1.446   8.437  20.120  0.00  0.00    +0.000 A 
ATOM     11  C   UNL     1       1.004   8.216  21.440  0.00  0.00    +0.000 A 
ATOM     12  C   UNL     1       0.101   9.076  22.065  0.00  0.00    +0.000 A 
ATOM     13  C   UNL     1      -0.362  10.201  21.390  0.00  0.00    +0.000 A 
ATOM     14  C   UNL     1       0.090  10.466  20.100  0.00  0.00    +0.000 A 
ATOM     15  C   UNL     1       0.982   9.596  19.472  0.00  0.00    +0.000 A 
ENDBRANCH   7  10
ENDBRANCH   2   4
BRANCH   2  16
ATOM     16  N   UNL     1       6.068   3.964  18.203  0.00  0.00    +0.000 NA
ATOM     17  H   UNL     1       6.197   2.979  18.440  0.00  0.00    +0.000 HD
BRANCH  16  18
ATOM     18  C   UNL     1       7.231   4.645  17.616  0.00  0.00    +0.000 C 
BRANCH  18  19
ATOM     19  C   UNL     1       7.749   5.753  18.528  0.00  0.00    +0.000 C 
BRANCH  19  20
ATOM     20  C   UNL     1       7.644   7.094  17.792  0.00  0.00    +0.000 C 
BRANCH  20  21
ATOM     21  C   UNL     1       8.361   8.219  18.530  0.00  0.00    +0.000 C 
BRANCH  21  22
ATOM     22  C   UNL     1       8.075   9.569  17.884  0.00  0.00    +0.000 C 
BRANCH  22  23
ATOM     23  O   UNL     1       9.146  10.464  18.147  0.00  0.00    +0.000 OA
ATOM     24  H   UNL     1       9.237  10.536  19.113  0.00  0.00    +0.000 HD
ENDBRANCH  22  23
ENDBRANCH  21  22
ENDBRANCH  20  21
ENDBRANCH  19  20
ENDBRANCH  18  19
ENDBRANCH  16  18
ENDBRANCH   2  16
TORSDOF 9
ENDMDL
MODEL 4
REMARK VINA RESULT:      -6.8      3.775      5.367
REMARK  Name = 
REMARK  9 active torsions:
REMARK  status: ('A' for Active; 'I' for Inactive)
REMARK    1  A    between atoms: S_2  and  N_4
REMARK    2  A    between atoms: S_2  and  C_11
REMARK    3  A    between atoms: N_4  and  C_5
REMARK    4  A    between atoms: C_5  and  C_6
REMARK    5  A    between atoms: C_6  and  C_7
REMARK    6  A    between atoms: C_7  and  C_8
REMARK    7  A    between atoms: C_8  and  C_9
REMARK    8  A    between atoms: C_9  and  O_10
REMARK    9  A    between atoms: C_14  and  C_15
REMARK                            x       y       z     vdW  Elec       q    Type
REMARK                         _______ _______ _______ _____ _____    ______ ____
ROOT
ATOM      1  O   UNL     1       4.328   4.190  19.608  0.00  0.00    +0.000 OA
ATOM      2  S   UNL     1       4.360   5.105  18.488  0.00  0.00    +0.000 S 
ATOM      3  O   UNL     1       5.604   5.676  18.015  0.00  0.00    +0.000 OA
ENDROOT
BRANCH   2   4
ATOM      4  C   UNL     1       3.250   6.441  18.821  0.00  0.00    +0.000 A 
ATOM      5  C   UNL     1       3.070   7.399  17.826  0.00  0.00    +0.000 A 
ATOM      6  C   UNL     1       2.222   8.479  18.046  0.00  0.00    +0.000 A 
ATOM      7  C   UNL     1       1.508   8.629  19.249  0.00  0.00    +0.000 A 
ATOM      8  C   UNL     1       1.676   7.630  20.227  0.00  0.00    +0.000 A 
ATOM      9  C   UNL     1       2.540   6.538  20.024  0.00  0.00    +0.000 A 
BRANCH   7  10
ATOM     10  C   UNL     1       0.676   9.834  19.459  0.00  0.00    +0.000 A 
ATOM     11  C   UNL     1      -0.186  10.304  18.448  0.00  0.00    +0.000 A 
ATOM     12  C   UNL     1      -0.876  11.509  18.574  0.00  0.00    +0.000 A 
ATOM     13  C   UNL     1      -0.743  12.264  19.736  0.00  0.00    +0.000 A 
ATOM     14  C   UNL     1       0.069  11.803  20.768  0.00  0.00    +0.000 A 
ATOM     15  C   UNL     1       0.770  10.603  20.633  0.00  0.00    +0.000 A 
ENDBRANCH   7  10
ENDBRANCH   2   4
BRANCH   2  16
ATOM     16  N   UNL     1       3.669   4.298  17.163  0.00  0.00    +0.000 NA
ATOM     17  H   UNL     1       4.399   4.143  16.465  0.00  0.00    +0.000 HD
BRANCH  16  18
ATOM     18  C   UNL     1       2.859   3.125  17.522  0.00  0.00    +0.000 C 
BRANCH  18  19
ATOM     19  C   UNL     1       1.477   3.532  18.025  0.00  0.00    +0.000 C 
BRANCH  19  20
ATOM     20  C   UNL     1       1.102   2.650  19.221  0.00  0.00    +0.000 C 
BRANCH  20  21
ATOM     21  C   UNL     1       0.995   3.444  20.517  0.00  0.00    +0.000 C 
BRANCH  21  22
ATOM     22  C   UNL     1       1.437   2.609  21.712  0.00  0.00    +0.000 C 
BRANCH  22  23
ATOM     23  O   UNL     1       2.850   2.661  21.838  0.00  0.00    +0.000 OA
ATOM     24  H   UNL     1       3.230   2.225  21.057  0.00  0.00    +0.000 HD
ENDBRANCH  22  23
ENDBRANCH  21  22
ENDBRANCH  20  21
ENDBRANCH  19  20
ENDBRANCH  18  19
ENDBRANCH  16  18
ENDBRANCH   2  16
TORSDOF 9
ENDMDL
MODEL 5
REMARK VINA RESULT:      -6.6      3.991      5.773
REMARK  Name = 
REMARK  9 active torsions:
REMARK  status: ('A' for Active; 'I' for Inactive)
REMARK    1  A    between atoms: S_2  and  N_4
REMARK    2  A    between atoms: S_2  and  C_11
REMARK    3  A    between atoms: N_4  and  C_5
REMARK    4  A    between atoms: C_5  and  C_6
REMARK    5  A    between atoms: C_6  and  C_7
REMARK    6  A    between atoms: C_7  and  C_8
REMARK    7  A    between atoms: C_8  and  C_9
REMARK    8  A    between atoms: C_9  and  O_10
REMARK    9  A    between atoms: C_14  and  C_15
REMARK                            x       y       z     vdW  Elec       q    Type
REMARK                         _______ _______ _______ _____ _____    ______ ____
ROOT
ATOM      1  O   UNL     1       4.343   5.180  19.437  0.00  0.00    +0.000 OA
ATOM      2  S   UNL     1       3.712   5.685  18.237  0.00  0.00    +0.000 S 
ATOM      3  O   UNL     1       4.489   6.046  17.070  0.00  0.00    +0.000 OA
ENDROOT
BRANCH   2   4
ATOM      4  C   UNL     1       2.714   7.080  18.671  0.00  0.00    +0.000 A 
ATOM      5  C   UNL     1       2.229   7.150  19.974  0.00  0.00    +0.000 A 
ATOM      6  C   UNL     1       1.425   8.218  20.359  0.00  0.00    +0.000 A 
ATOM      7  C   UNL     1       1.098   9.259  19.471  0.00  0.00    +0.000 A 
ATOM      8  C   UNL     1       1.629   9.186  18.170  0.00  0.00    +0.000 A 
ATOM      9  C   UNL     1       2.435   8.107  17.762  0.00  0.00    +0.000 A 
BRANCH   7  10
ATOM     10  C   UNL     1       0.180  10.332  19.911  0.00  0.00    +0.000 A 
ATOM     11  C   UNL     1      -1.016  10.595  19.212  0.00  0.00    +0.000 A 
ATOM     12  C   UNL     1      -1.826  11.685  19.528  0.00  0.00    +0.000 A 
ATOM     13  C   UNL     1      -1.473  12.527  20.578  0.00  0.00    +0.000 A 
ATOM     14  C   UNL     1      -0.319  12.267  21.312  0.00  0.00    +0.000 A 
ATOM     15  C   UNL     1       0.497  11.184  20.984  0.00  0.00    +0.000 A 
ENDBRANCH   7  10
ENDBRANCH   2   4
BRANCH   2  16
ATOM     16  N   UNL     1       2.599   4.508  17.726  0.00  0.00    +0.000 NA
ATOM     17  H   UNL     1       2.212   4.802  16.827  0.00  0.00    +0.000 HD
BRANCH  16  18
ATOM     18  C   UNL     1       3.100   3.128  17.793  0.00  0.00    +0.000 C 
BRANCH  18  19
ATOM     19  C   UNL     1       2.441   2.348  18.926  0.00  0.00    +0.000 C 
BRANCH  19  20
ATOM     20  C   UNL     1       1.028   2.895  19.152  0.00  0.00    +0.000 C 
BRANCH  20  21
ATOM     21  C   UNL     1       0.936   3.772  20.395  0.00  0.00    +0.000 C 
BRANCH  21  22
ATOM     22  C   UNL     1       1.991   3.380  21.423  0.00  0.00    +0.000 C 
BRANCH  22  23
ATOM     23  O   UNL     1       1.463   2.396  22.301  0.00  0.00    +0.000 OA
ATOM     24  H   UNL     1       1.267   1.605  21.771  0.00  0.00    +0.000 HD
ENDBRANCH  22  23
ENDBRANCH  21  22
ENDBRANCH  20  21
ENDBRANCH  19  20
ENDBRANCH  18  19
ENDBRANCH  16  18
ENDBRANCH   2  16
TORSDOF 9
ENDMDL
MODEL 6
REMARK VINA RESULT:      -6.6      5.847      9.039
REMARK  Name = 
REMARK  9 active torsions:
REMARK  status: ('A' for Active; 'I' for Inactive)
REMARK    1  A    between atoms: S_2  and  N_4
REMARK    2  A    between atoms: S_2  and  C_11
REMARK    3  A    between atoms: N_4  and  C_5
REMARK    4  A    between atoms: C_5  and  C_6
REMARK    5  A    between atoms: C_6  and  C_7
REMARK    6  A    between atoms: C_7  and  C_8
REMARK    7  A    between atoms: C_8  and  C_9
REMARK    8  A    between atoms: C_9  and  O_10
REMARK    9  A    between atoms: C_14  and  C_15
REMARK                            x       y       z     vdW  Elec       q    Type
REMARK                         _______ _______ _______ _____ _____    ______ ____
ROOT
ATOM      1  O   UNL     1       1.135  12.042  20.061  0.00  0.00    +0.000 OA
ATOM      2  S   UNL     1       0.610  10.805  20.595  0.00  0.00    +0.000 S 
ATOM      3  O   UNL     1       0.692  10.497  22.008  0.00  0.00    +0.000 OA
ENDROOT
BRANCH   2   4
ATOM      4  C   UNL     1       1.334   9.456  19.709  0.00  0.00    +0.000 A 
ATOM      5  C   UNL     1       1.598   8.284  20.413  0.00  0.00    +0.000 A 
ATOM      6  C   UNL     1       2.184   7.202  19.766  0.00  0.00    +0.000 A 
ATOM      7  C   UNL     1       2.504   7.241  18.396  0.00  0.00    +0.000 A 
ATOM      8  C   UNL     1       2.195   8.421  17.695  0.00  0.00    +0.000 A 
ATOM      9  C   UNL     1       1.613   9.529  18.339  0.00  0.00    +0.000 A 
BRANCH   7  10
ATOM     10  C   UNL     1       3.193   6.088  17.774  0.00  0.00    +0.000 A 
ATOM     11  C   UNL     1       2.744   4.770  17.997  0.00  0.00    +0.000 A 
ATOM     12  C   UNL     1       3.456   3.665  17.531  0.00  0.00    +0.000 A 
ATOM     13  C   UNL     1       4.625   3.853  16.801  0.00  0.00    +0.000 A 
ATOM     14  C   UNL     1       5.069   5.145  16.531  0.00  0.00    +0.000 A 
ATOM     15  C   UNL     1       4.363   6.249  17.011  0.00  0.00    +0.000 A 
ENDBRANCH   7  10
ENDBRANCH   2   4
BRANCH   2  16
ATOM     16  N   UNL     1      -1.039  10.745  20.188  0.00  0.00    +0.000 NA
ATOM     17  H   UNL     1      -1.555  10.389  20.993  0.00  0.00    +0.000 HD
BRANCH  16  18
ATOM     18  C   UNL     1      -1.559  11.979  19.582  0.00  0.00    +0.000 C 
BRANCH  18  19
ATOM     19  C   UNL     1      -1.581  11.888  18.059  0.00  0.00    +0.000 C 
BRANCH  19  20
ATOM     20  C   UNL     1      -1.872  10.439  17.651  0.00  0.00    +0.000 C 
BRANCH  20  21
ATOM     21  C   UNL     1      -3.335  10.221  17.286  0.00  0.00    +0.000 C 
BRANCH  21  22
ATOM     22  C   UNL     1      -3.846  11.331  16.375  0.00  0.00    +0.000 C 
BRANCH  22  23
ATOM     23  O   UNL     1      -3.209  11.244  15.108  0.00  0.00    +0.000 OA
ATOM     24  H   UNL     1      -2.266  11.441  15.241  0.00  0.00    +0.000 HD
ENDBRANCH  22  23
ENDBRANCH  21  22
ENDBRANCH  20  21
ENDBRANCH  19  20
ENDBRANCH  18  19
ENDBRANCH  16  18
ENDBRANCH   2  16
TORSDOF 9
ENDMDL
MODEL 7
REMARK VINA RESULT:      -6.6      1.794      2.879
REMARK  Name = 
REMARK  9 active torsions:
REMARK  status: ('A' for Active; 'I' for Inactive)
REMARK    1  A    between atoms: S_2  and  N_4
REMARK    2  A    between atoms: S_2  and  C_11
REMARK    3  A    between atoms: N_4  and  C_5
REMARK    4  A    between atoms: C_5  and  C_6
REMARK    5  A    between atoms: C_6  and  C_7
REMARK    6  A    between atoms: C_7  and  C_8
REMARK    7  A    between atoms: C_8  and  C_9
REMARK    8  A    between atoms: C_9  and  O_10
REMARK    9  A    between atoms: C_14  and  C_15
REMARK                            x       y       z     vdW  Elec       q    Type
REMARK                         _______ _______ _______ _____ _____    ______ ____
ROOT
ATOM      1  O   UNL     1       3.070   2.901  18.003  0.00  0.00    +0.000 OA
ATOM      2  S   UNL     1       4.063   3.933  18.209  0.00  0.00    +0.000 S 
ATOM      3  O   UNL     1       5.236   3.700  19.025  0.00  0.00    +0.000 OA
ENDROOT
BRANCH   2   4
ATOM      4  C   UNL     1       3.253   5.376  18.832  0.00  0.00    +0.000 A 
ATOM      5  C   UNL     1       2.729   5.320  20.122  0.00  0.00    +0.000 A 
ATOM      6  C   UNL     1       2.066   6.422  20.651  0.00  0.00    +0.000 A 
ATOM      7  C   UNL     1       1.925   7.621  19.927  0.00  0.00    +0.000 A 
ATOM      8  C   UNL     1       2.493   7.668  18.641  0.00  0.00    +0.000 A 
ATOM      9  C   UNL     1       3.157   6.558  18.087  0.00  0.00    +0.000 A 
BRANCH   7  10
ATOM     10  C   UNL     1       1.148   8.737  20.510  0.00  0.00    +0.000 A 
ATOM     11  C   UNL     1       0.841   8.766  21.886  0.00  0.00    +0.000 A 
ATOM     12  C   UNL     1      -0.001   9.736  22.428  0.00  0.00    +0.000 A 
ATOM     13  C   UNL     1      -0.536  10.725  21.609  0.00  0.00    +0.000 A 
ATOM     14  C   UNL     1      -0.217  10.745  20.254  0.00  0.00    +0.000 A 
ATOM     15  C   UNL     1       0.614   9.764  19.710  0.00  0.00    +0.000 A 
ENDBRANCH   7  10
ENDBRANCH   2   4
BRANCH   2  16
ATOM     16  N   UNL     1       4.630   4.393  16.675  0.00  0.00    +0.000 NA
ATOM     17  H   UNL     1       3.933   5.003  16.245  0.00  0.00    +0.000 HD
BRANCH  16  18
ATOM     18  C   UNL     1       6.016   4.885  16.662  0.00  0.00    +0.000 C 
BRANCH  18  19
ATOM     19  C   UNL     1       6.596   4.886  15.252  0.00  0.00    +0.000 C 
BRANCH  19  20
ATOM     20  C   UNL     1       5.703   4.032  14.345  0.00  0.00    +0.000 C 
BRANCH  20  21
ATOM     21  C   UNL     1       6.378   3.689  13.022  0.00  0.00    +0.000 C 
BRANCH  21  22
ATOM     22  C   UNL     1       5.359   3.216  11.992  0.00  0.00    +0.000 C 
BRANCH  22  23
ATOM     23  O   UNL     1       5.717   1.926  11.519  0.00  0.00    +0.000 OA
ATOM     24  H   UNL     1       6.435   1.595  12.086  0.00  0.00    +0.000 HD
ENDBRANCH  22  23
ENDBRANCH  21  22
ENDBRANCH  20  21
ENDBRANCH  19  20
ENDBRANCH  18  19
ENDBRANCH  16  18
ENDBRANCH   2  16
TORSDOF 9
ENDMDL
MODEL 8
REMARK VINA RESULT:      -6.6      4.005      5.854
REMARK  Name = 
REMARK  9 active torsions:
REMARK  status: ('A' for Active; 'I' for Inactive)
REMARK    1  A    between atoms: S_2  and  N_4
REMARK    2  A    between atoms: S_2  and  C_11
REMARK    3  A    between atoms: N_4  and  C_5
REMARK    4  A    between atoms: C_5  and  C_6
REMARK    5  A    between atoms: C_6  and  C_7
REMARK    6  A    between atoms: C_7  and  C_8
REMARK    7  A    between atoms: C_8  and  C_9
REMARK    8  A    between atoms: C_9  and  O_10
REMARK    9  A    between atoms: C_14  and  C_15
REMARK                            x       y       z     vdW  Elec       q    Type
REMARK                         _______ _______ _______ _____ _____    ______ ____
ROOT
ATOM      1  O   UNL     1       4.227   5.424  19.355  0.00  0.00    +0.000 OA
ATOM      2  S   UNL     1       3.583   5.992  18.191  0.00  0.00    +0.000 S 
ATOM      3  O   UNL     1       4.349   6.428  17.042  0.00  0.00    +0.000 OA
ENDROOT
BRANCH   2   4
ATOM      4  C   UNL     1       2.575   7.349  18.711  0.00  0.00    +0.000 A 
ATOM      5  C   UNL     1       2.130   7.357  20.030  0.00  0.00    +0.000 A 
ATOM      6  C   UNL     1       1.319   8.393  20.483  0.00  0.00    +0.000 A 
ATOM      7  C   UNL     1       0.945   9.462  19.648  0.00  0.00    +0.000 A 
ATOM      8  C   UNL     1       1.436   9.452  18.330  0.00  0.00    +0.000 A 
ATOM      9  C   UNL     1       2.248   8.406  17.853  0.00  0.00    +0.000 A 
BRANCH   7  10
ATOM     10  C   UNL     1       0.022  10.499  20.160  0.00  0.00    +0.000 A 
ATOM     11  C   UNL     1       0.033  10.872  21.519  0.00  0.00    +0.000 A 
ATOM     12  C   UNL     1      -0.916  11.747  22.047  0.00  0.00    +0.000 A 
ATOM     13  C   UNL     1      -1.887  12.297  21.216  0.00  0.00    +0.000 A 
ATOM     14  C   UNL     1      -1.897  11.978  19.861  0.00  0.00    +0.000 A 
ATOM     15  C   UNL     1      -0.955  11.091  19.339  0.00  0.00    +0.000 A 
ENDBRANCH   7  10
ENDBRANCH   2   4
BRANCH   2  16
ATOM     16  N   UNL     1       2.478   4.835  17.617  0.00  0.00    +0.000 NA
ATOM     17  H   UNL     1       2.051   5.196  16.763  0.00  0.00    +0.000 HD
BRANCH  16  18
ATOM     18  C   UNL     1       3.014   3.468  17.544  0.00  0.00    +0.000 C 
BRANCH  18  19
ATOM     19  C   UNL     1       2.222   2.509  18.426  0.00  0.00    +0.000 C 
BRANCH  19  20
ATOM     20  C   UNL     1       0.903   3.177  18.831  0.00  0.00    +0.000 C 
BRANCH  20  21
ATOM     21  C   UNL     1       0.868   3.543  20.310  0.00  0.00    +0.000 C 
BRANCH  21  22
ATOM     22  C   UNL     1       2.000   2.864  21.071  0.00  0.00    +0.000 C 
BRANCH  22  23
ATOM     23  O   UNL     1       1.532   2.426  22.339  0.00  0.00    +0.000 OA
ATOM     24  H   UNL     1       2.104   1.693  22.625  0.00  0.00    +0.000 HD
ENDBRANCH  22  23
ENDBRANCH  21  22
ENDBRANCH  20  21
ENDBRANCH  19  20
ENDBRANCH  18  19
ENDBRANCH  16  18
ENDBRANCH   2  16
TORSDOF 9
ENDMDL
MODEL 9
REMARK VINA RESULT:      -6.6      4.373      5.807
REMARK  Name = 
REMARK  9 active torsions:
REMARK  status: ('A' for Active; 'I' for Inactive)
REMARK    1  A    between atoms: S_2  and  N_4
REMARK    2  A    between atoms: S_2  and  C_11
REMARK    3  A    between atoms: N_4  and  C_5
REMARK    4  A    between atoms: C_5  and  C_6
REMARK    5  A    between atoms: C_6  and  C_7
REMARK    6  A    between atoms: C_7  and  C_8
REMARK    7  A    between atoms: C_8  and  C_9
REMARK    8  A    between atoms: C_9  and  O_10
REMARK    9  A    between atoms: C_14  and  C_15
REMARK                            x       y       z     vdW  Elec       q    Type
REMARK                         _______ _______ _______ _____ _____    ______ ____
ROOT
ATOM      1  O   UNL     1       4.382   6.557  17.628  0.00  0.00    +0.000 OA
ATOM      2  S   UNL     1       3.213   6.011  18.283  0.00  0.00    +0.000 S 
ATOM      3  O   UNL     1       2.276   5.167  17.572  0.00  0.00    +0.000 OA
ENDROOT
BRANCH   2   4
ATOM      4  C   UNL     1       2.298   7.342  19.003  0.00  0.00    +0.000 A 
ATOM      5  C   UNL     1       1.951   7.238  20.348  0.00  0.00    +0.000 A 
ATOM      6  C   UNL     1       1.216   8.249  20.956  0.00  0.00    +0.000 A 
ATOM      7  C   UNL     1       0.823   9.405  20.256  0.00  0.00    +0.000 A 
ATOM      8  C   UNL     1       1.215   9.506  18.909  0.00  0.00    +0.000 A 
ATOM      9  C   UNL     1       1.949   8.486  18.276  0.00  0.00    +0.000 A 
BRANCH   7  10
ATOM     10  C   UNL     1      -0.021  10.416  20.931  0.00  0.00    +0.000 A 
ATOM     11  C   UNL     1      -0.226  10.374  22.325  0.00  0.00    +0.000 A 
ATOM     12  C   UNL     1      -1.121  11.234  22.961  0.00  0.00    +0.000 A 
ATOM     13  C   UNL     1      -1.815  12.183  22.217  0.00  0.00    +0.000 A 
ATOM     14  C   UNL     1      -1.601  12.274  20.844  0.00  0.00    +0.000 A 
ATOM     15  C   UNL     1      -0.715  11.402  20.208  0.00  0.00    +0.000 A 
ENDBRANCH   7  10
ENDBRANCH   2   4
BRANCH   2  16
ATOM     16  N   UNL     1       3.762   5.105  19.611  0.00  0.00    +0.000 NA
ATOM     17  H   UNL     1       2.967   4.919  20.223  0.00  0.00    +0.000 HD
BRANCH  16  18
ATOM     18  C   UNL     1       4.587   3.941  19.253  0.00  0.00    +0.000 C 
BRANCH  18  19
ATOM     19  C   UNL     1       4.059   2.663  19.896  0.00  0.00    +0.000 C 
BRANCH  19  20
ATOM     20  C   UNL     1       3.248   1.880  18.856  0.00  0.00    +0.000 C 
BRANCH  20  21
ATOM     21  C   UNL     1       1.745   2.035  19.056  0.00  0.00    +0.000 C 
BRANCH  21  22
ATOM     22  C   UNL     1       1.433   2.681  20.400  0.00  0.00    +0.000 C 
BRANCH  22  23
ATOM     23  O   UNL     1       0.886   3.975  20.196  0.00  0.00    +0.000 OA
ATOM     24  H   UNL     1       0.476   3.984  19.314  0.00  0.00    +0.000 HD
ENDBRANCH  22  23
ENDBRANCH  21  22
ENDBRANCH  20  21
ENDBRANCH  19  20
ENDBRANCH  18  19
ENDBRANCH  16  18
ENDBRANCH   2  16
TORSDOF 9
ENDMDL
