MODEL 1
REMARK VINA RESULT:      -7.1      0.000      0.000
REMARK  Name = 
REMARK  8 active torsions:
REMARK  status: ('A' for Active; 'I' for Inactive)
REMARK    1  A    between atoms: C_1  and  C_2
REMARK    2  A    between atoms: C_4  and  N_5
REMARK    3  A    between atoms: N_5  and  S_6
REMARK    4  A    between atoms: S_6  and  C_9
REMARK    5  A    between atoms: C_16  and  O_17
REMARK    6  A    between atoms: O_17  and  C_18
REMARK    7  A    between atoms: C_18  and  C_19
REMARK    8  A    between atoms: C_19  and  N_20
REMARK                            x       y       z     vdW  Elec       q    Type
REMARK                         _______ _______ _______ _____ _____    ______ ____
ROOT
ATOM      1  C   UNL     1       7.747   6.176  19.010  0.00  0.00    +0.000 C 
ATOM      2  C   UNL     1       6.916   5.356  18.066  0.00  0.00    +0.000 A 
ATOM      3  C   UNL     1       5.941   4.467  18.538  0.00  0.00    +0.000 A 
ATOM      4  C   UNL     1       5.180   3.725  17.636  0.00  0.00    +0.000 A 
ATOM      5  C   UNL     1       5.382   3.863  16.264  0.00  0.00    +0.000 A 
ATOM      6  C   UNL     1       6.363   4.728  15.781  0.00  0.00    +0.000 A 
ATOM      7  C   UNL     1       7.120   5.480  16.681  0.00  0.00    +0.000 A 
ENDROOT
BRANCH   4   8
ATOM      8  N   UNL     1       4.219   2.786  18.093  0.00  0.00    +0.000 N 
ATOM      9  H   UNL     1       4.429   2.252  18.934  0.00  0.00    +0.000 HD
BRANCH   8  10
ATOM     10  S   UNL     1       2.578   3.123  17.928  0.00  0.00    +0.000 S 
ATOM     11  O   UNL     1       2.358   3.305  16.504  0.00  0.00    +0.000 OA
ATOM     12  O   UNL     1       1.805   2.157  18.675  0.00  0.00    +0.000 OA
BRANCH  10  13
ATOM     13  C   UNL     1       2.419   4.713  18.700  0.00  0.00    +0.000 A 
ATOM     14  C   UNL     1       2.623   5.875  17.949  0.00  0.00    +0.000 A 
ATOM     15  C   UNL     1       2.487   7.121  18.561  0.00  0.00    +0.000 A 
ATOM     16  C   UNL     1       2.137   7.204  19.910  0.00  0.00    +0.000 A 
ATOM     17  C   UNL     1       1.910   6.041  20.649  0.00  0.00    +0.000 A 
ATOM     18  C   UNL     1       2.041   4.792  20.044  0.00  0.00    +0.000 A 
ENDBRANCH  10  13
ENDBRANCH   8  10
ENDBRANCH   4   8
BRANCH   6  19
ATOM     19  O   UNL     1       6.469   4.781  14.417  0.00  0.00    +0.000 OA
BRANCH  19  20
ATOM     20  C   UNL     1       5.698   3.821  13.687  0.00  0.00    +0.000 C 
BRANCH  20  21
ATOM     21  C   UNL     1       6.398   3.538  12.351  0.00  0.00    +0.000 C 
BRANCH  21  22
ATOM     22  N   UNL     1       6.132   2.176  11.879  0.00  0.00    +0.000 NA
ATOM     23  H   UNL     1       6.071   2.202  10.859  0.00  0.00    +0.000 HD
ATOM     24  H   UNL     1       5.219   1.871  12.213  0.00  0.00    +0.000 HD
ENDBRANCH  21  22
ENDBRANCH  20  21
ENDBRANCH  19  20
ENDBRANCH   6  19
TORSDOF 7
ENDMDL
MODEL 2
REMARK VINA RESULT:      -6.9      2.497      6.188
REMARK  Name = 
REMARK  8 active torsions:
REMARK  status: ('A' for Active; 'I' for Inactive)
REMARK    1  A    between atoms: C_1  and  C_2
REMARK    2  A    between atoms: C_4  and  N_5
REMARK    3  A    between atoms: N_5  and  S_6
REMARK    4  A    between atoms: S_6  and  C_9
REMARK    5  A    between atoms: C_16  and  O_17
REMARK    6  A    between atoms: O_17  and  C_18
REMARK    7  A    between atoms: C_18  and  C_19
REMARK    8  A    between atoms: C_19  and  N_20
REMARK                            x       y       z     vdW  Elec       q    Type
REMARK                         _______ _______ _______ _____ _____    ______ ____
ROOT
ATOM      1  C   UNL     1       2.104   7.722  19.820  0.00  0.00    +0.000 C 
ATOM      2  C   UNL     1       2.665   6.675  18.901  0.00  0.00    +0.000 A 
ATOM      3  C   UNL     1       3.654   6.987  17.959  0.00  0.00    +0.000 A 
ATOM      4  C   UNL     1       4.159   5.990  17.125  0.00  0.00    +0.000 A 
ATOM      5  C   UNL     1       3.688   4.683  17.223  0.00  0.00    +0.000 A 
ATOM      6  C   UNL     1       2.689   4.363  18.142  0.00  0.00    +0.000 A 
ATOM      7  C   UNL     1       2.187   5.356  18.985  0.00  0.00    +0.000 A 
ENDROOT
BRANCH   4   8
ATOM      8  N   UNL     1       5.129   6.293  16.134  0.00  0.00    +0.000 N 
ATOM      9  H   UNL     1       5.211   7.257  15.818  0.00  0.00    +0.000 HD
BRANCH   8  10
ATOM     10  S   UNL     1       6.602   5.478  16.129  0.00  0.00    +0.000 S 
ATOM     11  O   UNL     1       7.618   6.506  16.273  0.00  0.00    +0.000 OA
ATOM     12  O   UNL     1       6.545   4.364  17.048  0.00  0.00    +0.000 OA
BRANCH  10  13
ATOM     13  C   UNL     1       6.706   4.855  14.470  0.00  0.00    +0.000 A 
ATOM     14  C   UNL     1       7.653   5.383  13.587  0.00  0.00    +0.000 A 
ATOM     15  C   UNL     1       7.734   4.881  12.287  0.00  0.00    +0.000 A 
ATOM     16  C   UNL     1       6.883   3.851  11.880  0.00  0.00    +0.000 A 
ATOM     17  C   UNL     1       5.956   3.312  12.773  0.00  0.00    +0.000 A 
ATOM     18  C   UNL     1       5.870   3.806  14.074  0.00  0.00    +0.000 A 
ENDBRANCH  10  13
ENDBRANCH   8  10
ENDBRANCH   4   8
BRANCH   6  19
ATOM     19  O   UNL     1       2.305   3.049  18.148  0.00  0.00    +0.000 OA
BRANCH  19  20
ATOM     20  C   UNL     1       3.327   2.092  17.843  0.00  0.00    +0.000 C 
BRANCH  20  21
ATOM     21  C   UNL     1       3.855   1.499  19.157  0.00  0.00    +0.000 C 
BRANCH  21  22
ATOM     22  N   UNL     1       5.005   2.252  19.665  0.00  0.00    +0.000 NA
ATOM     23  H   UNL     1       5.816   1.629  19.662  0.00  0.00    +0.000 HD
ATOM     24  H   UNL     1       4.843   2.507  20.638  0.00  0.00    +0.000 HD
ENDBRANCH  21  22
ENDBRANCH  20  21
ENDBRANCH  19  20
ENDBRANCH   6  19
TORSDOF 7
ENDMDL
MODEL 3
REMARK VINA RESULT:      -6.9      2.473      6.160
REMARK  Name = 
REMARK  8 active torsions:
REMARK  status: ('A' for Active; 'I' for Inactive)
REMARK    1  A    between atoms: C_1  and  C_2
REMARK    2  A    between atoms: C_4  and  N_5
REMARK    3  A    between atoms: N_5  and  S_6
REMARK    4  A    between atoms: S_6  and  C_9
REMARK    5  A    between atoms: C_16  and  O_17
REMARK    6  A    between atoms: O_17  and  C_18
REMARK    7  A    between atoms: C_18  and  C_19
REMARK    8  A    between atoms: C_19  and  N_20
REMARK                            x       y       z     vdW  Elec       q    Type
REMARK                         _______ _______ _______ _____ _____    ______ ____
ROOT
ATOM      1  C   UNL     1       1.938   6.685  20.166  0.00  0.00    +0.000 C 
ATOM      2  C   UNL     1       2.548   5.897  19.042  0.00  0.00    +0.000 A 
ATOM      3  C   UNL     1       3.567   6.435  18.245  0.00  0.00    +0.000 A 
ATOM      4  C   UNL     1       4.117   5.675  17.213  0.00  0.00    +0.000 A 
ATOM      5  C   UNL     1       3.660   4.381  16.971  0.00  0.00    +0.000 A 
ATOM      6  C   UNL     1       2.632   3.841  17.743  0.00  0.00    +0.000 A 
ATOM      7  C   UNL     1       2.085   4.595  18.783  0.00  0.00    +0.000 A 
ENDROOT
BRANCH   4   8
ATOM      8  N   UNL     1       5.118   6.216  16.366  0.00  0.00    +0.000 N 
ATOM      9  H   UNL     1       5.162   7.226  16.255  0.00  0.00    +0.000 HD
BRANCH   8  10
ATOM     10  S   UNL     1       6.633   5.486  16.291  0.00  0.00    +0.000 S 
ATOM     11  O   UNL     1       7.595   6.568  16.400  0.00  0.00    +0.000 OA
ATOM     12  O   UNL     1       6.679   4.364  17.201  0.00  0.00    +0.000 OA
BRANCH  10  13
ATOM     13  C   UNL     1       6.700   4.880  14.623  0.00  0.00    +0.000 A 
ATOM     14  C   UNL     1       5.745   3.961  14.178  0.00  0.00    +0.000 A 
ATOM     15  C   UNL     1       5.799   3.497  12.863  0.00  0.00    +0.000 A 
ATOM     16  C   UNL     1       6.793   3.959  11.998  0.00  0.00    +0.000 A 
ATOM     17  C   UNL     1       7.730   4.895  12.441  0.00  0.00    +0.000 A 
ATOM     18  C   UNL     1       7.681   5.366  13.752  0.00  0.00    +0.000 A 
ENDBRANCH  10  13
ENDBRANCH   8  10
ENDBRANCH   4   8
BRANCH   6  19
ATOM     19  O   UNL     1       2.268   2.564  17.413  0.00  0.00    +0.000 OA
BRANCH  19  20
ATOM     20  C   UNL     1       2.531   1.558  18.398  0.00  0.00    +0.000 C 
BRANCH  20  21
ATOM     21  C   UNL     1       4.019   1.187  18.339  0.00  0.00    +0.000 C 
BRANCH  21  22
ATOM     22  N   UNL     1       4.746   1.686  19.511  0.00  0.00    +0.000 NA
ATOM     23  H   UNL     1       5.668   1.243  19.521  0.00  0.00    +0.000 HD
ATOM     24  H   UNL     1       4.274   1.382  20.361  0.00  0.00    +0.000 HD
ENDBRANCH  21  22
ENDBRANCH  20  21
ENDBRANCH  19  20
ENDBRANCH   6  19
TORSDOF 7
ENDMDL
MODEL 4
REMARK VINA RESULT:      -6.8      1.942      2.667
REMARK  Name = 
REMARK  8 active torsions:
REMARK  status: ('A' for Active; 'I' for Inactive)
REMARK    1  A    between atoms: C_1  and  C_2
REMARK    2  A    between atoms: C_4  and  N_5
REMARK    3  A    between atoms: N_5  and  S_6
REMARK    4  A    between atoms: S_6  and  C_9
REMARK    5  A    between atoms: C_16  and  O_17
REMARK    6  A    between atoms: O_17  and  C_18
REMARK    7  A    between atoms: C_18  and  C_19
REMARK    8  A    between atoms: C_19  and  N_20
REMARK                            x       y       z     vdW  Elec       q    Type
REMARK                         _______ _______ _______ _____ _____    ______ ____
ROOT
ATOM      1  C   UNL     1       3.077   7.798  17.812  0.00  0.00    +0.000 C 
ATOM      2  C   UNL     1       4.058   6.693  17.540  0.00  0.00    +0.000 A 
ATOM      3  C   UNL     1       4.295   5.682  18.479  0.00  0.00    +0.000 A 
ATOM      4  C   UNL     1       5.207   4.667  18.194  0.00  0.00    +0.000 A 
ATOM      5  C   UNL     1       5.884   4.650  16.976  0.00  0.00    +0.000 A 
ATOM      6  C   UNL     1       5.673   5.662  16.040  0.00  0.00    +0.000 A 
ATOM      7  C   UNL     1       4.754   6.675  16.319  0.00  0.00    +0.000 A 
ENDROOT
BRANCH   4   8
ATOM      8  N   UNL     1       5.495   3.657  19.149  0.00  0.00    +0.000 N 
ATOM      9  H   UNL     1       5.781   3.944  20.083  0.00  0.00    +0.000 HD
BRANCH   8  10
ATOM     10  S   UNL     1       4.605   2.229  19.150  0.00  0.00    +0.000 S 
ATOM     11  O   UNL     1       4.544   1.804  17.763  0.00  0.00    +0.000 OA
ATOM     12  O   UNL     1       5.111   1.340  20.171  0.00  0.00    +0.000 OA
BRANCH  10  13
ATOM     13  C   UNL     1       2.980   2.774  19.612  0.00  0.00    +0.000 A 
ATOM     14  C   UNL     1       1.977   2.871  18.642  0.00  0.00    +0.000 A 
ATOM     15  C   UNL     1       0.700   3.291  19.015  0.00  0.00    +0.000 A 
ATOM     16  C   UNL     1       0.426   3.600  20.349  0.00  0.00    +0.000 A 
ATOM     17  C   UNL     1       1.425   3.478  21.317  0.00  0.00    +0.000 A 
ATOM     18  C   UNL     1       2.703   3.056  20.954  0.00  0.00    +0.000 A 
ENDBRANCH  10  13
ENDBRANCH   8  10
ENDBRANCH   4   8
BRANCH   6  19
ATOM     19  O   UNL     1       6.393   5.540  14.882  0.00  0.00    +0.000 OA
BRANCH  19  20
ATOM     20  C   UNL     1       6.698   4.204  14.467  0.00  0.00    +0.000 C 
BRANCH  20  21
ATOM     21  C   UNL     1       5.755   3.815  13.321  0.00  0.00    +0.000 C 
BRANCH  21  22
ATOM     22  N   UNL     1       6.461   3.085  12.264  0.00  0.00    +0.000 NA
ATOM     23  H   UNL     1       6.471   3.674  11.428  0.00  0.00    +0.000 HD
ATOM     24  H   UNL     1       5.937   2.247  12.018  0.00  0.00    +0.000 HD
ENDBRANCH  21  22
ENDBRANCH  20  21
ENDBRANCH  19  20
ENDBRANCH   6  19
TORSDOF 7
ENDMDL
MODEL 5
REMARK VINA RESULT:      -6.8      2.624      6.685
REMARK  Name = 
REMARK  8 active torsions:
REMARK  status: ('A' for Active; 'I' for Inactive)
REMARK    1  A    between atoms: C_1  and  C_2
REMARK    2  A    between atoms: C_4  and  N_5
REMARK    3  A    between atoms: N_5  and  S_6
REMARK    4  A    between atoms: S_6  and  C_9
REMARK    5  A    between atoms: C_16  and  O_17
REMARK    6  A    between atoms: O_17  and  C_18
REMARK    7  A    between atoms: C_18  and  C_19
REMARK    8  A    between atoms: C_19  and  N_20
REMARK                            x       y       z     vdW  Elec       q    Type
REMARK                         _______ _______ _______ _____ _____    ______ ____
ROOT
ATOM      1  C   UNL     1       1.794   8.750  18.066  0.00  0.00    +0.000 C 
ATOM      2  C   UNL     1       2.736   7.585  18.185  0.00  0.00    +0.000 A 
ATOM      3  C   UNL     1       3.784   7.400  17.274  0.00  0.00    +0.000 A 
ATOM      4  C   UNL     1       4.644   6.313  17.415  0.00  0.00    +0.000 A 
ATOM      5  C   UNL     1       4.471   5.408  18.461  0.00  0.00    +0.000 A 
ATOM      6  C   UNL     1       3.420   5.569  19.362  0.00  0.00    +0.000 A 
ATOM      7  C   UNL     1       2.561   6.662  19.229  0.00  0.00    +0.000 A 
ENDROOT
BRANCH   4   8
ATOM      8  N   UNL     1       5.685   6.081  16.478  0.00  0.00    +0.000 N 
ATOM      9  H   UNL     1       6.409   6.790  16.377  0.00  0.00    +0.000 HD
BRANCH   8  10
ATOM     10  S   UNL     1       6.264   4.519  16.241  0.00  0.00    +0.000 S 
ATOM     11  O   UNL     1       7.523   4.455  16.961  0.00  0.00    +0.000 OA
ATOM     12  O   UNL     1       5.213   3.564  16.508  0.00  0.00    +0.000 OA
BRANCH  10  13
ATOM     13  C   UNL     1       6.641   4.494  14.506  0.00  0.00    +0.000 A 
ATOM     14  C   UNL     1       7.612   5.359  13.993  0.00  0.00    +0.000 A 
ATOM     15  C   UNL     1       7.909   5.326  12.629  0.00  0.00    +0.000 A 
ATOM     16  C   UNL     1       7.247   4.427  11.790  0.00  0.00    +0.000 A 
ATOM     17  C   UNL     1       6.295   3.549  12.313  0.00  0.00    +0.000 A 
ATOM     18  C   UNL     1       5.995   3.574  13.674  0.00  0.00    +0.000 A 
ENDBRANCH  10  13
ENDBRANCH   8  10
ENDBRANCH   4   8
BRANCH   6  19
ATOM     19  O   UNL     1       3.349   4.620  20.346  0.00  0.00    +0.000 OA
BRANCH  19  20
ATOM     20  C   UNL     1       2.165   4.634  21.153  0.00  0.00    +0.000 C 
BRANCH  20  21
ATOM     21  C   UNL     1       1.552   3.227  21.152  0.00  0.00    +0.000 C 
BRANCH  21  22
ATOM     22  N   UNL     1       0.512   3.093  20.127  0.00  0.00    +0.000 NA
ATOM     23  H   UNL     1       0.972   3.058  19.215  0.00  0.00    +0.000 HD
ATOM     24  H   UNL     1      -0.073   3.926  20.122  0.00  0.00    +0.000 HD
ENDBRANCH  21  22
ENDBRANCH  20  21
ENDBRANCH  19  20
ENDBRANCH   6  19
TORSDOF 7
ENDMDL
MODEL 6
REMARK VINA RESULT:      -6.8      1.001      1.477
REMARK  Name = 
REMARK  8 active torsions:
REMARK  status: ('A' for Active; 'I' for Inactive)
REMARK    1  A    between atoms: C_1  and  C_2
REMARK    2  A    between atoms: C_4  and  N_5
REMARK    3  A    between atoms: N_5  and  S_6
REMARK    4  A    between atoms: S_6  and  C_9
REMARK    5  A    between atoms: C_16  and  O_17
REMARK    6  A    between atoms: O_17  and  C_18
REMARK    7  A    between atoms: C_18  and  C_19
REMARK    8  A    between atoms: C_19  and  N_20
REMARK                            x       y       z     vdW  Elec       q    Type
REMARK                         _______ _______ _______ _____ _____    ______ ____
ROOT
ATOM      1  C   UNL     1       7.905   7.586  18.122  0.00  0.00    +0.000 C 
ATOM      2  C   UNL     1       7.250   6.312  17.669  0.00  0.00    +0.000 A 
ATOM      3  C   UNL     1       6.482   5.536  18.548  0.00  0.00    +0.000 A 
ATOM      4  C   UNL     1       5.881   4.362  18.096  0.00  0.00    +0.000 A 
ATOM      5  C   UNL     1       6.037   3.956  16.772  0.00  0.00    +0.000 A 
ATOM      6  C   UNL     1       6.815   4.708  15.892  0.00  0.00    +0.000 A 
ATOM      7  C   UNL     1       7.411   5.888  16.339  0.00  0.00    +0.000 A 
ENDROOT
BRANCH   4   8
ATOM      8  N   UNL     1       5.137   3.539  18.980  0.00  0.00    +0.000 N 
ATOM      9  H   UNL     1       5.430   3.488  19.953  0.00  0.00    +0.000 HD
BRANCH   8  10
ATOM     10  S   UNL     1       3.469   3.405  18.793  0.00  0.00    +0.000 S 
ATOM     11  O   UNL     1       3.259   3.046  17.402  0.00  0.00    +0.000 OA
ATOM     12  O   UNL     1       2.924   2.591  19.855  0.00  0.00    +0.000 OA
BRANCH  10  13
ATOM     13  C   UNL     1       2.911   5.077  19.002  0.00  0.00    +0.000 A 
ATOM     14  C   UNL     1       2.468   5.511  20.255  0.00  0.00    +0.000 A 
ATOM     15  C   UNL     1       2.040   6.830  20.413  0.00  0.00    +0.000 A 
ATOM     16  C   UNL     1       2.066   7.709  19.328  0.00  0.00    +0.000 A 
ATOM     17  C   UNL     1       2.532   7.277  18.085  0.00  0.00    +0.000 A 
ATOM     18  C   UNL     1       2.964   5.962  17.920  0.00  0.00    +0.000 A 
ENDBRANCH  10  13
ENDBRANCH   8  10
ENDBRANCH   4   8
BRANCH   6  19
ATOM     19  O   UNL     1       6.895   4.211  14.619  0.00  0.00    +0.000 OA
BRANCH  19  20
ATOM     20  C   UNL     1       5.657   4.089  13.910  0.00  0.00    +0.000 C 
BRANCH  20  21
ATOM     21  C   UNL     1       5.935   3.469  12.535  0.00  0.00    +0.000 C 
BRANCH  21  22
ATOM     22  N   UNL     1       4.698   3.268  11.773  0.00  0.00    +0.000 NA
ATOM     23  H   UNL     1       3.914   3.548  12.367  0.00  0.00    +0.000 HD
ATOM     24  H   UNL     1       4.572   2.276  11.582  0.00  0.00    +0.000 HD
ENDBRANCH  21  22
ENDBRANCH  20  21
ENDBRANCH  19  20
ENDBRANCH   6  19
TORSDOF 7
ENDMDL
MODEL 7
REMARK VINA RESULT:      -6.7      1.827      2.415
REMARK  Name = 
REMARK  8 active torsions:
REMARK  status: ('A' for Active; 'I' for Inactive)
REMARK    1  A    between atoms: C_1  and  C_2
REMARK    2  A    between atoms: C_4  and  N_5
REMARK    3  A    between atoms: N_5  and  S_6
REMARK    4  A    between atoms: S_6  and  C_9
REMARK    5  A    between atoms: C_16  and  O_17
REMARK    6  A    between atoms: O_17  and  C_18
REMARK    7  A    between atoms: C_18  and  C_19
REMARK    8  A    between atoms: C_19  and  N_20
REMARK                            x       y       z     vdW  Elec       q    Type
REMARK                         _______ _______ _______ _____ _____    ______ ____
ROOT
ATOM      1  C   UNL     1       7.874   5.857  19.187  0.00  0.00    +0.000 C 
ATOM      2  C   UNL     1       6.875   5.434  18.149  0.00  0.00    +0.000 A 
ATOM      3  C   UNL     1       5.498   5.599  18.353  0.00  0.00    +0.000 A 
ATOM      4  C   UNL     1       4.596   5.202  17.366  0.00  0.00    +0.000 A 
ATOM      5  C   UNL     1       5.056   4.644  16.175  0.00  0.00    +0.000 A 
ATOM      6  C   UNL     1       6.422   4.455  15.967  0.00  0.00    +0.000 A 
ATOM      7  C   UNL     1       7.328   4.859  16.949  0.00  0.00    +0.000 A 
ENDROOT
BRANCH   4   8
ATOM      8  N   UNL     1       3.197   5.319  17.570  0.00  0.00    +0.000 N 
ATOM      9  H   UNL     1       2.724   6.143  17.206  0.00  0.00    +0.000 HD
BRANCH   8  10
ATOM     10  S   UNL     1       2.229   3.942  17.534  0.00  0.00    +0.000 S 
ATOM     11  O   UNL     1       0.881   4.419  17.283  0.00  0.00    +0.000 OA
ATOM     12  O   UNL     1       2.831   2.946  16.677  0.00  0.00    +0.000 OA
BRANCH  10  13
ATOM     13  C   UNL     1       2.288   3.371  19.214  0.00  0.00    +0.000 A 
ATOM     14  C   UNL     1       1.164   3.506  20.034  0.00  0.00    +0.000 A 
ATOM     15  C   UNL     1       1.215   3.046  21.351  0.00  0.00    +0.000 A 
ATOM     16  C   UNL     1       2.378   2.446  21.838  0.00  0.00    +0.000 A 
ATOM     17  C   UNL     1       3.490   2.292  21.007  0.00  0.00    +0.000 A 
ATOM     18  C   UNL     1       3.445   2.747  19.690  0.00  0.00    +0.000 A 
ENDBRANCH  10  13
ENDBRANCH   8  10
ENDBRANCH   4   8
BRANCH   6  19
ATOM     19  O   UNL     1       6.754   3.899  14.761  0.00  0.00    +0.000 OA
BRANCH  19  20
ATOM     20  C   UNL     1       5.707   3.836  13.786  0.00  0.00    +0.000 C 
BRANCH  20  21
ATOM     21  C   UNL     1       6.337   3.731  12.391  0.00  0.00    +0.000 C 
BRANCH  21  22
ATOM     22  N   UNL     1       7.507   4.606  12.261  0.00  0.00    +0.000 NA
ATOM     23  H   UNL     1       7.446   5.081  11.357  0.00  0.00    +0.000 HD
ATOM     24  H   UNL     1       8.354   4.042  12.231  0.00  0.00    +0.000 HD
ENDBRANCH  21  22
ENDBRANCH  20  21
ENDBRANCH  19  20
ENDBRANCH   6  19
TORSDOF 7
ENDMDL
MODEL 8
REMARK VINA RESULT:      -6.7      1.967      2.820
REMARK  Name = 
REMARK  8 active torsions:
REMARK  status: ('A' for Active; 'I' for Inactive)
REMARK    1  A    between atoms: C_1  and  C_2
REMARK    2  A    between atoms: C_4  and  N_5
REMARK    3  A    between atoms: N_5  and  S_6
REMARK    4  A    between atoms: S_6  and  C_9
REMARK    5  A    between atoms: C_16  and  O_17
REMARK    6  A    between atoms: O_17  and  C_18
REMARK    7  A    between atoms: C_18  and  C_19
REMARK    8  A    between atoms: C_19  and  N_20
REMARK                            x       y       z     vdW  Elec       q    Type
REMARK                         _______ _______ _______ _____ _____    ______ ____
ROOT
ATOM      1  C   UNL     1       3.051   7.653  17.855  0.00  0.00    +0.000 C 
ATOM      2  C   UNL     1       4.059   6.572  17.593  0.00  0.00    +0.000 A 
ATOM      3  C   UNL     1       4.277   5.541  18.516  0.00  0.00    +0.000 A 
ATOM      4  C   UNL     1       5.216   4.547  18.241  0.00  0.00    +0.000 A 
ATOM      5  C   UNL     1       5.939   4.572  17.050  0.00  0.00    +0.000 A 
ATOM      6  C   UNL     1       5.747   5.604  16.132  0.00  0.00    +0.000 A 
ATOM      7  C   UNL     1       4.801   6.595  16.400  0.00  0.00    +0.000 A 
ENDROOT
BRANCH   4   8
ATOM      8  N   UNL     1       5.484   3.519  19.181  0.00  0.00    +0.000 N 
ATOM      9  H   UNL     1       5.755   3.787  20.125  0.00  0.00    +0.000 HD
BRANCH   8  10
ATOM     10  S   UNL     1       4.588   2.094  19.141  0.00  0.00    +0.000 S 
ATOM     11  O   UNL     1       4.516   1.717  17.740  0.00  0.00    +0.000 OA
ATOM     12  O   UNL     1       5.099   1.170  20.127  0.00  0.00    +0.000 OA
BRANCH  10  13
ATOM     13  C   UNL     1       2.969   2.630  19.632  0.00  0.00    +0.000 A 
ATOM     14  C   UNL     1       2.750   3.071  20.941  0.00  0.00    +0.000 A 
ATOM     15  C   UNL     1       1.476   3.499  21.317  0.00  0.00    +0.000 A 
ATOM     16  C   UNL     1       0.434   3.496  20.387  0.00  0.00    +0.000 A 
ATOM     17  C   UNL     1       0.664   3.077  19.075  0.00  0.00    +0.000 A 
ATOM     18  C   UNL     1       1.934   2.651  18.691  0.00  0.00    +0.000 A 
ENDBRANCH  10  13
ENDBRANCH   8  10
ENDBRANCH   4   8
BRANCH   6  19
ATOM     19  O   UNL     1       6.512   5.523  15.000  0.00  0.00    +0.000 OA
BRANCH  19  20
ATOM     20  C   UNL     1       6.758   4.204  14.498  0.00  0.00    +0.000 C 
BRANCH  20  21
ATOM     21  C   UNL     1       6.239   4.120  13.057  0.00  0.00    +0.000 C 
BRANCH  21  22
ATOM     22  N   UNL     1       6.268   2.743  12.552  0.00  0.00    +0.000 NA
ATOM     23  H   UNL     1       5.879   2.135  13.276  0.00  0.00    +0.000 HD
ATOM     24  H   UNL     1       7.233   2.448  12.418  0.00  0.00    +0.000 HD
ENDBRANCH  21  22
ENDBRANCH  20  21
ENDBRANCH  19  20
ENDBRANCH   6  19
TORSDOF 7
ENDMDL
MODEL 9
REMARK VINA RESULT:      -6.7      2.818      7.031
REMARK  Name = 
REMARK  8 active torsions:
REMARK  status: ('A' for Active; 'I' for Inactive)
REMARK    1  A    between atoms: C_1  and  C_2
REMARK    2  A    between atoms: C_4  and  N_5
REMARK    3  A    between atoms: N_5  and  S_6
REMARK    4  A    between atoms: S_6  and  C_9
REMARK    5  A    between atoms: C_16  and  O_17
REMARK    6  A    between atoms: O_17  and  C_18
REMARK    7  A    between atoms: C_18  and  C_19
REMARK    8  A    between atoms: C_19  and  N_20
REMARK                            x       y       z     vdW  Elec       q    Type
REMARK                         _______ _______ _______ _____ _____    ______ ____
ROOT
ATOM      1  C   UNL     1       3.349   1.644  18.380  0.00  0.00    +0.000 C 
ATOM      2  C   UNL     1       3.417   3.143  18.318  0.00  0.00    +0.000 A 
ATOM      3  C   UNL     1       4.218   3.797  17.373  0.00  0.00    +0.000 A 
ATOM      4  C   UNL     1       4.255   5.190  17.336  0.00  0.00    +0.000 A 
ATOM      5  C   UNL     1       3.495   5.938  18.234  0.00  0.00    +0.000 A 
ATOM      6  C   UNL     1       2.710   5.300  19.193  0.00  0.00    +0.000 A 
ATOM      7  C   UNL     1       2.664   3.905  19.227  0.00  0.00    +0.000 A 
ENDROOT
BRANCH   4   8
ATOM      8  N   UNL     1       5.093   5.872  16.417  0.00  0.00    +0.000 N 
ATOM      9  H   UNL     1       4.947   6.870  16.280  0.00  0.00    +0.000 HD
BRANCH   8  10
ATOM     10  S   UNL     1       6.708   5.424  16.266  0.00  0.00    +0.000 S 
ATOM     11  O   UNL     1       7.467   6.659  16.353  0.00  0.00    +0.000 OA
ATOM     12  O   UNL     1       6.992   4.320  17.155  0.00  0.00    +0.000 OA
BRANCH  10  13
ATOM     13  C   UNL     1       6.808   4.854  14.588  0.00  0.00    +0.000 A 
ATOM     14  C   UNL     1       5.923   3.872  14.133  0.00  0.00    +0.000 A 
ATOM     15  C   UNL     1       6.001   3.437  12.809  0.00  0.00    +0.000 A 
ATOM     16  C   UNL     1       6.950   3.989  11.946  0.00  0.00    +0.000 A 
ATOM     17  C   UNL     1       7.815   4.987  12.399  0.00  0.00    +0.000 A 
ATOM     18  C   UNL     1       7.741   5.429  13.719  0.00  0.00    +0.000 A 
ENDBRANCH  10  13
ENDBRANCH   8  10
ENDBRANCH   4   8
BRANCH   6  19
ATOM     19  O   UNL     1       2.009   6.137  20.019  0.00  0.00    +0.000 OA
BRANCH  19  20
ATOM     20  C   UNL     1       2.218   7.540  19.820  0.00  0.00    +0.000 C 
BRANCH  20  21
ATOM     21  C   UNL     1       1.230   8.316  20.702  0.00  0.00    +0.000 C 
BRANCH  21  22
ATOM     22  N   UNL     1       1.745   8.491  22.063  0.00  0.00    +0.000 NA
ATOM     23  H   UNL     1       0.951   8.681  22.678  0.00  0.00    +0.000 HD
ATOM     24  H   UNL     1       2.340   9.317  22.100  0.00  0.00    +0.000 HD
ENDBRANCH  21  22
ENDBRANCH  20  21
ENDBRANCH  19  20
ENDBRANCH   6  19
TORSDOF 7
ENDMDL
