MODEL 1
REMARK VINA RESULT:      -7.4      0.000      0.000
REMARK  Name = 
REMARK  9 active torsions:
REMARK  status: ('A' for Active; 'I' for Inactive)
REMARK    1  A    between atoms: C_1  and  C_2
REMARK    2  A    between atoms: C_2  and  O_3
REMARK    3  A    between atoms: O_3  and  C_4
REMARK    4  A    between atoms: C_4  and  C_6
REMARK    5  A    between atoms: C_7  and  C_8
REMARK    6  A    between atoms: C_11  and  C_12
REMARK    7  A    between atoms: C_22  and  O_23
REMARK    8  A    between atoms: C_24  and  C_25
REMARK    9  A    between atoms: C_25  and  N_26
REMARK                            x       y       z     vdW  Elec       q    Type
REMARK                         _______ _______ _______ _____ _____    ______ ____
ROOT
ATOM      1  C   UNL     1       2.514   6.420  19.379  0.00  0.00    +0.000 A 
ATOM      2  C   UNL     1       1.803   6.745  20.530  0.00  0.00    +0.000 A 
ATOM      3  O   UNL     1       1.690   5.649  21.332  0.00  0.00    +0.000 OA
ATOM      4  C   UNL     1       2.302   4.616  20.710  0.00  0.00    +0.000 A 
ATOM      5  C   UNL     1       2.346   3.325  21.229  0.00  0.00    +0.000 A 
ATOM      6  C   UNL     1       3.010   2.371  20.469  0.00  0.00    +0.000 A 
ATOM      7  C   UNL     1       3.597   2.726  19.254  0.00  0.00    +0.000 A 
ATOM      8  C   UNL     1       3.550   4.044  18.726  0.00  0.00    +0.000 A 
ATOM      9  C   UNL     1       2.854   5.020  19.497  0.00  0.00    +0.000 A 
ENDROOT
BRANCH   2  10
ATOM     10  C   UNL     1       1.092   7.920  21.032  0.00  0.00    +0.000 A 
ATOM     11  C   UNL     1       1.769   9.114  21.309  0.00  0.00    +0.000 A 
ATOM     12  C   UNL     1       1.082  10.241  21.772  0.00  0.00    +0.000 A 
ATOM     13  C   UNL     1      -0.307  10.205  21.950  0.00  0.00    +0.000 A 
ATOM     14  C   UNL     1      -0.992   9.017  21.663  0.00  0.00    +0.000 A 
ATOM     15  C   UNL     1      -0.299   7.889  21.209  0.00  0.00    +0.000 A 
BRANCH  13  16
ATOM     16  C   UNL     1      -1.060  11.420  22.428  0.00  0.00    +0.000 C 
ATOM     17  F   UNL     1      -2.021  11.843  21.559  0.00  0.00    +0.000 F 
ATOM     18  F   UNL     1      -1.700  11.201  23.610  0.00  0.00    +0.000 F 
ATOM     19  F   UNL     1      -0.248  12.492  22.635  0.00  0.00    +0.000 F 
ENDBRANCH  13  16
ENDBRANCH   2  10
BRANCH   1  20
ATOM     20  C   UNL     1       2.752   7.364  18.303  0.00  0.00    +0.000 C 
ATOM     21  O   UNL     1       3.864   7.748  17.961  0.00  0.00    +0.000 OA
BRANCH  20  22
ATOM     22  O   UNL     1       1.590   7.928  17.859  0.00  0.00    +0.000 OA
BRANCH  22  24
ATOM     23  C   UNL     1       0.175   9.923  18.059  0.00  0.00    +0.000 C 
ATOM     24  C   UNL     1       1.549   9.359  17.761  0.00  0.00    +0.000 C 
ENDBRANCH  22  24
ENDBRANCH  20  22
ENDBRANCH   1  20
BRANCH   7  25
ATOM     25  O   UNL     1       4.238   1.753  18.528  0.00  0.00    +0.000 OA
ATOM     26  H   UNL     1       3.986   0.881  18.875  0.00  0.00    +0.000 HD
ENDBRANCH   7  25
BRANCH   8  27
ATOM     27  C   UNL     1       4.200   4.334  17.389  0.00  0.00    +0.000 C 
BRANCH  27  28
ATOM     28  N   UNL     1       5.656   4.614  17.459  0.00  0.00    +0.000 NA
ATOM     29  C   UNL     1       6.009   5.616  16.438  0.00  0.00    +0.000 C 
ATOM     30  C   UNL     1       7.386   6.260  16.619  0.00  0.00    +0.000 C 
ATOM     31  C   UNL     1       7.554   6.816  18.024  0.00  0.00    +0.000 C 
ATOM     32  C   UNL     1       7.347   5.691  19.020  0.00  0.00    +0.000 C 
ATOM     33  C   UNL     1       5.976   5.049  18.828  0.00  0.00    +0.000 C 
ENDBRANCH  27  28
ENDBRANCH   8  27
TORSDOF 8
ENDMDL
MODEL 2
REMARK VINA RESULT:      -7.2      1.907      4.491
REMARK  Name = 
REMARK  9 active torsions:
REMARK  status: ('A' for Active; 'I' for Inactive)
REMARK    1  A    between atoms: C_1  and  C_2
REMARK    2  A    between atoms: C_2  and  O_3
REMARK    3  A    between atoms: O_3  and  C_4
REMARK    4  A    between atoms: C_4  and  C_6
REMARK    5  A    between atoms: C_7  and  C_8
REMARK    6  A    between atoms: C_11  and  C_12
REMARK    7  A    between atoms: C_22  and  O_23
REMARK    8  A    between atoms: C_24  and  C_25
REMARK    9  A    between atoms: C_25  and  N_26
REMARK                            x       y       z     vdW  Elec       q    Type
REMARK                         _______ _______ _______ _____ _____    ______ ____
ROOT
ATOM      1  C   UNL     1       2.759   7.050  18.924  0.00  0.00    +0.000 A 
ATOM      2  C   UNL     1       2.417   8.118  18.099  0.00  0.00    +0.000 A 
ATOM      3  O   UNL     1       3.225   8.136  17.003  0.00  0.00    +0.000 OA
ATOM      4  C   UNL     1       4.096   7.107  17.112  0.00  0.00    +0.000 A 
ATOM      5  C   UNL     1       5.097   6.847  16.182  0.00  0.00    +0.000 A 
ATOM      6  C   UNL     1       5.916   5.753  16.438  0.00  0.00    +0.000 A 
ATOM      7  C   UNL     1       5.711   4.975  17.578  0.00  0.00    +0.000 A 
ATOM      8  C   UNL     1       4.689   5.243  18.526  0.00  0.00    +0.000 A 
ATOM      9  C   UNL     1       3.860   6.374  18.273  0.00  0.00    +0.000 A 
ENDROOT
BRANCH   2  10
ATOM     10  C   UNL     1       1.486   9.243  18.166  0.00  0.00    +0.000 A 
ATOM     11  C   UNL     1       0.124   9.075  17.888  0.00  0.00    +0.000 A 
ATOM     12  C   UNL     1      -0.766  10.151  17.971  0.00  0.00    +0.000 A 
ATOM     13  C   UNL     1      -0.314  11.420  18.355  0.00  0.00    +0.000 A 
ATOM     14  C   UNL     1       1.045  11.592  18.647  0.00  0.00    +0.000 A 
ATOM     15  C   UNL     1       1.933  10.515  18.553  0.00  0.00    +0.000 A 
BRANCH  13  16
ATOM     16  C   UNL     1      -1.269  12.582  18.467  0.00  0.00    +0.000 C 
ATOM     17  F   UNL     1      -0.808  13.725  17.884  0.00  0.00    +0.000 F 
ATOM     18  F   UNL     1      -2.470  12.325  17.878  0.00  0.00    +0.000 F 
ATOM     19  F   UNL     1      -1.547  12.910  19.758  0.00  0.00    +0.000 F 
ENDBRANCH  13  16
ENDBRANCH   2  10
BRANCH   1  20
ATOM     20  C   UNL     1       2.115   6.797  20.200  0.00  0.00    +0.000 C 
ATOM     21  O   UNL     1       1.562   5.745  20.491  0.00  0.00    +0.000 OA
BRANCH  20  22
ATOM     22  O   UNL     1       2.020   7.934  20.952  0.00  0.00    +0.000 OA
BRANCH  22  24
ATOM     23  C   UNL     1       0.656   9.694  21.985  0.00  0.00    +0.000 C 
ATOM     24  C   UNL     1       0.726   8.269  21.474  0.00  0.00    +0.000 C 
ENDBRANCH  22  24
ENDBRANCH  20  22
ENDBRANCH   1  20
BRANCH   7  25
ATOM     25  O   UNL     1       6.546   3.909  17.799  0.00  0.00    +0.000 OA
ATOM     26  H   UNL     1       6.043   3.192  18.219  0.00  0.00    +0.000 HD
ENDBRANCH   7  25
BRANCH   8  27
ATOM     27  C   UNL     1       4.552   4.355  19.745  0.00  0.00    +0.000 C 
BRANCH  27  28
ATOM     28  N   UNL     1       3.667   3.179  19.554  0.00  0.00    +0.000 NA
ATOM     29  C   UNL     1       2.748   3.069  20.702  0.00  0.00    +0.000 C 
ATOM     30  C   UNL     1       1.557   2.133  20.484  0.00  0.00    +0.000 C 
ATOM     31  C   UNL     1       0.811   2.479  19.206  0.00  0.00    +0.000 C 
ATOM     32  C   UNL     1       1.778   2.404  18.041  0.00  0.00    +0.000 C 
ATOM     33  C   UNL     1       2.967   3.334  18.269  0.00  0.00    +0.000 C 
ENDBRANCH  27  28
ENDBRANCH   8  27
TORSDOF 8
ENDMDL
MODEL 3
REMARK VINA RESULT:      -7.2      4.823      8.095
REMARK  Name = 
REMARK  9 active torsions:
REMARK  status: ('A' for Active; 'I' for Inactive)
REMARK    1  A    between atoms: C_1  and  C_2
REMARK    2  A    between atoms: C_2  and  O_3
REMARK    3  A    between atoms: O_3  and  C_4
REMARK    4  A    between atoms: C_4  and  C_6
REMARK    5  A    between atoms: C_7  and  C_8
REMARK    6  A    between atoms: C_11  and  C_12
REMARK    7  A    between atoms: C_22  and  O_23
REMARK    8  A    between atoms: C_24  and  C_25
REMARK    9  A    between atoms: C_25  and  N_26
REMARK                            x       y       z     vdW  Elec       q    Type
REMARK                         _______ _______ _______ _____ _____    ______ ____
ROOT
ATOM      1  C   UNL     1       0.840   9.468  19.645  0.00  0.00    +0.000 A 
ATOM      2  C   UNL     1       1.380   8.253  20.056  0.00  0.00    +0.000 A 
ATOM      3  O   UNL     1       1.109   8.046  21.375  0.00  0.00    +0.000 OA
ATOM      4  C   UNL     1       0.417   9.115  21.829  0.00  0.00    +0.000 A 
ATOM      5  C   UNL     1       0.007   9.260  23.151  0.00  0.00    +0.000 A 
ATOM      6  C   UNL     1      -0.694  10.418  23.463  0.00  0.00    +0.000 A 
ATOM      7  C   UNL     1      -0.959  11.366  22.473  0.00  0.00    +0.000 A 
ATOM      8  C   UNL     1      -0.538  11.217  21.125  0.00  0.00    +0.000 A 
ATOM      9  C   UNL     1       0.195  10.036  20.808  0.00  0.00    +0.000 A 
ENDROOT
BRANCH   2  10
ATOM     10  C   UNL     1       2.218   7.217  19.456  0.00  0.00    +0.000 A 
ATOM     11  C   UNL     1       2.303   5.936  20.018  0.00  0.00    +0.000 A 
ATOM     12  C   UNL     1       3.092   4.943  19.431  0.00  0.00    +0.000 A 
ATOM     13  C   UNL     1       3.801   5.202  18.251  0.00  0.00    +0.000 A 
ATOM     14  C   UNL     1       3.710   6.476  17.676  0.00  0.00    +0.000 A 
ATOM     15  C   UNL     1       2.927   7.470  18.273  0.00  0.00    +0.000 A 
BRANCH  13  16
ATOM     16  C   UNL     1       4.639   4.131  17.597  0.00  0.00    +0.000 C 
ATOM     17  F   UNL     1       5.937   4.127  18.011  0.00  0.00    +0.000 F 
ATOM     18  F   UNL     1       4.166   2.878  17.848  0.00  0.00    +0.000 F 
ATOM     19  F   UNL     1       4.680   4.252  16.242  0.00  0.00    +0.000 F 
ENDBRANCH  13  16
ENDBRANCH   2  10
BRANCH   1  20
ATOM     20  C   UNL     1       1.008   9.995  18.304  0.00  0.00    +0.000 C 
ATOM     21  O   UNL     1       1.863  10.814  17.992  0.00  0.00    +0.000 OA
BRANCH  20  22
ATOM     22  O   UNL     1      -0.022   9.629  17.484  0.00  0.00    +0.000 OA
BRANCH  22  24
ATOM     23  C   UNL     1      -2.471   9.762  17.571  0.00  0.00    +0.000 C 
ATOM     24  C   UNL     1      -1.158  10.504  17.427  0.00  0.00    +0.000 C 
ENDBRANCH  22  24
ENDBRANCH  20  22
ENDBRANCH   1  20
BRANCH   7  25
ATOM     25  O   UNL     1      -1.646  12.501  22.823  0.00  0.00    +0.000 OA
ATOM     26  H   UNL     1      -1.011  13.194  23.070  0.00  0.00    +0.000 HD
ENDBRANCH   7  25
BRANCH   8  27
ATOM     27  C   UNL     1      -0.854  12.306  20.122  0.00  0.00    +0.000 C 
BRANCH  27  28
ATOM     28  N   UNL     1      -0.106  13.572  20.329  0.00  0.00    +0.000 NA
ATOM     29  C   UNL     1       1.335  13.276  20.422  0.00  0.00    +0.000 C 
ATOM     30  C   UNL     1       2.251  14.494  20.281  0.00  0.00    +0.000 C 
ATOM     31  C   UNL     1       1.926  15.286  19.025  0.00  0.00    +0.000 C 
ATOM     32  C   UNL     1       0.469  15.707  19.078  0.00  0.00    +0.000 C 
ATOM     33  C   UNL     1      -0.437  14.487  19.226  0.00  0.00    +0.000 C 
ENDBRANCH  27  28
ENDBRANCH   8  27
TORSDOF 8
ENDMDL
MODEL 4
REMARK VINA RESULT:      -7.1      5.331      9.653
REMARK  Name = 
REMARK  9 active torsions:
REMARK  status: ('A' for Active; 'I' for Inactive)
REMARK    1  A    between atoms: C_1  and  C_2
REMARK    2  A    between atoms: C_2  and  O_3
REMARK    3  A    between atoms: O_3  and  C_4
REMARK    4  A    between atoms: C_4  and  C_6
REMARK    5  A    between atoms: C_7  and  C_8
REMARK    6  A    between atoms: C_11  and  C_12
REMARK    7  A    between atoms: C_22  and  O_23
REMARK    8  A    between atoms: C_24  and  C_25
REMARK    9  A    between atoms: C_25  and  N_26
REMARK                            x       y       z     vdW  Elec       q    Type
REMARK                         _______ _______ _______ _____ _____    ______ ____
ROOT
ATOM      1  C   UNL     1      -1.207  11.030  19.619  0.00  0.00    +0.000 A 
ATOM      2  C   UNL     1      -0.208  10.194  20.109  0.00  0.00    +0.000 A 
ATOM      3  O   UNL     1      -0.122  10.316  21.463  0.00  0.00    +0.000 OA
ATOM      4  C   UNL     1      -1.038  11.229  21.856  0.00  0.00    +0.000 A 
ATOM      5  C   UNL     1      -1.202  11.632  23.178  0.00  0.00    +0.000 A 
ATOM      6  C   UNL     1      -2.186  12.583  23.421  0.00  0.00    +0.000 A 
ATOM      7  C   UNL     1      -2.955  13.083  22.369  0.00  0.00    +0.000 A 
ATOM      8  C   UNL     1      -2.785  12.671  21.021  0.00  0.00    +0.000 A 
ATOM      9  C   UNL     1      -1.765  11.708  20.768  0.00  0.00    +0.000 A 
ENDROOT
BRANCH   2  10
ATOM     10  C   UNL     1       0.802   9.310  19.530  0.00  0.00    +0.000 A 
ATOM     11  C   UNL     1       1.319   8.227  20.254  0.00  0.00    +0.000 A 
ATOM     12  C   UNL     1       2.272   7.373  19.690  0.00  0.00    +0.000 A 
ATOM     13  C   UNL     1       2.716   7.570  18.376  0.00  0.00    +0.000 A 
ATOM     14  C   UNL     1       2.193   8.643  17.643  0.00  0.00    +0.000 A 
ATOM     15  C   UNL     1       1.248   9.501  18.214  0.00  0.00    +0.000 A 
BRANCH  13  16
ATOM     16  C   UNL     1       3.727   6.643  17.752  0.00  0.00    +0.000 C 
ATOM     17  F   UNL     1       4.758   6.321  18.583  0.00  0.00    +0.000 F 
ATOM     18  F   UNL     1       3.176   5.457  17.369  0.00  0.00    +0.000 F 
ATOM     19  F   UNL     1       4.300   7.167  16.634  0.00  0.00    +0.000 F 
ENDBRANCH  13  16
ENDBRANCH   2  10
BRANCH   1  20
ATOM     20  C   UNL     1      -1.502  11.166  18.205  0.00  0.00    +0.000 C 
ATOM     21  O   UNL     1      -1.294  12.183  17.556  0.00  0.00    +0.000 OA
BRANCH  20  22
ATOM     22  O   UNL     1      -2.225  10.106  17.735  0.00  0.00    +0.000 OA
BRANCH  22  24
ATOM     23  C   UNL     1      -3.571  10.423  15.707  0.00  0.00    +0.000 C 
ATOM     24  C   UNL     1      -2.274   9.924  16.313  0.00  0.00    +0.000 C 
ENDBRANCH  22  24
ENDBRANCH  20  22
ENDBRANCH   1  20
BRANCH   7  25
ATOM     25  O   UNL     1      -3.910  14.027  22.650  0.00  0.00    +0.000 OA
ATOM     26  H   UNL     1      -3.506  14.910  22.611  0.00  0.00    +0.000 HD
ENDBRANCH   7  25
BRANCH   8  27
ATOM     27  C   UNL     1      -3.653  13.281  19.941  0.00  0.00    +0.000 C 
BRANCH  27  28
ATOM     28  N   UNL     1      -5.039  12.752  19.892  0.00  0.00    +0.000 NA
ATOM     29  C   UNL     1      -5.982  13.873  19.725  0.00  0.00    +0.000 C 
ATOM     30  C   UNL     1      -7.397  13.465  19.307  0.00  0.00    +0.000 C 
ATOM     31  C   UNL     1      -7.372  12.571  18.078  0.00  0.00    +0.000 C 
ATOM     32  C   UNL     1      -6.523  11.351  18.380  0.00  0.00    +0.000 C 
ATOM     33  C   UNL     1      -5.117  11.766  18.804  0.00  0.00    +0.000 C 
ENDBRANCH  27  28
ENDBRANCH   8  27
TORSDOF 8
ENDMDL
MODEL 5
REMARK VINA RESULT:      -7.1      4.823      9.386
REMARK  Name = 
REMARK  9 active torsions:
REMARK  status: ('A' for Active; 'I' for Inactive)
REMARK    1  A    between atoms: C_1  and  C_2
REMARK    2  A    between atoms: C_2  and  O_3
REMARK    3  A    between atoms: O_3  and  C_4
REMARK    4  A    between atoms: C_4  and  C_6
REMARK    5  A    between atoms: C_7  and  C_8
REMARK    6  A    between atoms: C_11  and  C_12
REMARK    7  A    between atoms: C_22  and  O_23
REMARK    8  A    between atoms: C_24  and  C_25
REMARK    9  A    between atoms: C_25  and  N_26
REMARK                            x       y       z     vdW  Elec       q    Type
REMARK                         _______ _______ _______ _____ _____    ______ ____
ROOT
ATOM      1  C   UNL     1       0.006  10.872  19.727  0.00  0.00    +0.000 A 
ATOM      2  C   UNL     1       0.297   9.780  18.915  0.00  0.00    +0.000 A 
ATOM      3  O   UNL     1      -0.755   9.522  18.088  0.00  0.00    +0.000 OA
ATOM      4  C   UNL     1      -1.728  10.419  18.363  0.00  0.00    +0.000 A 
ATOM      5  C   UNL     1      -2.967  10.426  17.730  0.00  0.00    +0.000 A 
ATOM      6  C   UNL     1      -3.863  11.412  18.125  0.00  0.00    +0.000 A 
ATOM      7  C   UNL     1      -3.502  12.335  19.107  0.00  0.00    +0.000 A 
ATOM      8  C   UNL     1      -2.238  12.325  19.753  0.00  0.00    +0.000 A 
ATOM      9  C   UNL     1      -1.324  11.305  19.360  0.00  0.00    +0.000 A 
ENDROOT
BRANCH   2  10
ATOM     10  C   UNL     1       1.389   8.815  18.800  0.00  0.00    +0.000 A 
ATOM     11  C   UNL     1       1.581   7.818  19.765  0.00  0.00    +0.000 A 
ATOM     12  C   UNL     1       2.616   6.886  19.641  0.00  0.00    +0.000 A 
ATOM     13  C   UNL     1       3.474   6.917  18.533  0.00  0.00    +0.000 A 
ATOM     14  C   UNL     1       3.278   7.904  17.558  0.00  0.00    +0.000 A 
ATOM     15  C   UNL     1       2.248   8.840  17.691  0.00  0.00    +0.000 A 
BRANCH  13  16
ATOM     16  C   UNL     1       4.580   5.904  18.379  0.00  0.00    +0.000 C 
ATOM     17  F   UNL     1       5.669   6.383  17.716  0.00  0.00    +0.000 F 
ATOM     18  F   UNL     1       5.044   5.457  19.579  0.00  0.00    +0.000 F 
ATOM     19  F   UNL     1       4.185   4.796  17.694  0.00  0.00    +0.000 F 
ENDBRANCH  13  16
ENDBRANCH   2  10
BRANCH   1  20
ATOM     20  C   UNL     1       0.909  11.357  20.754  0.00  0.00    +0.000 C 
ATOM     21  O   UNL     1       1.581  12.375  20.651  0.00  0.00    +0.000 OA
BRANCH  20  22
ATOM     22  O   UNL     1       1.074  10.442  21.755  0.00  0.00    +0.000 OA
BRANCH  22  24
ATOM     23  C   UNL     1      -0.616   8.836  22.524  0.00  0.00    +0.000 C 
ATOM     24  C   UNL     1      -0.034  10.231  22.641  0.00  0.00    +0.000 C 
ENDBRANCH  22  24
ENDBRANCH  20  22
ENDBRANCH   1  20
BRANCH   7  25
ATOM     25  O   UNL     1      -4.419  13.288  19.476  0.00  0.00    +0.000 OA
ATOM     26  H   UNL     1      -4.015  13.882  20.130  0.00  0.00    +0.000 HD
ENDBRANCH   7  25
BRANCH   8  27
ATOM     27  C   UNL     1      -1.940  13.355  20.822  0.00  0.00    +0.000 C 
BRANCH  27  28
ATOM     28  N   UNL     1      -3.011  13.517  21.838  0.00  0.00    +0.000 NA
ATOM     29  C   UNL     1      -2.953  12.395  22.791  0.00  0.00    +0.000 C 
ATOM     30  C   UNL     1      -3.751  12.604  24.080  0.00  0.00    +0.000 C 
ATOM     31  C   UNL     1      -3.384  13.920  24.747  0.00  0.00    +0.000 C 
ATOM     32  C   UNL     1      -3.633  15.049  23.767  0.00  0.00    +0.000 C 
ATOM     33  C   UNL     1      -2.840  14.829  22.481  0.00  0.00    +0.000 C 
ENDBRANCH  27  28
ENDBRANCH   8  27
TORSDOF 8
ENDMDL
MODEL 6
REMARK VINA RESULT:      -7.1      1.917      4.446
REMARK  Name = 
REMARK  9 active torsions:
REMARK  status: ('A' for Active; 'I' for Inactive)
REMARK    1  A    between atoms: C_1  and  C_2
REMARK    2  A    between atoms: C_2  and  O_3
REMARK    3  A    between atoms: O_3  and  C_4
REMARK    4  A    between atoms: C_4  and  C_6
REMARK    5  A    between atoms: C_7  and  C_8
REMARK    6  A    between atoms: C_11  and  C_12
REMARK    7  A    between atoms: C_22  and  O_23
REMARK    8  A    between atoms: C_24  and  C_25
REMARK    9  A    between atoms: C_25  and  N_26
REMARK                            x       y       z     vdW  Elec       q    Type
REMARK                         _______ _______ _______ _____ _____    ______ ____
ROOT
ATOM      1  C   UNL     1       2.821   6.996  18.899  0.00  0.00    +0.000 A 
ATOM      2  C   UNL     1       2.472   8.078  18.095  0.00  0.00    +0.000 A 
ATOM      3  O   UNL     1       3.292   8.132  17.008  0.00  0.00    +0.000 OA
ATOM      4  C   UNL     1       4.176   7.114  17.103  0.00  0.00    +0.000 A 
ATOM      5  C   UNL     1       5.191   6.889  16.178  0.00  0.00    +0.000 A 
ATOM      6  C   UNL     1       6.022   5.802  16.417  0.00  0.00    +0.000 A 
ATOM      7  C   UNL     1       5.817   4.995  17.537  0.00  0.00    +0.000 A 
ATOM      8  C   UNL     1       4.781   5.226  18.480  0.00  0.00    +0.000 A 
ATOM      9  C   UNL     1       3.938   6.351  18.244  0.00  0.00    +0.000 A 
ENDROOT
BRANCH   2  10
ATOM     10  C   UNL     1       1.525   9.188  18.177  0.00  0.00    +0.000 A 
ATOM     11  C   UNL     1       1.957  10.491  18.458  0.00  0.00    +0.000 A 
ATOM     12  C   UNL     1       1.050  11.553  18.517  0.00  0.00    +0.000 A 
ATOM     13  C   UNL     1      -0.313  11.339  18.276  0.00  0.00    +0.000 A 
ATOM     14  C   UNL     1      -0.750  10.041  17.981  0.00  0.00    +0.000 A 
ATOM     15  C   UNL     1       0.160   8.980  17.932  0.00  0.00    +0.000 A 
BRANCH  13  16
ATOM     16  C   UNL     1      -1.297  12.481  18.316  0.00  0.00    +0.000 C 
ATOM     17  F   UNL     1      -1.746  12.769  19.571  0.00  0.00    +0.000 F 
ATOM     18  F   UNL     1      -0.765  13.641  17.838  0.00  0.00    +0.000 F 
ATOM     19  F   UNL     1      -2.409  12.243  17.569  0.00  0.00    +0.000 F 
ENDBRANCH  13  16
ENDBRANCH   2  10
BRANCH   1  20
ATOM     20  C   UNL     1       2.168   6.705  20.161  0.00  0.00    +0.000 C 
ATOM     21  O   UNL     1       1.584   5.657  20.404  0.00  0.00    +0.000 OA
BRANCH  20  22
ATOM     22  O   UNL     1       2.104   7.809  20.963  0.00  0.00    +0.000 OA
BRANCH  22  24
ATOM     23  C   UNL     1       0.656   9.612  21.787  0.00  0.00    +0.000 C 
ATOM     24  C   UNL     1       0.830   8.126  21.542  0.00  0.00    +0.000 C 
ENDBRANCH  22  24
ENDBRANCH  20  22
ENDBRANCH   1  20
BRANCH   7  25
ATOM     25  O   UNL     1       6.665   3.935  17.742  0.00  0.00    +0.000 OA
ATOM     26  H   UNL     1       7.577   4.264  17.798  0.00  0.00    +0.000 HD
ENDBRANCH   7  25
BRANCH   8  27
ATOM     27  C   UNL     1       4.645   4.309  19.676  0.00  0.00    +0.000 C 
BRANCH  27  28
ATOM     28  N   UNL     1       3.780   3.123  19.448  0.00  0.00    +0.000 NA
ATOM     29  C   UNL     1       2.806   3.012  20.550  0.00  0.00    +0.000 C 
ATOM     30  C   UNL     1       1.636   2.064  20.279  0.00  0.00    +0.000 C 
ATOM     31  C   UNL     1       0.951   2.396  18.963  0.00  0.00    +0.000 C 
ATOM     32  C   UNL     1       1.976   2.324  17.848  0.00  0.00    +0.000 C 
ATOM     33  C   UNL     1       3.144   3.265  18.130  0.00  0.00    +0.000 C 
ENDBRANCH  27  28
ENDBRANCH   8  27
TORSDOF 8
ENDMDL
MODEL 7
REMARK VINA RESULT:      -7.1      4.864      8.249
REMARK  Name = 
REMARK  9 active torsions:
REMARK  status: ('A' for Active; 'I' for Inactive)
REMARK    1  A    between atoms: C_1  and  C_2
REMARK    2  A    between atoms: C_2  and  O_3
REMARK    3  A    between atoms: O_3  and  C_4
REMARK    4  A    between atoms: C_4  and  C_6
REMARK    5  A    between atoms: C_7  and  C_8
REMARK    6  A    between atoms: C_11  and  C_12
REMARK    7  A    between atoms: C_22  and  O_23
REMARK    8  A    between atoms: C_24  and  C_25
REMARK    9  A    between atoms: C_25  and  N_26
REMARK                            x       y       z     vdW  Elec       q    Type
REMARK                         _______ _______ _______ _____ _____    ______ ____
ROOT
ATOM      1  C   UNL     1       0.868   9.497  19.639  0.00  0.00    +0.000 A 
ATOM      2  C   UNL     1       1.391   8.268  20.028  0.00  0.00    +0.000 A 
ATOM      3  O   UNL     1       1.118   8.042  21.343  0.00  0.00    +0.000 OA
ATOM      4  C   UNL     1       0.441   9.112  21.816  0.00  0.00    +0.000 A 
ATOM      5  C   UNL     1       0.033   9.238  23.141  0.00  0.00    +0.000 A 
ATOM      6  C   UNL     1      -0.652  10.401  23.473  0.00  0.00    +0.000 A 
ATOM      7  C   UNL     1      -0.904  11.369  22.501  0.00  0.00    +0.000 A 
ATOM      8  C   UNL     1      -0.486  11.239  21.150  0.00  0.00    +0.000 A 
ATOM      9  C   UNL     1       0.231  10.054  20.812  0.00  0.00    +0.000 A 
ENDROOT
BRANCH   2  10
ATOM     10  C   UNL     1       2.216   7.231  19.409  0.00  0.00    +0.000 A 
ATOM     11  C   UNL     1       2.939   7.483  18.236  0.00  0.00    +0.000 A 
ATOM     12  C   UNL     1       3.741   6.494  17.658  0.00  0.00    +0.000 A 
ATOM     13  C   UNL     1       3.854   5.232  18.254  0.00  0.00    +0.000 A 
ATOM     14  C   UNL     1       3.143   4.977  19.434  0.00  0.00    +0.000 A 
ATOM     15  C   UNL     1       2.335   5.967  20.004  0.00  0.00    +0.000 A 
BRANCH  13  16
ATOM     16  C   UNL     1       4.732   4.165  17.650  0.00  0.00    +0.000 C 
ATOM     17  F   UNL     1       4.250   2.902  17.820  0.00  0.00    +0.000 F 
ATOM     18  F   UNL     1       4.891   4.323  16.306  0.00  0.00    +0.000 F 
ATOM     19  F   UNL     1       5.987   4.158  18.177  0.00  0.00    +0.000 F 
ENDBRANCH  13  16
ENDBRANCH   2  10
BRANCH   1  20
ATOM     20  C   UNL     1       1.043  10.046  18.307  0.00  0.00    +0.000 C 
ATOM     21  O   UNL     1       1.865  10.909  18.024  0.00  0.00    +0.000 OA
BRANCH  20  22
ATOM     22  O   UNL     1       0.052   9.640  17.459  0.00  0.00    +0.000 OA
BRANCH  22  24
ATOM     23  C   UNL     1      -2.217   9.828  16.544  0.00  0.00    +0.000 C 
ATOM     24  C   UNL     1      -1.245  10.229  17.635  0.00  0.00    +0.000 C 
ENDBRANCH  22  24
ENDBRANCH  20  22
ENDBRANCH   1  20
BRANCH   7  25
ATOM     25  O   UNL     1      -1.576  12.507  22.871  0.00  0.00    +0.000 OA
ATOM     26  H   UNL     1      -1.392  12.695  23.806  0.00  0.00    +0.000 HD
ENDBRANCH   7  25
BRANCH   8  27
ATOM     27  C   UNL     1      -0.787  12.349  20.167  0.00  0.00    +0.000 C 
BRANCH  27  28
ATOM     28  N   UNL     1      -0.151  13.651  20.493  0.00  0.00    +0.000 NA
ATOM     29  C   UNL     1       1.138  13.754  19.786  0.00  0.00    +0.000 C 
ATOM     30  C   UNL     1       1.735  15.162  19.740  0.00  0.00    +0.000 C 
ATOM     31  C   UNL     1       0.729  16.170  19.209  0.00  0.00    +0.000 C 
ATOM     32  C   UNL     1      -0.507  16.134  20.087  0.00  0.00    +0.000 C 
ATOM     33  C   UNL     1      -1.091  14.724  20.135  0.00  0.00    +0.000 C 
ENDBRANCH  27  28
ENDBRANCH   8  27
TORSDOF 8
ENDMDL
MODEL 8
REMARK VINA RESULT:      -7.0      5.320      9.645
REMARK  Name = 
REMARK  9 active torsions:
REMARK  status: ('A' for Active; 'I' for Inactive)
REMARK    1  A    between atoms: C_1  and  C_2
REMARK    2  A    between atoms: C_2  and  O_3
REMARK    3  A    between atoms: O_3  and  C_4
REMARK    4  A    between atoms: C_4  and  C_6
REMARK    5  A    between atoms: C_7  and  C_8
REMARK    6  A    between atoms: C_11  and  C_12
REMARK    7  A    between atoms: C_22  and  O_23
REMARK    8  A    between atoms: C_24  and  C_25
REMARK    9  A    between atoms: C_25  and  N_26
REMARK                            x       y       z     vdW  Elec       q    Type
REMARK                         _______ _______ _______ _____ _____    ______ ____
ROOT
ATOM      1  C   UNL     1      -1.219  11.003  19.611  0.00  0.00    +0.000 A 
ATOM      2  C   UNL     1      -0.217  10.159  20.080  0.00  0.00    +0.000 A 
ATOM      3  O   UNL     1      -0.098  10.285  21.431  0.00  0.00    +0.000 OA
ATOM      4  C   UNL     1      -0.995  11.210  21.842  0.00  0.00    +0.000 A 
ATOM      5  C   UNL     1      -1.123  11.620  23.166  0.00  0.00    +0.000 A 
ATOM      6  C   UNL     1      -2.091  12.582  23.429  0.00  0.00    +0.000 A 
ATOM      7  C   UNL     1      -2.879  13.085  22.393  0.00  0.00    +0.000 A 
ATOM      8  C   UNL     1      -2.745  12.666  21.043  0.00  0.00    +0.000 A 
ATOM      9  C   UNL     1      -1.742  11.691  20.770  0.00  0.00    +0.000 A 
ENDROOT
BRANCH   2  10
ATOM     10  C   UNL     1       0.770   9.262  19.482  0.00  0.00    +0.000 A 
ATOM     11  C   UNL     1       1.241   9.467  18.178  0.00  0.00    +0.000 A 
ATOM     12  C   UNL     1       2.198   8.617  17.616  0.00  0.00    +0.000 A 
ATOM     13  C   UNL     1       2.724   7.550  18.356  0.00  0.00    +0.000 A 
ATOM     14  C   UNL     1       2.267   7.347  19.665  0.00  0.00    +0.000 A 
ATOM     15  C   UNL     1       1.302   8.194  20.219  0.00  0.00    +0.000 A 
BRANCH  13  16
ATOM     16  C   UNL     1       3.773   6.639  17.767  0.00  0.00    +0.000 C 
ATOM     17  F   UNL     1       3.275   5.450  17.325  0.00  0.00    +0.000 F 
ATOM     18  F   UNL     1       4.402   7.199  16.696  0.00  0.00    +0.000 F 
ATOM     19  F   UNL     1       4.754   6.325  18.656  0.00  0.00    +0.000 F 
ENDBRANCH  13  16
ENDBRANCH   2  10
BRANCH   1  20
ATOM     20  C   UNL     1      -1.546  11.137  18.203  0.00  0.00    +0.000 C 
ATOM     21  O   UNL     1      -1.366  12.158  17.552  0.00  0.00    +0.000 OA
BRANCH  20  22
ATOM     22  O   UNL     1      -2.263  10.067  17.747  0.00  0.00    +0.000 OA
BRANCH  22  24
ATOM     23  C   UNL     1      -3.588  10.420  15.712  0.00  0.00    +0.000 C 
ATOM     24  C   UNL     1      -2.317   9.871  16.327  0.00  0.00    +0.000 C 
ENDBRANCH  22  24
ENDBRANCH  20  22
ENDBRANCH   1  20
BRANCH   7  25
ATOM     25  O   UNL     1      -3.817  14.041  22.692  0.00  0.00    +0.000 OA
ATOM     26  H   UNL     1      -4.687  13.741  22.381  0.00  0.00    +0.000 HD
ENDBRANCH   7  25
BRANCH   8  27
ATOM     27  C   UNL     1      -3.632  13.282  19.981  0.00  0.00    +0.000 C 
BRANCH  27  28
ATOM     28  N   UNL     1      -5.015  12.741  19.944  0.00  0.00    +0.000 NA
ATOM     29  C   UNL     1      -5.972  13.858  19.850  0.00  0.00    +0.000 C 
ATOM     30  C   UNL     1      -7.393  13.455  19.450  0.00  0.00    +0.000 C 
ATOM     31  C   UNL     1      -7.391  12.616  18.182  0.00  0.00    +0.000 C 
ATOM     32  C   UNL     1      -6.524  11.392  18.408  0.00  0.00    +0.000 C 
ATOM     33  C   UNL     1      -5.111  11.803  18.815  0.00  0.00    +0.000 C 
ENDBRANCH  27  28
ENDBRANCH   8  27
TORSDOF 8
ENDMDL
MODEL 9
REMARK VINA RESULT:      -7.0      4.937      9.416
REMARK  Name = 
REMARK  9 active torsions:
REMARK  status: ('A' for Active; 'I' for Inactive)
REMARK    1  A    between atoms: C_1  and  C_2
REMARK    2  A    between atoms: C_2  and  O_3
REMARK    3  A    between atoms: O_3  and  C_4
REMARK    4  A    between atoms: C_4  and  C_6
REMARK    5  A    between atoms: C_7  and  C_8
REMARK    6  A    between atoms: C_11  and  C_12
REMARK    7  A    between atoms: C_22  and  O_23
REMARK    8  A    between atoms: C_24  and  C_25
REMARK    9  A    between atoms: C_25  and  N_26
REMARK                            x       y       z     vdW  Elec       q    Type
REMARK                         _______ _______ _______ _____ _____    ______ ____
ROOT
ATOM      1  C   UNL     1      -0.145  10.888  19.757  0.00  0.00    +0.000 A 
ATOM      2  C   UNL     1       0.177   9.819  18.926  0.00  0.00    +0.000 A 
ATOM      3  O   UNL     1      -0.844   9.582  18.056  0.00  0.00    +0.000 OA
ATOM      4  C   UNL     1      -1.830  10.469  18.321  0.00  0.00    +0.000 A 
ATOM      5  C   UNL     1      -3.046  10.491  17.645  0.00  0.00    +0.000 A 
ATOM      6  C   UNL     1      -3.958  11.463  18.037  0.00  0.00    +0.000 A 
ATOM      7  C   UNL     1      -3.635  12.359  19.056  0.00  0.00    +0.000 A 
ATOM      8  C   UNL     1      -2.394  12.335  19.745  0.00  0.00    +0.000 A 
ATOM      9  C   UNL     1      -1.464  11.327  19.356  0.00  0.00    +0.000 A 
ENDROOT
BRANCH   2  10
ATOM     10  C   UNL     1       1.275   8.861  18.822  0.00  0.00    +0.000 A 
ATOM     11  C   UNL     1       1.501   7.904  19.820  0.00  0.00    +0.000 A 
ATOM     12  C   UNL     1       2.542   6.978  19.708  0.00  0.00    +0.000 A 
ATOM     13  C   UNL     1       3.372   6.973  18.579  0.00  0.00    +0.000 A 
ATOM     14  C   UNL     1       3.143   7.918  17.571  0.00  0.00    +0.000 A 
ATOM     15  C   UNL     1       2.107   8.849  17.692  0.00  0.00    +0.000 A 
BRANCH  13  16
ATOM     16  C   UNL     1       4.484   5.964  18.438  0.00  0.00    +0.000 C 
ATOM     17  F   UNL     1       4.126   4.853  17.735  0.00  0.00    +0.000 F 
ATOM     18  F   UNL     1       5.570   6.476  17.793  0.00  0.00    +0.000 F 
ATOM     19  F   UNL     1       4.940   5.514  19.639  0.00  0.00    +0.000 F 
ENDBRANCH  13  16
ENDBRANCH   2  10
BRANCH   1  20
ATOM     20  C   UNL     1       0.719  11.346  20.828  0.00  0.00    +0.000 C 
ATOM     21  O   UNL     1       0.432  11.280  22.016  0.00  0.00    +0.000 OA
BRANCH  20  22
ATOM     22  O   UNL     1       1.793  12.043  20.348  0.00  0.00    +0.000 OA
BRANCH  22  24
ATOM     23  C   UNL     1       2.209  13.216  18.233  0.00  0.00    +0.000 C 
ATOM     24  C   UNL     1       1.518  13.224  19.582  0.00  0.00    +0.000 C 
ENDBRANCH  22  24
ENDBRANCH  20  22
ENDBRANCH   1  20
BRANCH   7  25
ATOM     25  O   UNL     1      -4.567  13.299  19.419  0.00  0.00    +0.000 OA
ATOM     26  H   UNL     1      -4.424  13.547  20.347  0.00  0.00    +0.000 HD
ENDBRANCH   7  25
BRANCH   8  27
ATOM     27  C   UNL     1      -2.137  13.335  20.852  0.00  0.00    +0.000 C 
BRANCH  27  28
ATOM     28  N   UNL     1      -3.207  13.406  21.879  0.00  0.00    +0.000 NA
ATOM     29  C   UNL     1      -3.003  12.334  22.870  0.00  0.00    +0.000 C 
ATOM     30  C   UNL     1      -3.805  12.495  24.164  0.00  0.00    +0.000 C 
ATOM     31  C   UNL     1      -3.588  13.868  24.779  0.00  0.00    +0.000 C 
ATOM     32  C   UNL     1      -3.982  14.924  23.764  0.00  0.00    +0.000 C 
ATOM     33  C   UNL     1      -3.184  14.752  22.473  0.00  0.00    +0.000 C 
ENDBRANCH  27  28
ENDBRANCH   8  27
TORSDOF 8
ENDMDL
