MODEL 1
REMARK VINA RESULT:      -7.3      0.000      0.000
REMARK  Name = 
REMARK  6 active torsions:
REMARK  status: ('A' for Active; 'I' for Inactive)
REMARK    1  A    between atoms: C_1  and  O_2
REMARK    2  A    between atoms: O_2  and  C_3
REMARK    3  A    between atoms: C_3  and  C_4
REMARK    4  A    between atoms: C_3  and  C_21
REMARK    5  A    between atoms: N_6  and  C_7
REMARK    6  A    between atoms: C_12  and  C_13
REMARK                            x       y       z     vdW  Elec       q    Type
REMARK                         _______ _______ _______ _____ _____    ______ ____
ROOT
ATOM      1  C   UNL     1       3.807   6.288  17.724  0.00  0.00    +0.000 A 
ATOM      2  C   UNL     1       4.964   6.878  17.191  0.00  0.00    +0.000 A 
ATOM      3  C   UNL     1       5.799   6.166  16.336  0.00  0.00    +0.000 A 
ATOM      4  C   UNL     1       5.480   4.855  15.993  0.00  0.00    +0.000 A 
ATOM      5  C   UNL     1       4.337   4.244  16.526  0.00  0.00    +0.000 A 
ATOM      6  C   UNL     1       3.516   4.930  17.428  0.00  0.00    +0.000 A 
ENDROOT
BRANCH   6   7
ATOM      7  C   UNL     1       2.262   4.316  17.976  0.00  0.00    +0.000 C 
ATOM      8  O   UNL     1       1.227   4.487  17.323  0.00  0.00    +0.000 OA
ATOM      9  N   UNL     1       2.224   3.636  19.192  0.00  0.00    +0.000 N 
ATOM     10  C   UNL     1       1.036   2.820  19.491  0.00  0.00    +0.000 C 
ATOM     11  C   UNL     1       0.719   2.693  20.989  0.00  0.00    +0.000 C 
ATOM     12  O   UNL     1       1.881   2.461  21.794  0.00  0.00    +0.000 OA
ATOM     13  C   UNL     1       2.885   3.455  21.564  0.00  0.00    +0.000 C 
ATOM     14  C   UNL     1       3.346   3.428  20.106  0.00  0.00    +0.000 C 
ENDBRANCH   6   7
BRANCH   1  17
ATOM     15  C   UNL     1       2.362   8.228  18.218  0.00  0.00    +0.000 C 
ATOM     16  O   UNL     1       2.358   8.621  17.045  0.00  0.00    +0.000 OA
ATOM     17  N   UNL     1       2.944   7.034  18.573  0.00  0.00    +0.000 N 
ATOM     18  H   UNL     1       2.351   6.447  19.143  0.00  0.00    +0.000 HD
BRANCH  15  19
ATOM     19  C   UNL     1       1.683   9.104  19.294  0.00  0.00    +0.000 C 
BRANCH  19  20
ATOM     20  C   UNL     1       0.568  10.129  19.047  0.00  0.00    +0.000 A 
ATOM     21  C   UNL     1       0.899  11.487  19.279  0.00  0.00    +0.000 A 
ATOM     22  C   UNL     1       0.069  12.542  18.889  0.00  0.00    +0.000 A 
ATOM     23  C   UNL     1      -1.136  12.273  18.257  0.00  0.00    +0.000 A 
ATOM     24  C   UNL     1      -1.517  10.953  18.057  0.00  0.00    +0.000 A 
ATOM     25  C   UNL     1      -0.674   9.896  18.438  0.00  0.00    +0.000 A 
ENDBRANCH  19  20
BRANCH  19  27
ATOM     26  C   UNL     1       1.194   8.568  21.590  0.00  0.00    +0.000 C 
ATOM     27  O   UNL     1       1.171   8.125  20.237  0.00  0.00    +0.000 OA
ENDBRANCH  19  27
ENDBRANCH  15  19
ENDBRANCH   1  17
TORSDOF 5
ENDMDL
MODEL 2
REMARK VINA RESULT:      -7.1      2.288      4.704
REMARK  Name = 
REMARK  6 active torsions:
REMARK  status: ('A' for Active; 'I' for Inactive)
REMARK    1  A    between atoms: C_1  and  O_2
REMARK    2  A    between atoms: O_2  and  C_3
REMARK    3  A    between atoms: C_3  and  C_4
REMARK    4  A    between atoms: C_3  and  C_21
REMARK    5  A    between atoms: N_6  and  C_7
REMARK    6  A    between atoms: C_12  and  C_13
REMARK                            x       y       z     vdW  Elec       q    Type
REMARK                         _______ _______ _______ _____ _____    ______ ____
ROOT
ATOM      1  C   UNL     1       2.365   4.344  18.661  0.00  0.00    +0.000 A 
ATOM      2  C   UNL     1       1.259   3.481  18.600  0.00  0.00    +0.000 A 
ATOM      3  C   UNL     1       1.428   2.101  18.643  0.00  0.00    +0.000 A 
ATOM      4  C   UNL     1       2.708   1.565  18.760  0.00  0.00    +0.000 A 
ATOM      5  C   UNL     1       3.825   2.410  18.809  0.00  0.00    +0.000 A 
ATOM      6  C   UNL     1       3.675   3.798  18.714  0.00  0.00    +0.000 A 
ENDROOT
BRANCH   6   7
ATOM      7  C   UNL     1       4.849   4.726  18.812  0.00  0.00    +0.000 C 
ATOM      8  O   UNL     1       5.007   5.312  19.888  0.00  0.00    +0.000 OA
ATOM      9  N   UNL     1       5.699   4.982  17.737  0.00  0.00    +0.000 N 
ATOM     10  C   UNL     1       6.978   5.656  18.013  0.00  0.00    +0.000 C 
ATOM     11  C   UNL     1       7.508   6.506  16.847  0.00  0.00    +0.000 C 
ATOM     12  O   UNL     1       7.379   5.861  15.574  0.00  0.00    +0.000 OA
ATOM     13  C   UNL     1       6.032   5.440  15.334  0.00  0.00    +0.000 C 
ATOM     14  C   UNL     1       5.586   4.427  16.390  0.00  0.00    +0.000 C 
ENDBRANCH   6   7
BRANCH   1  17
ATOM     15  C   UNL     1       1.809   6.490  19.748  0.00  0.00    +0.000 C 
ATOM     16  O   UNL     1       1.843   6.009  20.888  0.00  0.00    +0.000 OA
ATOM     17  N   UNL     1       2.180   5.753  18.648  0.00  0.00    +0.000 N 
ATOM     18  H   UNL     1       2.834   6.230  18.042  0.00  0.00    +0.000 HD
BRANCH  15  19
ATOM     19  C   UNL     1       1.352   7.955  19.577  0.00  0.00    +0.000 C 
BRANCH  19  20
ATOM     20  C   UNL     1       0.891   8.891  20.703  0.00  0.00    +0.000 A 
ATOM     21  C   UNL     1      -0.019   9.915  20.337  0.00  0.00    +0.000 A 
ATOM     22  C   UNL     1      -0.693  10.695  21.279  0.00  0.00    +0.000 A 
ATOM     23  C   UNL     1      -0.471  10.486  22.632  0.00  0.00    +0.000 A 
ATOM     24  C   UNL     1       0.449   9.526  23.028  0.00  0.00    +0.000 A 
ATOM     25  C   UNL     1       1.114   8.733  22.078  0.00  0.00    +0.000 A 
ENDBRANCH  19  20
BRANCH  19  27
ATOM     26  C   UNL     1       2.175   9.229  17.707  0.00  0.00    +0.000 C 
ATOM     27  O   UNL     1       2.494   8.580  18.934  0.00  0.00    +0.000 OA
ENDBRANCH  19  27
ENDBRANCH  15  19
ENDBRANCH   1  17
TORSDOF 5
ENDMDL
MODEL 3
REMARK VINA RESULT:      -7.0      2.527      7.179
REMARK  Name = 
REMARK  6 active torsions:
REMARK  status: ('A' for Active; 'I' for Inactive)
REMARK    1  A    between atoms: C_1  and  O_2
REMARK    2  A    between atoms: O_2  and  C_3
REMARK    3  A    between atoms: C_3  and  C_4
REMARK    4  A    between atoms: C_3  and  C_21
REMARK    5  A    between atoms: N_6  and  C_7
REMARK    6  A    between atoms: C_12  and  C_13
REMARK                            x       y       z     vdW  Elec       q    Type
REMARK                         _______ _______ _______ _____ _____    ______ ____
ROOT
ATOM      1  C   UNL     1       4.120   4.264  18.731  0.00  0.00    +0.000 A 
ATOM      2  C   UNL     1       4.279   3.029  19.380  0.00  0.00    +0.000 A 
ATOM      3  C   UNL     1       3.509   2.705  20.494  0.00  0.00    +0.000 A 
ATOM      4  C   UNL     1       2.561   3.609  20.964  0.00  0.00    +0.000 A 
ATOM      5  C   UNL     1       2.398   4.851  20.337  0.00  0.00    +0.000 A 
ATOM      6  C   UNL     1       3.201   5.213  19.249  0.00  0.00    +0.000 A 
ENDROOT
BRANCH   6   7
ATOM      7  C   UNL     1       3.013   6.516  18.531  0.00  0.00    +0.000 C 
ATOM      8  O   UNL     1       3.651   6.671  17.484  0.00  0.00    +0.000 OA
ATOM      9  N   UNL     1       2.215   7.544  19.030  0.00  0.00    +0.000 N 
ATOM     10  C   UNL     1       1.857   8.644  18.120  0.00  0.00    +0.000 C 
ATOM     11  C   UNL     1       1.624   9.992  18.821  0.00  0.00    +0.000 C 
ATOM     12  O   UNL     1       0.861   9.877  20.027  0.00  0.00    +0.000 OA
ATOM     13  C   UNL     1       1.439   8.923  20.925  0.00  0.00    +0.000 C 
ATOM     14  C   UNL     1       1.472   7.533  20.288  0.00  0.00    +0.000 C 
ENDBRANCH   6   7
BRANCH   1  17
ATOM     15  C   UNL     1       6.260   4.684  17.572  0.00  0.00    +0.000 C 
ATOM     16  O   UNL     1       6.942   4.286  18.525  0.00  0.00    +0.000 OA
ATOM     17  N   UNL     1       4.890   4.573  17.576  0.00  0.00    +0.000 N 
ATOM     18  H   UNL     1       4.514   4.162  16.732  0.00  0.00    +0.000 HD
BRANCH  15  19
ATOM     19  C   UNL     1       6.981   5.302  16.354  0.00  0.00    +0.000 C 
BRANCH  19  20
ATOM     20  C   UNL     1       6.760   4.916  14.886  0.00  0.00    +0.000 A 
ATOM     21  C   UNL     1       7.658   5.479  13.945  0.00  0.00    +0.000 A 
ATOM     22  C   UNL     1       7.722   5.052  12.617  0.00  0.00    +0.000 A 
ATOM     23  C   UNL     1       6.877   4.045  12.175  0.00  0.00    +0.000 A 
ATOM     24  C   UNL     1       5.950   3.503  13.055  0.00  0.00    +0.000 A 
ATOM     25  C   UNL     1       5.898   3.926  14.393  0.00  0.00    +0.000 A 
ENDBRANCH  19  20
BRANCH  19  27
ATOM     26  C   UNL     1       7.492   7.392  17.436  0.00  0.00    +0.000 C 
ATOM     27  O   UNL     1       6.679   6.717  16.481  0.00  0.00    +0.000 OA
ENDBRANCH  19  27
ENDBRANCH  15  19
ENDBRANCH   1  17
TORSDOF 5
ENDMDL
MODEL 4
REMARK VINA RESULT:      -6.9      2.257      7.173
REMARK  Name = 
REMARK  6 active torsions:
REMARK  status: ('A' for Active; 'I' for Inactive)
REMARK    1  A    between atoms: C_1  and  O_2
REMARK    2  A    between atoms: O_2  and  C_3
REMARK    3  A    between atoms: C_3  and  C_4
REMARK    4  A    between atoms: C_3  and  C_21
REMARK    5  A    between atoms: N_6  and  C_7
REMARK    6  A    between atoms: C_12  and  C_13
REMARK                            x       y       z     vdW  Elec       q    Type
REMARK                         _______ _______ _______ _____ _____    ______ ____
ROOT
ATOM      1  C   UNL     1       3.715   4.681  19.281  0.00  0.00    +0.000 A 
ATOM      2  C   UNL     1       3.867   3.398  19.831  0.00  0.00    +0.000 A 
ATOM      3  C   UNL     1       2.936   2.896  20.736  0.00  0.00    +0.000 A 
ATOM      4  C   UNL     1       1.834   3.667  21.093  0.00  0.00    +0.000 A 
ATOM      5  C   UNL     1       1.674   4.955  20.564  0.00  0.00    +0.000 A 
ATOM      6  C   UNL     1       2.628   5.494  19.695  0.00  0.00    +0.000 A 
ENDROOT
BRANCH   6   7
ATOM      7  C   UNL     1       2.455   6.851  19.078  0.00  0.00    +0.000 C 
ATOM      8  O   UNL     1       2.970   7.028  17.970  0.00  0.00    +0.000 OA
ATOM      9  N   UNL     1       1.805   7.898  19.731  0.00  0.00    +0.000 N 
ATOM     10  C   UNL     1       1.424   9.076  18.935  0.00  0.00    +0.000 C 
ATOM     11  C   UNL     1       1.384  10.389  19.734  0.00  0.00    +0.000 C 
ATOM     12  O   UNL     1       0.767  10.250  21.019  0.00  0.00    +0.000 OA
ATOM     13  C   UNL     1       1.376   9.203  21.782  0.00  0.00    +0.000 C 
ATOM     14  C   UNL     1       1.223   7.857  21.070  0.00  0.00    +0.000 C 
ENDBRANCH   6   7
BRANCH   1  17
ATOM     15  C   UNL     1       4.831   4.642  17.078  0.00  0.00    +0.000 C 
ATOM     16  O   UNL     1       4.016   3.846  16.594  0.00  0.00    +0.000 OA
ATOM     17  N   UNL     1       4.655   5.173  18.334  0.00  0.00    +0.000 N 
ATOM     18  H   UNL     1       4.755   6.178  18.367  0.00  0.00    +0.000 HD
BRANCH  15  19
ATOM     19  C   UNL     1       6.059   5.046  16.234  0.00  0.00    +0.000 C 
BRANCH  19  20
ATOM     20  C   UNL     1       6.251   4.776  14.736  0.00  0.00    +0.000 A 
ATOM     21  C   UNL     1       7.370   5.392  14.123  0.00  0.00    +0.000 A 
ATOM     22  C   UNL     1       7.798   5.065  12.834  0.00  0.00    +0.000 A 
ATOM     23  C   UNL     1       7.109   4.109  12.101  0.00  0.00    +0.000 A 
ATOM     24  C   UNL     1       5.979   3.519  12.650  0.00  0.00    +0.000 A 
ATOM     25  C   UNL     1       5.561   3.841  13.952  0.00  0.00    +0.000 A 
ENDBRANCH  19  20
BRANCH  19  27
ATOM     26  C   UNL     1       7.211   6.897  17.256  0.00  0.00    +0.000 C 
ATOM     27  O   UNL     1       6.129   6.484  16.428  0.00  0.00    +0.000 OA
ENDBRANCH  19  27
ENDBRANCH  15  19
ENDBRANCH   1  17
TORSDOF 5
ENDMDL
MODEL 5
REMARK VINA RESULT:      -6.7      1.634      2.609
REMARK  Name = 
REMARK  6 active torsions:
REMARK  status: ('A' for Active; 'I' for Inactive)
REMARK    1  A    between atoms: C_1  and  O_2
REMARK    2  A    between atoms: O_2  and  C_3
REMARK    3  A    between atoms: C_3  and  C_4
REMARK    4  A    between atoms: C_3  and  C_21
REMARK    5  A    between atoms: N_6  and  C_7
REMARK    6  A    between atoms: C_12  and  C_13
REMARK                            x       y       z     vdW  Elec       q    Type
REMARK                         _______ _______ _______ _____ _____    ______ ____
ROOT
ATOM      1  C   UNL     1       4.344   6.512  17.095  0.00  0.00    +0.000 A 
ATOM      2  C   UNL     1       4.877   6.733  15.815  0.00  0.00    +0.000 A 
ATOM      3  C   UNL     1       5.526   5.713  15.127  0.00  0.00    +0.000 A 
ATOM      4  C   UNL     1       5.640   4.453  15.707  0.00  0.00    +0.000 A 
ATOM      5  C   UNL     1       5.126   4.217  16.989  0.00  0.00    +0.000 A 
ATOM      6  C   UNL     1       4.517   5.246  17.714  0.00  0.00    +0.000 A 
ENDROOT
BRANCH   6   7
ATOM      7  C   UNL     1       3.917   5.007  19.068  0.00  0.00    +0.000 C 
ATOM      8  O   UNL     1       4.557   5.417  20.041  0.00  0.00    +0.000 OA
ATOM      9  N   UNL     1       2.727   4.304  19.251  0.00  0.00    +0.000 N 
ATOM     10  C   UNL     1       2.072   4.386  20.567  0.00  0.00    +0.000 C 
ATOM     11  C   UNL     1       1.250   3.141  20.940  0.00  0.00    +0.000 C 
ATOM     12  O   UNL     1       0.461   2.640  19.856  0.00  0.00    +0.000 OA
ATOM     13  C   UNL     1       1.261   2.398  18.694  0.00  0.00    +0.000 C 
ATOM     14  C   UNL     1       1.909   3.694  18.205  0.00  0.00    +0.000 C 
ENDBRANCH   6   7
BRANCH   1  17
ATOM     15  C   UNL     1       2.290   7.711  17.758  0.00  0.00    +0.000 C 
ATOM     16  O   UNL     1       1.542   6.818  17.339  0.00  0.00    +0.000 OA
ATOM     17  N   UNL     1       3.655   7.552  17.777  0.00  0.00    +0.000 N 
ATOM     18  H   UNL     1       4.078   7.786  18.665  0.00  0.00    +0.000 HD
BRANCH  15  19
ATOM     19  C   UNL     1       1.658   9.020  18.279  0.00  0.00    +0.000 C 
BRANCH  19  20
ATOM     20  C   UNL     1       0.967   9.209  19.636  0.00  0.00    +0.000 A 
ATOM     21  C   UNL     1       1.532   8.510  20.732  0.00  0.00    +0.000 A 
ATOM     22  C   UNL     1       1.156   8.754  22.055  0.00  0.00    +0.000 A 
ATOM     23  C   UNL     1       0.184   9.705  22.331  0.00  0.00    +0.000 A 
ATOM     24  C   UNL     1      -0.427  10.374  21.280  0.00  0.00    +0.000 A 
ATOM     25  C   UNL     1      -0.035  10.137  19.952  0.00  0.00    +0.000 A 
ENDBRANCH  19  20
BRANCH  19  27
ATOM     26  C   UNL     1       2.363  11.293  17.914  0.00  0.00    +0.000 C 
ATOM     27  O   UNL     1       2.763   9.961  18.220  0.00  0.00    +0.000 OA
ENDBRANCH  19  27
ENDBRANCH  15  19
ENDBRANCH   1  17
TORSDOF 5
ENDMDL
MODEL 6
REMARK VINA RESULT:      -6.7      2.154      4.667
REMARK  Name = 
REMARK  6 active torsions:
REMARK  status: ('A' for Active; 'I' for Inactive)
REMARK    1  A    between atoms: C_1  and  O_2
REMARK    2  A    between atoms: O_2  and  C_3
REMARK    3  A    between atoms: C_3  and  C_4
REMARK    4  A    between atoms: C_3  and  C_21
REMARK    5  A    between atoms: N_6  and  C_7
REMARK    6  A    between atoms: C_12  and  C_13
REMARK                            x       y       z     vdW  Elec       q    Type
REMARK                         _______ _______ _______ _____ _____    ______ ____
ROOT
ATOM      1  C   UNL     1       3.072   4.599  20.054  0.00  0.00    +0.000 A 
ATOM      2  C   UNL     1       2.014   3.987  20.744  0.00  0.00    +0.000 A 
ATOM      3  C   UNL     1       2.139   2.692  21.238  0.00  0.00    +0.000 A 
ATOM      4  C   UNL     1       3.331   1.996  21.058  0.00  0.00    +0.000 A 
ATOM      5  C   UNL     1       4.393   2.586  20.359  0.00  0.00    +0.000 A 
ATOM      6  C   UNL     1       4.264   3.867  19.812  0.00  0.00    +0.000 A 
ENDROOT
BRANCH   6   7
ATOM      7  C   UNL     1       5.402   4.538  19.102  0.00  0.00    +0.000 C 
ATOM      8  O   UNL     1       6.029   5.392  19.738  0.00  0.00    +0.000 OA
ATOM      9  N   UNL     1       5.718   4.278  17.769  0.00  0.00    +0.000 N 
ATOM     10  C   UNL     1       7.018   4.750  17.263  0.00  0.00    +0.000 C 
ATOM     11  C   UNL     1       7.028   5.074  15.760  0.00  0.00    +0.000 C 
ATOM     12  O   UNL     1       6.341   4.098  14.967  0.00  0.00    +0.000 OA
ATOM     13  C   UNL     1       5.006   3.887  15.438  0.00  0.00    +0.000 C 
ATOM     14  C   UNL     1       5.017   3.360  16.874  0.00  0.00    +0.000 C 
ENDBRANCH   6   7
BRANCH   1  17
ATOM     15  C   UNL     1       2.327   6.275  18.400  0.00  0.00    +0.000 C 
ATOM     16  O   UNL     1       1.625   5.465  17.782  0.00  0.00    +0.000 OA
ATOM     17  N   UNL     1       2.946   5.933  19.580  0.00  0.00    +0.000 N 
ATOM     18  H   UNL     1       2.798   6.602  20.323  0.00  0.00    +0.000 HD
BRANCH  15  19
ATOM     19  C   UNL     1       2.491   7.700  17.827  0.00  0.00    +0.000 C 
BRANCH  19  20
ATOM     20  C   UNL     1       1.849   8.975  18.389  0.00  0.00    +0.000 A 
ATOM     21  C   UNL     1       1.201   8.853  19.644  0.00  0.00    +0.000 A 
ATOM     22  C   UNL     1       0.770   9.960  20.379  0.00  0.00    +0.000 A 
ATOM     23  C   UNL     1       0.961  11.238  19.877  0.00  0.00    +0.000 A 
ATOM     24  C   UNL     1       1.548  11.395  18.629  0.00  0.00    +0.000 A 
ATOM     25  C   UNL     1       1.994  10.281  17.899  0.00  0.00    +0.000 A 
ENDBRANCH  19  20
BRANCH  19  27
ATOM     26  C   UNL     1       4.594   7.362  16.704  0.00  0.00    +0.000 C 
ATOM     27  O   UNL     1       3.930   7.895  17.845  0.00  0.00    +0.000 OA
ENDBRANCH  19  27
ENDBRANCH  15  19
ENDBRANCH   1  17
TORSDOF 5
ENDMDL
MODEL 7
REMARK VINA RESULT:      -6.7      2.362      4.335
REMARK  Name = 
REMARK  6 active torsions:
REMARK  status: ('A' for Active; 'I' for Inactive)
REMARK    1  A    between atoms: C_1  and  O_2
REMARK    2  A    between atoms: O_2  and  C_3
REMARK    3  A    between atoms: C_3  and  C_4
REMARK    4  A    between atoms: C_3  and  C_21
REMARK    5  A    between atoms: N_6  and  C_7
REMARK    6  A    between atoms: C_12  and  C_13
REMARK                            x       y       z     vdW  Elec       q    Type
REMARK                         _______ _______ _______ _____ _____    ______ ____
ROOT
ATOM      1  C   UNL     1       2.459   4.648  18.137  0.00  0.00    +0.000 A 
ATOM      2  C   UNL     1       1.595   3.670  18.653  0.00  0.00    +0.000 A 
ATOM      3  C   UNL     1       1.949   2.324  18.633  0.00  0.00    +0.000 A 
ATOM      4  C   UNL     1       3.179   1.941  18.107  0.00  0.00    +0.000 A 
ATOM      5  C   UNL     1       4.049   2.902  17.574  0.00  0.00    +0.000 A 
ATOM      6  C   UNL     1       3.685   4.253  17.539  0.00  0.00    +0.000 A 
ENDROOT
BRANCH   6   7
ATOM      7  C   UNL     1       4.617   5.306  17.019  0.00  0.00    +0.000 C 
ATOM      8  O   UNL     1       4.446   5.675  15.853  0.00  0.00    +0.000 OA
ATOM      9  N   UNL     1       5.675   5.815  17.772  0.00  0.00    +0.000 N 
ATOM     10  C   UNL     1       6.333   7.043  17.296  0.00  0.00    +0.000 C 
ATOM     11  C   UNL     1       7.814   7.158  17.691  0.00  0.00    +0.000 C 
ATOM     12  O   UNL     1       8.068   6.772  19.047  0.00  0.00    +0.000 OA
ATOM     13  C   UNL     1       7.562   5.462  19.322  0.00  0.00    +0.000 C 
ATOM     14  C   UNL     1       6.046   5.416  19.128  0.00  0.00    +0.000 C 
ENDBRANCH   6   7
BRANCH   1  17
ATOM     15  C   UNL     1       2.157   6.789  19.331  0.00  0.00    +0.000 C 
ATOM     16  O   UNL     1       2.749   6.395  20.344  0.00  0.00    +0.000 OA
ATOM     17  N   UNL     1       2.103   6.024  18.189  0.00  0.00    +0.000 N 
ATOM     18  H   UNL     1       2.357   6.528  17.351  0.00  0.00    +0.000 HD
BRANCH  15  19
ATOM     19  C   UNL     1       1.482   8.177  19.362  0.00  0.00    +0.000 C 
BRANCH  19  20
ATOM     20  C   UNL     1       0.920   8.877  20.606  0.00  0.00    +0.000 A 
ATOM     21  C   UNL     1       0.911  10.294  20.581  0.00  0.00    +0.000 A 
ATOM     22  C   UNL     1       0.234  11.060  21.533  0.00  0.00    +0.000 A 
ATOM     23  C   UNL     1      -0.456  10.431  22.559  0.00  0.00    +0.000 A 
ATOM     24  C   UNL     1      -0.430   9.046  22.644  0.00  0.00    +0.000 A 
ATOM     25  C   UNL     1       0.240   8.279  21.677  0.00  0.00    +0.000 A 
ENDBRANCH  19  20
BRANCH  19  27
ATOM     26  C   UNL     1       2.178   9.534  17.498  0.00  0.00    +0.000 C 
ATOM     27  O   UNL     1       2.499   9.047  18.797  0.00  0.00    +0.000 OA
ENDBRANCH  19  27
ENDBRANCH  15  19
ENDBRANCH   1  17
TORSDOF 5
ENDMDL
MODEL 8
REMARK VINA RESULT:      -6.6      2.390      6.656
REMARK  Name = 
REMARK  6 active torsions:
REMARK  status: ('A' for Active; 'I' for Inactive)
REMARK    1  A    between atoms: C_1  and  O_2
REMARK    2  A    between atoms: O_2  and  C_3
REMARK    3  A    between atoms: C_3  and  C_4
REMARK    4  A    between atoms: C_3  and  C_21
REMARK    5  A    between atoms: N_6  and  C_7
REMARK    6  A    between atoms: C_12  and  C_13
REMARK                            x       y       z     vdW  Elec       q    Type
REMARK                         _______ _______ _______ _____ _____    ______ ____
ROOT
ATOM      1  C   UNL     1       3.261   4.931  19.452  0.00  0.00    +0.000 A 
ATOM      2  C   UNL     1       3.424   3.603  19.878  0.00  0.00    +0.000 A 
ATOM      3  C   UNL     1       2.444   2.974  20.639  0.00  0.00    +0.000 A 
ATOM      4  C   UNL     1       1.281   3.662  20.975  0.00  0.00    +0.000 A 
ATOM      5  C   UNL     1       1.108   4.993  20.570  0.00  0.00    +0.000 A 
ATOM      6  C   UNL     1       2.107   5.656  19.849  0.00  0.00    +0.000 A 
ENDROOT
BRANCH   6   7
ATOM      7  C   UNL     1       1.925   7.063  19.363  0.00  0.00    +0.000 C 
ATOM      8  O   UNL     1       2.265   7.299  18.199  0.00  0.00    +0.000 OA
ATOM      9  N   UNL     1       1.458   8.089  20.184  0.00  0.00    +0.000 N 
ATOM     10  C   UNL     1       1.031   9.345  19.544  0.00  0.00    +0.000 C 
ATOM     11  C   UNL     1       1.206  10.592  20.425  0.00  0.00    +0.000 C 
ATOM     12  O   UNL     1       0.796  10.386  21.782  0.00  0.00    +0.000 OA
ATOM     13  C   UNL     1       1.451   9.252  22.361  0.00  0.00    +0.000 C 
ATOM     14  C   UNL     1       1.098   7.976  21.595  0.00  0.00    +0.000 C 
ENDBRANCH   6   7
BRANCH   1  17
ATOM     15  C   UNL     1       4.589   5.141  17.381  0.00  0.00    +0.000 C 
ATOM     16  O   UNL     1       3.882   4.341  16.755  0.00  0.00    +0.000 OA
ATOM     17  N   UNL     1       4.254   5.555  18.648  0.00  0.00    +0.000 N 
ATOM     18  H   UNL     1       4.282   6.559  18.768  0.00  0.00    +0.000 HD
BRANCH  15  19
ATOM     19  C   UNL     1       5.865   5.687  16.703  0.00  0.00    +0.000 C 
BRANCH  19  20
ATOM     20  C   UNL     1       6.969   6.504  17.387  0.00  0.00    +0.000 A 
ATOM     21  C   UNL     1       7.113   7.848  16.961  0.00  0.00    +0.000 A 
ATOM     22  C   UNL     1       7.914   8.771  17.638  0.00  0.00    +0.000 A 
ATOM     23  C   UNL     1       8.614   8.377  18.769  0.00  0.00    +0.000 A 
ATOM     24  C   UNL     1       8.536   7.056  19.188  0.00  0.00    +0.000 A 
ATOM     25  C   UNL     1       7.718   6.135  18.513  0.00  0.00    +0.000 A 
ENDBRANCH  19  20
BRANCH  19  27
ATOM     26  C   UNL     1       7.034   4.670  14.860  0.00  0.00    +0.000 C 
ATOM     27  O   UNL     1       6.484   4.490  16.161  0.00  0.00    +0.000 OA
ENDBRANCH  19  27
ENDBRANCH  15  19
ENDBRANCH   1  17
TORSDOF 5
ENDMDL
MODEL 9
REMARK VINA RESULT:      -6.6      2.021      4.373
REMARK  Name = 
REMARK  6 active torsions:
REMARK  status: ('A' for Active; 'I' for Inactive)
REMARK    1  A    between atoms: C_1  and  O_2
REMARK    2  A    between atoms: O_2  and  C_3
REMARK    3  A    between atoms: C_3  and  C_4
REMARK    4  A    between atoms: C_3  and  C_21
REMARK    5  A    between atoms: N_6  and  C_7
REMARK    6  A    between atoms: C_12  and  C_13
REMARK                            x       y       z     vdW  Elec       q    Type
REMARK                         _______ _______ _______ _____ _____    ______ ____
ROOT
ATOM      1  C   UNL     1       2.362   4.683  19.163  0.00  0.00    +0.000 A 
ATOM      2  C   UNL     1       1.146   4.140  19.607  0.00  0.00    +0.000 A 
ATOM      3  C   UNL     1       1.122   2.996  20.399  0.00  0.00    +0.000 A 
ATOM      4  C   UNL     1       2.318   2.385  20.766  0.00  0.00    +0.000 A 
ATOM      5  C   UNL     1       3.541   2.905  20.320  0.00  0.00    +0.000 A 
ATOM      6  C   UNL     1       3.578   4.024  19.482  0.00  0.00    +0.000 A 
ENDROOT
BRANCH   6   7
ATOM      7  C   UNL     1       4.875   4.627  19.031  0.00  0.00    +0.000 C 
ATOM      8  O   UNL     1       5.419   5.422  19.805  0.00  0.00    +0.000 OA
ATOM      9  N   UNL     1       5.431   4.371  17.778  0.00  0.00    +0.000 N 
ATOM     10  C   UNL     1       6.832   4.760  17.551  0.00  0.00    +0.000 C 
ATOM     11  C   UNL     1       7.161   5.111  16.091  0.00  0.00    +0.000 C 
ATOM     12  O   UNL     1       6.582   4.202  15.148  0.00  0.00    +0.000 OA
ATOM     13  C   UNL     1       5.169   4.075  15.341  0.00  0.00    +0.000 C 
ATOM     14  C   UNL     1       4.862   3.522  16.734  0.00  0.00    +0.000 C 
ENDBRANCH   6   7
BRANCH   1  17
ATOM     15  C   UNL     1       2.249   7.136  18.903  0.00  0.00    +0.000 C 
ATOM     16  O   UNL     1       2.351   7.346  20.118  0.00  0.00    +0.000 OA
ATOM     17  N   UNL     1       2.377   5.870  18.381  0.00  0.00    +0.000 N 
ATOM     18  H   UNL     1       3.015   5.816  17.599  0.00  0.00    +0.000 HD
BRANCH  15  19
ATOM     19  C   UNL     1       1.986   8.334  17.965  0.00  0.00    +0.000 C 
BRANCH  19  20
ATOM     20  C   UNL     1       1.246   9.625  18.339  0.00  0.00    +0.000 A 
ATOM     21  C   UNL     1       2.033  10.801  18.419  0.00  0.00    +0.000 A 
ATOM     22  C   UNL     1       1.472  12.076  18.528  0.00  0.00    +0.000 A 
ATOM     23  C   UNL     1       0.094  12.221  18.574  0.00  0.00    +0.000 A 
ATOM     24  C   UNL     1      -0.708  11.089  18.547  0.00  0.00    +0.000 A 
ATOM     25  C   UNL     1      -0.142   9.810  18.423  0.00  0.00    +0.000 A 
ENDBRANCH  19  20
BRANCH  19  27
ATOM     26  C   UNL     1       4.080   7.622  17.014  0.00  0.00    +0.000 C 
ATOM     27  O   UNL     1       3.321   8.709  17.533  0.00  0.00    +0.000 OA
ENDBRANCH  19  27
ENDBRANCH  15  19
ENDBRANCH   1  17
TORSDOF 5
ENDMDL
