MODEL 1
REMARK VINA RESULT:      -8.1      0.000      0.000
REMARK  Name = 
REMARK  8 active torsions:
REMARK  status: ('A' for Active; 'I' for Inactive)
REMARK    1  A    between atoms: C_1  and  C_2
REMARK    2  A    between atoms: C_2  and  O_3
REMARK    3  A    between atoms: O_3  and  C_4
REMARK    4  A    between atoms: C_7  and  C_8
REMARK    5  A    between atoms: N_9  and  N_10
REMARK    6  A    between atoms: C_11  and  C_13
REMARK    7  A    between atoms: C_18  and  C_19
REMARK    8  A    between atoms: C_22  and  C_23
REMARK                            x       y       z     vdW  Elec       q    Type
REMARK                         _______ _______ _______ _____ _____    ______ ____
ROOT
ATOM      1  N   UNL     1       7.688   6.400  16.515  0.00  0.00    +0.000 N 
ATOM      2  C   UNL     1       7.243   6.543  17.838  0.00  0.00    +0.000 C 
ATOM      3  O   UNL     1       7.857   7.273  18.612  0.00  0.00    +0.000 OA
ATOM      4  H   UNL     1       8.503   6.942  16.255  0.00  0.00    +0.000 HD
ENDROOT
BRANCH   2   5
ATOM      5  C   UNL     1       6.045   5.792  18.202  0.00  0.00    +0.000 A 
ATOM      6  N   UNL     1       6.127   4.627  18.921  0.00  0.00    +0.000 N 
ATOM      7  C   UNL     1       4.912   4.024  19.065  0.00  0.00    +0.000 A 
ATOM      8  C   UNL     1       4.598   2.832  19.713  0.00  0.00    +0.000 A 
ATOM      9  C   UNL     1       3.287   2.385  19.623  0.00  0.00    +0.000 A 
ATOM     10  C   UNL     1       2.326   3.097  18.902  0.00  0.00    +0.000 A 
ATOM     11  C   UNL     1       0.965   2.490  18.711  0.00  0.00    +0.000 C 
ATOM     12  C   UNL     1       2.663   4.332  18.301  0.00  0.00    +0.000 A 
ATOM     13  C   UNL     1       3.988   4.825  18.401  0.00  0.00    +0.000 A 
ATOM     14  C   UNL     1       4.688   6.018  17.979  0.00  0.00    +0.000 A 
ATOM     15  C   UNL     1       4.098   7.246  17.380  0.00  0.00    +0.000 C 
ATOM     16  H   UNL     1       7.014   4.218  19.174  0.00  0.00    +0.000 HD
ENDBRANCH   2   5
BRANCH   1  18
ATOM     17  C   UNL     1       7.476   4.921  14.776  0.00  0.00    +0.000 C 
ATOM     18  N   UNL     1       6.926   5.785  15.561  0.00  0.00    +0.000 NA
BRANCH  17  22
ATOM     19  C   UNL     1       5.120   3.114  11.683  0.00  0.00    +0.000 A 
ATOM     20  C   UNL     1       4.542   3.430  12.914  0.00  0.00    +0.000 A 
ATOM     21  C   UNL     1       5.303   4.023  13.920  0.00  0.00    +0.000 A 
ATOM     22  C   UNL     1       6.665   4.285  13.710  0.00  0.00    +0.000 A 
ATOM     23  C   UNL     1       7.252   3.951  12.491  0.00  0.00    +0.000 A 
ATOM     24  C   UNL     1       6.478   3.357  11.479  0.00  0.00    +0.000 A 
BRANCH  19  25
ATOM     25  O   UNL     1       4.261   2.561  10.776  0.00  0.00    +0.000 OA
BRANCH  25  27
ATOM     26  C   UNL     1       3.110   4.245   9.547  0.00  0.00    +0.000 C 
ATOM     27  C   UNL     1       2.988   3.191  10.635  0.00  0.00    +0.000 C 
ENDBRANCH  25  27
ENDBRANCH  19  25
ENDBRANCH  17  22
ENDBRANCH   1  18
TORSDOF 5
ENDMDL
MODEL 2
REMARK VINA RESULT:      -7.9      3.498      6.987
REMARK  Name = 
REMARK  8 active torsions:
REMARK  status: ('A' for Active; 'I' for Inactive)
REMARK    1  A    between atoms: C_1  and  C_2
REMARK    2  A    between atoms: C_2  and  O_3
REMARK    3  A    between atoms: O_3  and  C_4
REMARK    4  A    between atoms: C_7  and  C_8
REMARK    5  A    between atoms: N_9  and  N_10
REMARK    6  A    between atoms: C_11  and  C_13
REMARK    7  A    between atoms: C_18  and  C_19
REMARK    8  A    between atoms: C_22  and  C_23
REMARK                            x       y       z     vdW  Elec       q    Type
REMARK                         _______ _______ _______ _____ _____    ______ ____
ROOT
ATOM      1  N   UNL     1       5.442   6.688  16.100  0.00  0.00    +0.000 N 
ATOM      2  C   UNL     1       5.709   5.314  16.195  0.00  0.00    +0.000 C 
ATOM      3  O   UNL     1       6.543   4.803  15.453  0.00  0.00    +0.000 OA
ATOM      4  H   UNL     1       5.983   7.205  15.418  0.00  0.00    +0.000 HD
ENDROOT
BRANCH   2   5
ATOM      5  C   UNL     1       4.956   4.578  17.206  0.00  0.00    +0.000 A 
ATOM      6  N   UNL     1       3.944   3.723  16.855  0.00  0.00    +0.000 N 
ATOM      7  C   UNL     1       3.296   3.217  17.944  0.00  0.00    +0.000 A 
ATOM      8  C   UNL     1       2.218   2.336  17.990  0.00  0.00    +0.000 A 
ATOM      9  C   UNL     1       1.675   2.058  19.237  0.00  0.00    +0.000 A 
ATOM     10  C   UNL     1       2.185   2.647  20.397  0.00  0.00    +0.000 A 
ATOM     11  C   UNL     1       1.465   2.431  21.697  0.00  0.00    +0.000 C 
ATOM     12  C   UNL     1       3.315   3.495  20.323  0.00  0.00    +0.000 A 
ATOM     13  C   UNL     1       3.904   3.773  19.064  0.00  0.00    +0.000 A 
ATOM     14  C   UNL     1       5.049   4.523  18.596  0.00  0.00    +0.000 A 
ATOM     15  C   UNL     1       6.110   5.159  19.422  0.00  0.00    +0.000 C 
ATOM     16  H   UNL     1       3.645   3.614  15.898  0.00  0.00    +0.000 HD
ENDBRANCH   2   5
BRANCH   1  18
ATOM     17  C   UNL     1       3.425   7.141  17.091  0.00  0.00    +0.000 C 
ATOM     18  N   UNL     1       4.698   7.345  17.041  0.00  0.00    +0.000 NA
BRANCH  17  22
ATOM     19  C   UNL     1       1.089   9.304  19.964  0.00  0.00    +0.000 A 
ATOM     20  C   UNL     1       1.622   8.056  20.288  0.00  0.00    +0.000 A 
ATOM     21  C   UNL     1       2.387   7.352  19.359  0.00  0.00    +0.000 A 
ATOM     22  C   UNL     1       2.606   7.885  18.080  0.00  0.00    +0.000 A 
ATOM     23  C   UNL     1       2.058   9.122  17.744  0.00  0.00    +0.000 A 
ATOM     24  C   UNL     1       1.291   9.828  18.687  0.00  0.00    +0.000 A 
BRANCH  19  25
ATOM     25  O   UNL     1       0.382   9.900  20.970  0.00  0.00    +0.000 OA
BRANCH  25  27
ATOM     26  C   UNL     1      -0.458   9.751  23.192  0.00  0.00    +0.000 C 
ATOM     27  C   UNL     1       0.760   9.561  22.304  0.00  0.00    +0.000 C 
ENDBRANCH  25  27
ENDBRANCH  19  25
ENDBRANCH  17  22
ENDBRANCH   1  18
TORSDOF 5
ENDMDL
MODEL 3
REMARK VINA RESULT:      -7.8      4.315      6.893
REMARK  Name = 
REMARK  8 active torsions:
REMARK  status: ('A' for Active; 'I' for Inactive)
REMARK    1  A    between atoms: C_1  and  C_2
REMARK    2  A    between atoms: C_2  and  O_3
REMARK    3  A    between atoms: O_3  and  C_4
REMARK    4  A    between atoms: C_7  and  C_8
REMARK    5  A    between atoms: N_9  and  N_10
REMARK    6  A    between atoms: C_11  and  C_13
REMARK    7  A    between atoms: C_18  and  C_19
REMARK    8  A    between atoms: C_22  and  C_23
REMARK                            x       y       z     vdW  Elec       q    Type
REMARK                         _______ _______ _______ _____ _____    ______ ____
ROOT
ATOM      1  N   UNL     1       5.204   3.053  18.746  0.00  0.00    +0.000 N 
ATOM      2  C   UNL     1       3.855   2.902  19.101  0.00  0.00    +0.000 C 
ATOM      3  O   UNL     1       3.364   1.778  19.169  0.00  0.00    +0.000 OA
ATOM      4  H   UNL     1       5.723   2.199  18.581  0.00  0.00    +0.000 HD
ENDROOT
BRANCH   2   5
ATOM      5  C   UNL     1       3.118   4.132  19.376  0.00  0.00    +0.000 A 
ATOM      6  N   UNL     1       3.133   5.182  18.494  0.00  0.00    +0.000 N 
ATOM      7  C   UNL     1       2.475   6.273  18.981  0.00  0.00    +0.000 A 
ATOM      8  C   UNL     1       2.290   7.520  18.388  0.00  0.00    +0.000 A 
ATOM      9  C   UNL     1       1.666   8.500  19.148  0.00  0.00    +0.000 A 
ATOM     10  C   UNL     1       1.252   8.247  20.458  0.00  0.00    +0.000 A 
ATOM     11  C   UNL     1       0.722   9.385  21.283  0.00  0.00    +0.000 C 
ATOM     12  C   UNL     1       1.405   6.954  21.012  0.00  0.00    +0.000 A 
ATOM     13  C   UNL     1       2.014   5.929  20.247  0.00  0.00    +0.000 A 
ATOM     14  C   UNL     1       2.300   4.524  20.435  0.00  0.00    +0.000 A 
ATOM     15  C   UNL     1       1.852   3.653  21.555  0.00  0.00    +0.000 C 
ATOM     16  H   UNL     1       3.695   5.167  17.656  0.00  0.00    +0.000 HD
ENDBRANCH   2   5
BRANCH   1  18
ATOM     17  C   UNL     1       6.169   4.909  17.809  0.00  0.00    +0.000 C 
ATOM     18  N   UNL     1       5.853   4.249  18.872  0.00  0.00    +0.000 NA
BRANCH  17  22
ATOM     19  C   UNL     1       8.295   8.612  18.202  0.00  0.00    +0.000 A 
ATOM     20  C   UNL     1       7.308   8.469  17.226  0.00  0.00    +0.000 A 
ATOM     21  C   UNL     1       6.610   7.268  17.099  0.00  0.00    +0.000 A 
ATOM     22  C   UNL     1       6.914   6.186  17.938  0.00  0.00    +0.000 A 
ATOM     23  C   UNL     1       7.914   6.317  18.900  0.00  0.00    +0.000 A 
ATOM     24  C   UNL     1       8.611   7.531  19.026  0.00  0.00    +0.000 A 
BRANCH  19  25
ATOM     25  O   UNL     1       8.884   9.845  18.240  0.00  0.00    +0.000 OA
BRANCH  25  27
ATOM     26  C   UNL     1      10.518  11.237  19.267  0.00  0.00    +0.000 C 
ATOM     27  C   UNL     1       9.357  10.288  19.511  0.00  0.00    +0.000 C 
ENDBRANCH  25  27
ENDBRANCH  19  25
ENDBRANCH  17  22
ENDBRANCH   1  18
TORSDOF 5
ENDMDL
MODEL 4
REMARK VINA RESULT:      -7.8      3.654      7.136
REMARK  Name = 
REMARK  8 active torsions:
REMARK  status: ('A' for Active; 'I' for Inactive)
REMARK    1  A    between atoms: C_1  and  C_2
REMARK    2  A    between atoms: C_2  and  O_3
REMARK    3  A    between atoms: O_3  and  C_4
REMARK    4  A    between atoms: C_7  and  C_8
REMARK    5  A    between atoms: N_9  and  N_10
REMARK    6  A    between atoms: C_11  and  C_13
REMARK    7  A    between atoms: C_18  and  C_19
REMARK    8  A    between atoms: C_22  and  C_23
REMARK                            x       y       z     vdW  Elec       q    Type
REMARK                         _______ _______ _______ _____ _____    ______ ____
ROOT
ATOM      1  N   UNL     1       5.182   6.792  16.051  0.00  0.00    +0.000 N 
ATOM      2  C   UNL     1       5.451   5.416  16.100  0.00  0.00    +0.000 C 
ATOM      3  O   UNL     1       6.242   4.921  15.302  0.00  0.00    +0.000 OA
ATOM      4  H   UNL     1       5.686   7.323  15.352  0.00  0.00    +0.000 HD
ENDROOT
BRANCH   2   5
ATOM      5  C   UNL     1       4.752   4.658  17.134  0.00  0.00    +0.000 A 
ATOM      6  N   UNL     1       3.732   3.799  16.817  0.00  0.00    +0.000 N 
ATOM      7  C   UNL     1       3.140   3.270  17.927  0.00  0.00    +0.000 A 
ATOM      8  C   UNL     1       2.073   2.380  18.009  0.00  0.00    +0.000 A 
ATOM      9  C   UNL     1       1.591   2.078  19.276  0.00  0.00    +0.000 A 
ATOM     10  C   UNL     1       2.150   2.654  20.420  0.00  0.00    +0.000 A 
ATOM     11  C   UNL     1       1.494   2.410  21.749  0.00  0.00    +0.000 C 
ATOM     12  C   UNL     1       3.269   3.512  20.306  0.00  0.00    +0.000 A 
ATOM     13  C   UNL     1       3.796   3.815  19.026  0.00  0.00    +0.000 A 
ATOM     14  C   UNL     1       4.911   4.583  18.517  0.00  0.00    +0.000 A 
ATOM     15  C   UNL     1       6.005   5.215  19.302  0.00  0.00    +0.000 C 
ATOM     16  H   UNL     1       3.389   3.703  15.873  0.00  0.00    +0.000 HD
ENDBRANCH   2   5
BRANCH   1  18
ATOM     17  C   UNL     1       3.212   7.276  17.119  0.00  0.00    +0.000 C 
ATOM     18  N   UNL     1       4.491   7.428  17.045  0.00  0.00    +0.000 NA
BRANCH  17  22
ATOM     19  C   UNL     1       0.984   9.352  20.138  0.00  0.00    +0.000 A 
ATOM     20  C   UNL     1       1.141   9.913  18.869  0.00  0.00    +0.000 A 
ATOM     21  C   UNL     1       1.860   9.238  17.883  0.00  0.00    +0.000 A 
ATOM     22  C   UNL     1       2.452   7.999  18.168  0.00  0.00    +0.000 A 
ATOM     23  C   UNL     1       2.316   7.445  19.440  0.00  0.00    +0.000 A 
ATOM     24  C   UNL     1       1.587   8.128  20.428  0.00  0.00    +0.000 A 
BRANCH  19  25
ATOM     25  O   UNL     1       0.237  10.101  21.003  0.00  0.00    +0.000 OA
BRANCH  25  27
ATOM     26  C   UNL     1      -0.901  10.495  23.056  0.00  0.00    +0.000 C 
ATOM     27  C   UNL     1       0.008   9.544  22.296  0.00  0.00    +0.000 C 
ENDBRANCH  25  27
ENDBRANCH  19  25
ENDBRANCH  17  22
ENDBRANCH   1  18
TORSDOF 5
ENDMDL
MODEL 5
REMARK VINA RESULT:      -7.7      3.821      7.558
REMARK  Name = 
REMARK  8 active torsions:
REMARK  status: ('A' for Active; 'I' for Inactive)
REMARK    1  A    between atoms: C_1  and  C_2
REMARK    2  A    between atoms: C_2  and  O_3
REMARK    3  A    between atoms: O_3  and  C_4
REMARK    4  A    between atoms: C_7  and  C_8
REMARK    5  A    between atoms: N_9  and  N_10
REMARK    6  A    between atoms: C_11  and  C_13
REMARK    7  A    between atoms: C_18  and  C_19
REMARK    8  A    between atoms: C_22  and  C_23
REMARK                            x       y       z     vdW  Elec       q    Type
REMARK                         _______ _______ _______ _____ _____    ______ ____
ROOT
ATOM      1  N   UNL     1       2.407   3.007  19.077  0.00  0.00    +0.000 N 
ATOM      2  C   UNL     1       3.680   2.542  18.715  0.00  0.00    +0.000 C 
ATOM      3  O   UNL     1       3.889   1.334  18.638  0.00  0.00    +0.000 OA
ATOM      4  H   UNL     1       1.700   2.300  19.240  0.00  0.00    +0.000 HD
ENDROOT
BRANCH   2   5
ATOM      5  C   UNL     1       4.687   3.563  18.443  0.00  0.00    +0.000 A 
ATOM      6  N   UNL     1       5.685   3.835  19.344  0.00  0.00    +0.000 N 
ATOM      7  C   UNL     1       6.458   4.890  18.955  0.00  0.00    +0.000 A 
ATOM      8  C   UNL     1       7.546   5.465  19.606  0.00  0.00    +0.000 A 
ATOM      9  C   UNL     1       8.096   6.607  19.040  0.00  0.00    +0.000 A 
ATOM     10  C   UNL     1       7.571   7.162  17.871  0.00  0.00    +0.000 A 
ATOM     11  C   UNL     1       8.107   8.479  17.388  0.00  0.00    +0.000 C 
ATOM     12  C   UNL     1       6.499   6.522  17.203  0.00  0.00    +0.000 A 
ATOM     13  C   UNL     1       5.938   5.340  17.746  0.00  0.00    +0.000 A 
ATOM     14  C   UNL     1       4.905   4.406  17.354  0.00  0.00    +0.000 A 
ATOM     15  C   UNL     1       4.173   4.361  16.060  0.00  0.00    +0.000 C 
ATOM     16  H   UNL     1       5.727   3.384  20.246  0.00  0.00    +0.000 HD
ENDBRANCH   2   5
BRANCH   1  18
ATOM     17  C   UNL     1       2.461   5.162  19.857  0.00  0.00    +0.000 C 
ATOM     18  N   UNL     1       2.060   4.324  18.961  0.00  0.00    +0.000 NA
BRANCH  17  22
ATOM     19  C   UNL     1       1.305   9.283  19.594  0.00  0.00    +0.000 A 
ATOM     20  C   UNL     1       1.075   8.562  20.767  0.00  0.00    +0.000 A 
ATOM     21  C   UNL     1       1.455   7.223  20.858  0.00  0.00    +0.000 A 
ATOM     22  C   UNL     1       2.050   6.584  19.761  0.00  0.00    +0.000 A 
ATOM     23  C   UNL     1       2.262   7.294  18.580  0.00  0.00    +0.000 A 
ATOM     24  C   UNL     1       1.881   8.644  18.495  0.00  0.00    +0.000 A 
BRANCH  19  25
ATOM     25  O   UNL     1       0.911  10.590  19.643  0.00  0.00    +0.000 OA
BRANCH  25  27
ATOM     26  C   UNL     1      -1.210  10.600  18.563  0.00  0.00    +0.000 C 
ATOM     27  C   UNL     1      -0.477  10.831  19.873  0.00  0.00    +0.000 C 
ENDBRANCH  25  27
ENDBRANCH  19  25
ENDBRANCH  17  22
ENDBRANCH   1  18
TORSDOF 5
ENDMDL
MODEL 6
REMARK VINA RESULT:      -7.7      3.612      7.560
REMARK  Name = 
REMARK  8 active torsions:
REMARK  status: ('A' for Active; 'I' for Inactive)
REMARK    1  A    between atoms: C_1  and  C_2
REMARK    2  A    between atoms: C_2  and  O_3
REMARK    3  A    between atoms: O_3  and  C_4
REMARK    4  A    between atoms: C_7  and  C_8
REMARK    5  A    between atoms: N_9  and  N_10
REMARK    6  A    between atoms: C_11  and  C_13
REMARK    7  A    between atoms: C_18  and  C_19
REMARK    8  A    between atoms: C_22  and  C_23
REMARK                            x       y       z     vdW  Elec       q    Type
REMARK                         _______ _______ _______ _____ _____    ______ ____
ROOT
ATOM      1  N   UNL     1       2.501   3.108  18.557  0.00  0.00    +0.000 N 
ATOM      2  C   UNL     1       3.786   2.666  18.206  0.00  0.00    +0.000 C 
ATOM      3  O   UNL     1       3.992   1.468  18.033  0.00  0.00    +0.000 OA
ATOM      4  H   UNL     1       1.786   2.395  18.630  0.00  0.00    +0.000 HD
ENDROOT
BRANCH   2   5
ATOM      5  C   UNL     1       4.807   3.699  18.062  0.00  0.00    +0.000 A 
ATOM      6  N   UNL     1       5.714   3.945  19.061  0.00  0.00    +0.000 N 
ATOM      7  C   UNL     1       6.513   5.015  18.780  0.00  0.00    +0.000 A 
ATOM      8  C   UNL     1       7.531   5.572  19.549  0.00  0.00    +0.000 A 
ATOM      9  C   UNL     1       8.125   6.734  19.074  0.00  0.00    +0.000 A 
ATOM     10  C   UNL     1       7.708   7.325  17.879  0.00  0.00    +0.000 A 
ATOM     11  C   UNL     1       8.278   8.659  17.491  0.00  0.00    +0.000 C 
ATOM     12  C   UNL     1       6.708   6.704  17.093  0.00  0.00    +0.000 A 
ATOM     13  C   UNL     1       6.106   5.502  17.543  0.00  0.00    +0.000 A 
ATOM     14  C   UNL     1       5.120   4.578  17.026  0.00  0.00    +0.000 A 
ATOM     15  C   UNL     1       4.513   4.572  15.668  0.00  0.00    +0.000 C 
ATOM     16  H   UNL     1       5.674   3.466  19.948  0.00  0.00    +0.000 HD
ENDBRANCH   2   5
BRANCH   1  18
ATOM     17  C   UNL     1       2.492   5.177  19.545  0.00  0.00    +0.000 C 
ATOM     18  N   UNL     1       2.165   4.433  18.542  0.00  0.00    +0.000 NA
BRANCH  17  22
ATOM     19  C   UNL     1       1.299   9.296  19.557  0.00  0.00    +0.000 A 
ATOM     20  C   UNL     1       1.854   8.728  18.410  0.00  0.00    +0.000 A 
ATOM     21  C   UNL     1       2.238   7.387  18.399  0.00  0.00    +0.000 A 
ATOM     22  C   UNL     1       2.090   6.605  19.554  0.00  0.00    +0.000 A 
ATOM     23  C   UNL     1       1.557   7.173  20.710  0.00  0.00    +0.000 A 
ATOM     24  C   UNL     1       1.168   8.524  20.712  0.00  0.00    +0.000 A 
BRANCH  19  25
ATOM     25  O   UNL     1       0.942  10.608  19.428  0.00  0.00    +0.000 OA
BRANCH  25  27
ATOM     26  C   UNL     1      -1.286  10.465  18.604  0.00  0.00    +0.000 C 
ATOM     27  C   UNL     1      -0.408  10.938  19.750  0.00  0.00    +0.000 C 
ENDBRANCH  25  27
ENDBRANCH  19  25
ENDBRANCH  17  22
ENDBRANCH   1  18
TORSDOF 5
ENDMDL
MODEL 7
REMARK VINA RESULT:      -7.6      4.084      6.765
REMARK  Name = 
REMARK  8 active torsions:
REMARK  status: ('A' for Active; 'I' for Inactive)
REMARK    1  A    between atoms: C_1  and  C_2
REMARK    2  A    between atoms: C_2  and  O_3
REMARK    3  A    between atoms: O_3  and  C_4
REMARK    4  A    between atoms: C_7  and  C_8
REMARK    5  A    between atoms: N_9  and  N_10
REMARK    6  A    between atoms: C_11  and  C_13
REMARK    7  A    between atoms: C_18  and  C_19
REMARK    8  A    between atoms: C_22  and  C_23
REMARK                            x       y       z     vdW  Elec       q    Type
REMARK                         _______ _______ _______ _____ _____    ______ ____
ROOT
ATOM      1  N   UNL     1       5.034   3.297  17.062  0.00  0.00    +0.000 N 
ATOM      2  C   UNL     1       3.899   2.976  17.823  0.00  0.00    +0.000 C 
ATOM      3  O   UNL     1       3.559   1.803  17.944  0.00  0.00    +0.000 OA
ATOM      4  H   UNL     1       5.540   2.517  16.660  0.00  0.00    +0.000 HD
ENDROOT
BRANCH   2   5
ATOM      5  C   UNL     1       3.194   4.098  18.434  0.00  0.00    +0.000 A 
ATOM      6  N   UNL     1       3.081   5.303  17.789  0.00  0.00    +0.000 N 
ATOM      7  C   UNL     1       2.482   6.250  18.567  0.00  0.00    +0.000 A 
ATOM      8  C   UNL     1       2.208   7.582  18.269  0.00  0.00    +0.000 A 
ATOM      9  C   UNL     1       1.681   8.367  19.286  0.00  0.00    +0.000 A 
ATOM     10  C   UNL     1       1.446   7.843  20.559  0.00  0.00    +0.000 A 
ATOM     11  C   UNL     1       1.020   8.771  21.659  0.00  0.00    +0.000 C 
ATOM     12  C   UNL     1       1.684   6.472  20.814  0.00  0.00    +0.000 A 
ATOM     13  C   UNL     1       2.197   5.643  19.785  0.00  0.00    +0.000 A 
ATOM     14  C   UNL     1       2.519   4.240  19.646  0.00  0.00    +0.000 A 
ATOM     15  C   UNL     1       2.233   3.147  20.614  0.00  0.00    +0.000 C 
ATOM     16  H   UNL     1       3.527   5.477  16.901  0.00  0.00    +0.000 HD
ENDBRANCH   2   5
BRANCH   1  18
ATOM     17  C   UNL     1       6.516   4.817  17.928  0.00  0.00    +0.000 C 
ATOM     18  N   UNL     1       5.582   4.549  17.078  0.00  0.00    +0.000 NA
BRANCH  17  22
ATOM     19  C   UNL     1       8.183   8.765  18.059  0.00  0.00    +0.000 A 
ATOM     20  C   UNL     1       8.625   7.786  18.949  0.00  0.00    +0.000 A 
ATOM     21  C   UNL     1       8.090   6.499  18.906  0.00  0.00    +0.000 A 
ATOM     22  C   UNL     1       7.083   6.186  17.980  0.00  0.00    +0.000 A 
ATOM     23  C   UNL     1       6.623   7.167  17.103  0.00  0.00    +0.000 A 
ATOM     24  C   UNL     1       7.169   8.461  17.149  0.00  0.00    +0.000 A 
BRANCH  19  25
ATOM     25  O   UNL     1       8.805   9.975  18.187  0.00  0.00    +0.000 OA
BRANCH  25  27
ATOM     26  C   UNL     1      10.507  11.271  19.231  0.00  0.00    +0.000 C 
ATOM     27  C   UNL     1       9.400  10.255  19.454  0.00  0.00    +0.000 C 
ENDBRANCH  25  27
ENDBRANCH  19  25
ENDBRANCH  17  22
ENDBRANCH   1  18
TORSDOF 5
ENDMDL
MODEL 8
REMARK VINA RESULT:      -7.5      3.974      7.843
REMARK  Name = 
REMARK  8 active torsions:
REMARK  status: ('A' for Active; 'I' for Inactive)
REMARK    1  A    between atoms: C_1  and  C_2
REMARK    2  A    between atoms: C_2  and  O_3
REMARK    3  A    between atoms: O_3  and  C_4
REMARK    4  A    between atoms: C_7  and  C_8
REMARK    5  A    between atoms: N_9  and  N_10
REMARK    6  A    between atoms: C_11  and  C_13
REMARK    7  A    between atoms: C_18  and  C_19
REMARK    8  A    between atoms: C_22  and  C_23
REMARK                            x       y       z     vdW  Elec       q    Type
REMARK                         _______ _______ _______ _____ _____    ______ ____
ROOT
ATOM      1  N   UNL     1       1.978   4.835  21.029  0.00  0.00    +0.000 N 
ATOM      2  C   UNL     1       2.600   3.660  20.578  0.00  0.00    +0.000 C 
ATOM      3  O   UNL     1       2.337   2.588  21.115  0.00  0.00    +0.000 OA
ATOM      4  H   UNL     1       1.309   4.729  21.781  0.00  0.00    +0.000 HD
ENDROOT
BRANCH   2   5
ATOM      5  C   UNL     1       3.535   3.809  19.468  0.00  0.00    +0.000 A 
ATOM      6  N   UNL     1       4.642   4.612  19.574  0.00  0.00    +0.000 N 
ATOM      7  C   UNL     1       5.328   4.702  18.398  0.00  0.00    +0.000 A 
ATOM      8  C   UNL     1       6.482   5.426  18.111  0.00  0.00    +0.000 A 
ATOM      9  C   UNL     1       6.921   5.429  16.794  0.00  0.00    +0.000 A 
ATOM     10  C   UNL     1       6.226   4.742  15.796  0.00  0.00    +0.000 A 
ATOM     11  C   UNL     1       6.658   4.904  14.367  0.00  0.00    +0.000 C 
ATOM     12  C   UNL     1       5.087   3.971  16.130  0.00  0.00    +0.000 A 
ATOM     13  C   UNL     1       4.634   3.930  17.472  0.00  0.00    +0.000 A 
ATOM     14  C   UNL     1       3.579   3.250  18.191  0.00  0.00    +0.000 A 
ATOM     15  C   UNL     1       2.676   2.187  17.677  0.00  0.00    +0.000 C 
ATOM     16  H   UNL     1       4.819   5.171  20.395  0.00  0.00    +0.000 HD
ENDBRANCH   2   5
BRANCH   1  18
ATOM     17  C   UNL     1       1.419   7.042  20.759  0.00  0.00    +0.000 C 
ATOM     18  N   UNL     1       2.062   6.008  20.331  0.00  0.00    +0.000 NA
BRANCH  17  22
ATOM     19  C   UNL     1       1.594  10.700  18.529  0.00  0.00    +0.000 A 
ATOM     20  C   UNL     1       0.997  10.674  19.790  0.00  0.00    +0.000 A 
ATOM     21  C   UNL     1       0.944   9.487  20.521  0.00  0.00    +0.000 A 
ATOM     22  C   UNL     1       1.469   8.304  19.981  0.00  0.00    +0.000 A 
ATOM     23  C   UNL     1       2.047   8.321  18.712  0.00  0.00    +0.000 A 
ATOM     24  C   UNL     1       2.102   9.521  17.983  0.00  0.00    +0.000 A 
BRANCH  19  25
ATOM     25  O   UNL     1       1.605  11.928  17.930  0.00  0.00    +0.000 OA
BRANCH  25  27
ATOM     26  C   UNL     1       2.864  13.917  18.284  0.00  0.00    +0.000 C 
ATOM     27  C   UNL     1       1.718  13.059  18.793  0.00  0.00    +0.000 C 
ENDBRANCH  25  27
ENDBRANCH  19  25
ENDBRANCH  17  22
ENDBRANCH   1  18
TORSDOF 5
ENDMDL
MODEL 9
REMARK VINA RESULT:      -7.4      3.888      7.651
REMARK  Name = 
REMARK  8 active torsions:
REMARK  status: ('A' for Active; 'I' for Inactive)
REMARK    1  A    between atoms: C_1  and  C_2
REMARK    2  A    between atoms: C_2  and  O_3
REMARK    3  A    between atoms: O_3  and  C_4
REMARK    4  A    between atoms: C_7  and  C_8
REMARK    5  A    between atoms: N_9  and  N_10
REMARK    6  A    between atoms: C_11  and  C_13
REMARK    7  A    between atoms: C_18  and  C_19
REMARK    8  A    between atoms: C_22  and  C_23
REMARK                            x       y       z     vdW  Elec       q    Type
REMARK                         _______ _______ _______ _____ _____    ______ ____
ROOT
ATOM      1  N   UNL     1       2.474   3.260  19.263  0.00  0.00    +0.000 N 
ATOM      2  C   UNL     1       3.749   2.780  18.928  0.00  0.00    +0.000 C 
ATOM      3  O   UNL     1       3.961   1.570  18.917  0.00  0.00    +0.000 OA
ATOM      4  H   UNL     1       1.768   2.561  19.462  0.00  0.00    +0.000 HD
ENDROOT
BRANCH   2   5
ATOM      5  C   UNL     1       4.754   3.787  18.603  0.00  0.00    +0.000 A 
ATOM      6  N   UNL     1       5.783   4.068  19.465  0.00  0.00    +0.000 N 
ATOM      7  C   UNL     1       6.550   5.109  19.030  0.00  0.00    +0.000 A 
ATOM      8  C   UNL     1       7.663   5.688  19.633  0.00  0.00    +0.000 A 
ATOM      9  C   UNL     1       8.203   6.814  19.027  0.00  0.00    +0.000 A 
ATOM     10  C   UNL     1       7.643   7.351  17.866  0.00  0.00    +0.000 A 
ATOM     11  C   UNL     1       8.172   8.654  17.340  0.00  0.00    +0.000 C 
ATOM     12  C   UNL     1       6.545   6.707  17.246  0.00  0.00    +0.000 A 
ATOM     13  C   UNL     1       5.993   5.540  17.831  0.00  0.00    +0.000 A 
ATOM     14  C   UNL     1       4.941   4.607  17.491  0.00  0.00    +0.000 A 
ATOM     15  C   UNL     1       4.166   4.543  16.224  0.00  0.00    +0.000 C 
ATOM     16  H   UNL     1       5.851   3.635  20.373  0.00  0.00    +0.000 HD
ENDBRANCH   2   5
BRANCH   1  18
ATOM     17  C   UNL     1       2.479   5.447  19.951  0.00  0.00    +0.000 C 
ATOM     18  N   UNL     1       2.124   4.568  19.075  0.00  0.00    +0.000 NA
BRANCH  17  22
ATOM     19  C   UNL     1       1.248   9.521  19.428  0.00  0.00    +0.000 A 
ATOM     20  C   UNL     1       1.895   8.844  18.394  0.00  0.00    +0.000 A 
ATOM     21  C   UNL     1       2.292   7.517  18.557  0.00  0.00    +0.000 A 
ATOM     22  C   UNL     1       2.064   6.860  19.775  0.00  0.00    +0.000 A 
ATOM     23  C   UNL     1       1.437   7.539  20.820  0.00  0.00    +0.000 A 
ATOM     24  C   UNL     1       1.036   8.875  20.647  0.00  0.00    +0.000 A 
BRANCH  19  25
ATOM     25  O   UNL     1       0.889  10.805  19.131  0.00  0.00    +0.000 OA
BRANCH  25  27
ATOM     26  C   UNL     1       2.003  12.899  19.335  0.00  0.00    +0.000 C 
ATOM     27  C   UNL     1       1.887  11.623  18.520  0.00  0.00    +0.000 C 
ENDBRANCH  25  27
ENDBRANCH  19  25
ENDBRANCH  17  22
ENDBRANCH   1  18
TORSDOF 5
ENDMDL
