MODEL 1
REMARK VINA RESULT:      -6.2      0.000      0.000
REMARK  Name = 
REMARK  9 active torsions:
REMARK  status: ('A' for Active; 'I' for Inactive)
REMARK    1  A    between atoms: C_1  and  C_2
REMARK    2  A    between atoms: C_2  and  C_3
REMARK    3  A    between atoms: C_3  and  C_4
REMARK    4  A    between atoms: C_3  and  C_6
REMARK    5  A    between atoms: C_4  and  C_5
REMARK    6  A    between atoms: C_6  and  N_7
REMARK    7  A    between atoms: N_7  and  C_8
REMARK    8  A    between atoms: C_8  and  C_9
REMARK    9  A    between atoms: C_10  and  C_12
REMARK                            x       y       z     vdW  Elec       q    Type
REMARK                         _______ _______ _______ _____ _____    ______ ____
ROOT
ATOM      1  N   UNL     1       3.774   5.267  19.161  0.00  0.00    +0.000 N 
ATOM      2  C   UNL     1       4.750   4.266  18.878  0.00  0.00    +0.000 C 
ATOM      3  O   UNL     1       4.910   3.335  19.673  0.00  0.00    +0.000 OA
ENDROOT
BRANCH   2   4
ATOM      4  C   UNL     1       5.548   4.367  17.638  0.00  0.00    +0.000 A 
ATOM      5  N   UNL     1       6.797   4.801  17.565  0.00  0.00    +0.000 NA
ATOM      6  C   UNL     1       7.241   4.759  16.257  0.00  0.00    +0.000 A 
ATOM      7  C   UNL     1       6.316   4.297  15.356  0.00  0.00    +0.000 A 
ATOM      8 BR   UNL     1       6.638   4.100  13.528  0.00  0.00    +0.000 Br
ATOM      9  S   UNL     1       4.845   3.936  16.120  0.00  0.00    +0.000 S 
ENDBRANCH   2   4
BRANCH   1  10
ATOM     10  C   UNL     1       3.576   6.410  18.257  0.00  0.00    +0.000 C 
ATOM     11  C   UNL     1       2.506   7.445  18.563  0.00  0.00    +0.000 C 
ENDBRANCH   1  10
BRANCH   1  12
ATOM     12  C   UNL     1       2.836   4.999  20.262  0.00  0.00    +0.000 C 
BRANCH  12  13
ATOM     13  C   UNL     1       1.510   4.314  19.838  0.00  0.00    +0.000 C 
BRANCH  13  15
ATOM     14  C   UNL     1       1.757   2.344  18.194  0.00  0.00    +0.000 C 
ATOM     15  C   UNL     1       1.546   3.840  18.372  0.00  0.00    +0.000 C 
ENDBRANCH  13  15
BRANCH  13  16
ATOM     16  C   UNL     1       1.144   3.178  20.824  0.00  0.00    +0.000 C 
ATOM     17  C   UNL     1       2.233   2.800  21.821  0.00  0.00    +0.000 C 
ENDBRANCH  13  16
ENDBRANCH  12  13
ENDBRANCH   1  12
TORSDOF 6
ENDMDL
MODEL 2
REMARK VINA RESULT:      -6.1      0.992      1.850
REMARK  Name = 
REMARK  9 active torsions:
REMARK  status: ('A' for Active; 'I' for Inactive)
REMARK    1  A    between atoms: C_1  and  C_2
REMARK    2  A    between atoms: C_2  and  C_3
REMARK    3  A    between atoms: C_3  and  C_4
REMARK    4  A    between atoms: C_3  and  C_6
REMARK    5  A    between atoms: C_4  and  C_5
REMARK    6  A    between atoms: C_6  and  N_7
REMARK    7  A    between atoms: N_7  and  C_8
REMARK    8  A    between atoms: C_8  and  C_9
REMARK    9  A    between atoms: C_10  and  C_12
REMARK                            x       y       z     vdW  Elec       q    Type
REMARK                         _______ _______ _______ _____ _____    ______ ____
ROOT
ATOM      1  N   UNL     1       4.458   5.662  18.494  0.00  0.00    +0.000 N 
ATOM      2  C   UNL     1       5.497   4.732  18.197  0.00  0.00    +0.000 C 
ATOM      3  O   UNL     1       5.921   3.992  19.090  0.00  0.00    +0.000 OA
ENDROOT
BRANCH   2   4
ATOM      4  C   UNL     1       6.044   4.675  16.825  0.00  0.00    +0.000 A 
ATOM      5  N   UNL     1       7.178   5.233  16.429  0.00  0.00    +0.000 NA
ATOM      6  C   UNL     1       7.391   4.981  15.087  0.00  0.00    +0.000 A 
ATOM      7  C   UNL     1       6.408   4.239  14.483  0.00  0.00    +0.000 A 
ATOM      8 BR   UNL     1       6.437   3.716  12.692  0.00  0.00    +0.000 Br
ATOM      9  S   UNL     1       5.166   3.865  15.577  0.00  0.00    +0.000 S 
ENDBRANCH   2   4
BRANCH   1  10
ATOM     10  C   UNL     1       3.950   6.585  17.468  0.00  0.00    +0.000 C 
ATOM     11  C   UNL     1       2.979   7.689  17.852  0.00  0.00    +0.000 C 
ENDBRANCH   1  10
BRANCH   1  12
ATOM     12  C   UNL     1       3.774   5.515  19.788  0.00  0.00    +0.000 C 
BRANCH  12  13
ATOM     13  C   UNL     1       2.871   4.259  19.910  0.00  0.00    +0.000 C 
BRANCH  13  15
ATOM     14  C   UNL     1       1.584   2.772  21.575  0.00  0.00    +0.000 C 
ATOM     15  C   UNL     1       2.299   4.091  21.331  0.00  0.00    +0.000 C 
ENDBRANCH  13  15
BRANCH  13  16
ATOM     16  C   UNL     1       1.770   4.272  18.821  0.00  0.00    +0.000 C 
ATOM     17  C   UNL     1       1.857   3.153  17.790  0.00  0.00    +0.000 C 
ENDBRANCH  13  16
ENDBRANCH  12  13
ENDBRANCH   1  12
TORSDOF 6
ENDMDL
MODEL 3
REMARK VINA RESULT:      -6.0      1.586      1.948
REMARK  Name = 
REMARK  9 active torsions:
REMARK  status: ('A' for Active; 'I' for Inactive)
REMARK    1  A    between atoms: C_1  and  C_2
REMARK    2  A    between atoms: C_2  and  C_3
REMARK    3  A    between atoms: C_3  and  C_4
REMARK    4  A    between atoms: C_3  and  C_6
REMARK    5  A    between atoms: C_4  and  C_5
REMARK    6  A    between atoms: C_6  and  N_7
REMARK    7  A    between atoms: N_7  and  C_8
REMARK    8  A    between atoms: C_8  and  C_9
REMARK    9  A    between atoms: C_10  and  C_12
REMARK                            x       y       z     vdW  Elec       q    Type
REMARK                         _______ _______ _______ _____ _____    ______ ____
ROOT
ATOM      1  N   UNL     1       4.884   5.402  18.228  0.00  0.00    +0.000 N 
ATOM      2  C   UNL     1       6.073   4.750  17.786  0.00  0.00    +0.000 C 
ATOM      3  O   UNL     1       6.813   4.213  18.616  0.00  0.00    +0.000 OA
ENDROOT
BRANCH   2   4
ATOM      4  C   UNL     1       6.392   4.732  16.343  0.00  0.00    +0.000 A 
ATOM      5  N   UNL     1       7.227   5.561  15.733  0.00  0.00    +0.000 NA
ATOM      6  C   UNL     1       7.296   5.262  14.385  0.00  0.00    +0.000 A 
ATOM      7  C   UNL     1       6.506   4.212  13.993  0.00  0.00    +0.000 A 
ATOM      8 BR   UNL     1       6.417   3.561  12.247  0.00  0.00    +0.000 Br
ATOM      9  S   UNL     1       5.623   3.590  15.301  0.00  0.00    +0.000 S 
ENDBRANCH   2   4
BRANCH   1  10
ATOM     10  C   UNL     1       3.994   6.083  17.276  0.00  0.00    +0.000 C 
ATOM     11  C   UNL     1       3.397   7.435  17.627  0.00  0.00    +0.000 C 
ENDBRANCH   1  10
BRANCH   1  12
ATOM     12  C   UNL     1       4.476   5.182  19.624  0.00  0.00    +0.000 C 
BRANCH  12  13
ATOM     13  C   UNL     1       3.238   4.265  19.805  0.00  0.00    +0.000 C 
BRANCH  13  15
ATOM     14  C   UNL     1       3.682   1.965  18.730  0.00  0.00    +0.000 C 
ATOM     15  C   UNL     1       3.633   2.789  20.007  0.00  0.00    +0.000 C 
ENDBRANCH  13  15
BRANCH  13  16
ATOM     16  C   UNL     1       2.325   4.799  20.936  0.00  0.00    +0.000 C 
ATOM     17  C   UNL     1       1.577   6.089  20.619  0.00  0.00    +0.000 C 
ENDBRANCH  13  16
ENDBRANCH  12  13
ENDBRANCH   1  12
TORSDOF 6
ENDMDL
MODEL 4
REMARK VINA RESULT:      -5.8      2.446      2.744
REMARK  Name = 
REMARK  9 active torsions:
REMARK  status: ('A' for Active; 'I' for Inactive)
REMARK    1  A    between atoms: C_1  and  C_2
REMARK    2  A    between atoms: C_2  and  C_3
REMARK    3  A    between atoms: C_3  and  C_4
REMARK    4  A    between atoms: C_3  and  C_6
REMARK    5  A    between atoms: C_4  and  C_5
REMARK    6  A    between atoms: C_6  and  N_7
REMARK    7  A    between atoms: N_7  and  C_8
REMARK    8  A    between atoms: C_8  and  C_9
REMARK    9  A    between atoms: C_10  and  C_12
REMARK                            x       y       z     vdW  Elec       q    Type
REMARK                         _______ _______ _______ _____ _____    ______ ____
ROOT
ATOM      1  N   UNL     1       3.530   4.519  18.220  0.00  0.00    +0.000 N 
ATOM      2  C   UNL     1       4.710   4.474  17.422  0.00  0.00    +0.000 C 
ATOM      3  O   UNL     1       4.769   3.688  16.472  0.00  0.00    +0.000 OA
ENDROOT
BRANCH   2   4
ATOM      4  C   UNL     1       5.838   5.372  17.749  0.00  0.00    +0.000 A 
ATOM      5  N   UNL     1       6.890   5.044  18.484  0.00  0.00    +0.000 NA
ATOM      6  C   UNL     1       7.754   6.117  18.587  0.00  0.00    +0.000 A 
ATOM      7  C   UNL     1       7.339   7.248  17.931  0.00  0.00    +0.000 A 
ATOM      8 BR   UNL     1       8.310   8.840  17.866  0.00  0.00    +0.000 Br
ATOM      9  S   UNL     1       5.829   7.008  17.194  0.00  0.00    +0.000 S 
ENDBRANCH   2   4
BRANCH   1  10
ATOM     10  C   UNL     1       3.432   5.418  19.380  0.00  0.00    +0.000 C 
ATOM     11  C   UNL     1       2.520   6.633  19.326  0.00  0.00    +0.000 C 
ENDBRANCH   1  10
BRANCH   1  12
ATOM     12  C   UNL     1       2.349   3.801  17.715  0.00  0.00    +0.000 C 
BRANCH  12  13
ATOM     13  C   UNL     1       1.860   2.636  18.615  0.00  0.00    +0.000 C 
BRANCH  13  15
ATOM     14  C   UNL     1       3.841   1.004  18.378  0.00  0.00    +0.000 C 
ATOM     15  C   UNL     1       3.031   1.902  19.299  0.00  0.00    +0.000 C 
ENDBRANCH  13  15
BRANCH  13  16
ATOM     16  C   UNL     1       0.798   3.135  19.624  0.00  0.00    +0.000 C 
ATOM     17  C   UNL     1       1.150   2.940  21.095  0.00  0.00    +0.000 C 
ENDBRANCH  13  16
ENDBRANCH  12  13
ENDBRANCH   1  12
TORSDOF 6
ENDMDL
MODEL 5
REMARK VINA RESULT:      -5.7      1.488      2.146
REMARK  Name = 
REMARK  9 active torsions:
REMARK  status: ('A' for Active; 'I' for Inactive)
REMARK    1  A    between atoms: C_1  and  C_2
REMARK    2  A    between atoms: C_2  and  C_3
REMARK    3  A    between atoms: C_3  and  C_4
REMARK    4  A    between atoms: C_3  and  C_6
REMARK    5  A    between atoms: C_4  and  C_5
REMARK    6  A    between atoms: C_6  and  N_7
REMARK    7  A    between atoms: N_7  and  C_8
REMARK    8  A    between atoms: C_8  and  C_9
REMARK    9  A    between atoms: C_10  and  C_12
REMARK                            x       y       z     vdW  Elec       q    Type
REMARK                         _______ _______ _______ _____ _____    ______ ____
ROOT
ATOM      1  N   UNL     1       5.066   5.515  18.154  0.00  0.00    +0.000 N 
ATOM      2  C   UNL     1       6.169   4.749  17.676  0.00  0.00    +0.000 C 
ATOM      3  O   UNL     1       6.902   4.172  18.485  0.00  0.00    +0.000 OA
ENDROOT
BRANCH   2   4
ATOM      4  C   UNL     1       6.411   4.663  16.220  0.00  0.00    +0.000 A 
ATOM      5  N   UNL     1       7.259   5.419  15.539  0.00  0.00    +0.000 NA
ATOM      6  C   UNL     1       7.241   5.070  14.201  0.00  0.00    +0.000 A 
ATOM      7  C   UNL     1       6.371   4.056  13.889  0.00  0.00    +0.000 A 
ATOM      8 BR   UNL     1       6.153   3.352  12.175  0.00  0.00    +0.000 Br
ATOM      9  S   UNL     1       5.523   3.533  15.262  0.00  0.00    +0.000 S 
ENDBRANCH   2   4
BRANCH   1  10
ATOM     10  C   UNL     1       4.190   6.245  17.225  0.00  0.00    +0.000 C 
ATOM     11  C   UNL     1       3.282   7.348  17.744  0.00  0.00    +0.000 C 
ENDBRANCH   1  10
BRANCH   1  12
ATOM     12  C   UNL     1       4.713   5.371  19.575  0.00  0.00    +0.000 C 
BRANCH  12  13
ATOM     13  C   UNL     1       3.718   4.223  19.887  0.00  0.00    +0.000 C 
BRANCH  13  15
ATOM     14  C   UNL     1       1.140   4.213  19.887  0.00  0.00    +0.000 C 
ATOM     15  C   UNL     1       2.415   4.742  20.526  0.00  0.00    +0.000 C 
ENDBRANCH  13  15
BRANCH  13  16
ATOM     16  C   UNL     1       3.462   3.365  18.623  0.00  0.00    +0.000 C 
ATOM     17  C   UNL     1       3.813   1.888  18.754  0.00  0.00    +0.000 C 
ENDBRANCH  13  16
ENDBRANCH  12  13
ENDBRANCH   1  12
TORSDOF 6
ENDMDL
MODEL 6
REMARK VINA RESULT:      -5.6      1.272      2.078
REMARK  Name = 
REMARK  9 active torsions:
REMARK  status: ('A' for Active; 'I' for Inactive)
REMARK    1  A    between atoms: C_1  and  C_2
REMARK    2  A    between atoms: C_2  and  C_3
REMARK    3  A    between atoms: C_3  and  C_4
REMARK    4  A    between atoms: C_3  and  C_6
REMARK    5  A    between atoms: C_4  and  C_5
REMARK    6  A    between atoms: C_6  and  N_7
REMARK    7  A    between atoms: N_7  and  C_8
REMARK    8  A    between atoms: C_8  and  C_9
REMARK    9  A    between atoms: C_10  and  C_12
REMARK                            x       y       z     vdW  Elec       q    Type
REMARK                         _______ _______ _______ _____ _____    ______ ____
ROOT
ATOM      1  N   UNL     1       4.571   5.673  18.328  0.00  0.00    +0.000 N 
ATOM      2  C   UNL     1       5.579   4.719  18.002  0.00  0.00    +0.000 C 
ATOM      3  O   UNL     1       6.005   3.963  18.880  0.00  0.00    +0.000 OA
ENDROOT
BRANCH   2   4
ATOM      4  C   UNL     1       6.093   4.657  16.617  0.00  0.00    +0.000 A 
ATOM      5  N   UNL     1       7.201   5.240  16.184  0.00  0.00    +0.000 NA
ATOM      6  C   UNL     1       7.386   4.974  14.840  0.00  0.00    +0.000 A 
ATOM      7  C   UNL     1       6.409   4.196  14.273  0.00  0.00    +0.000 A 
ATOM      8 BR   UNL     1       6.408   3.648  12.489  0.00  0.00    +0.000 Br
ATOM      9  S   UNL     1       5.207   3.804  15.404  0.00  0.00    +0.000 S 
ENDBRANCH   2   4
BRANCH   1  10
ATOM     10  C   UNL     1       4.062   6.614  17.319  0.00  0.00    +0.000 C 
ATOM     11  C   UNL     1       3.140   7.748  17.734  0.00  0.00    +0.000 C 
ENDBRANCH   1  10
BRANCH   1  12
ATOM     12  C   UNL     1       3.913   5.535  19.637  0.00  0.00    +0.000 C 
BRANCH  12  13
ATOM     13  C   UNL     1       2.766   4.492  19.684  0.00  0.00    +0.000 C 
BRANCH  13  15
ATOM     14  C   UNL     1       1.547   6.463  20.811  0.00  0.00    +0.000 C 
ATOM     15  C   UNL     1       1.588   4.964  20.558  0.00  0.00    +0.000 C 
ENDBRANCH  13  15
BRANCH  13  16
ATOM     16  C   UNL     1       2.327   4.099  18.252  0.00  0.00    +0.000 C 
ATOM     17  C   UNL     1       2.103   2.609  18.021  0.00  0.00    +0.000 C 
ENDBRANCH  13  16
ENDBRANCH  12  13
ENDBRANCH   1  12
TORSDOF 6
ENDMDL
MODEL 7
REMARK VINA RESULT:      -5.6      1.786      2.897
REMARK  Name = 
REMARK  9 active torsions:
REMARK  status: ('A' for Active; 'I' for Inactive)
REMARK    1  A    between atoms: C_1  and  C_2
REMARK    2  A    between atoms: C_2  and  C_3
REMARK    3  A    between atoms: C_3  and  C_4
REMARK    4  A    between atoms: C_3  and  C_6
REMARK    5  A    between atoms: C_4  and  C_5
REMARK    6  A    between atoms: C_6  and  N_7
REMARK    7  A    between atoms: N_7  and  C_8
REMARK    8  A    between atoms: C_8  and  C_9
REMARK    9  A    between atoms: C_10  and  C_12
REMARK                            x       y       z     vdW  Elec       q    Type
REMARK                         _______ _______ _______ _____ _____    ______ ____
ROOT
ATOM      1  N   UNL     1       4.557   4.965  18.206  0.00  0.00    +0.000 N 
ATOM      2  C   UNL     1       5.104   5.883  17.262  0.00  0.00    +0.000 C 
ATOM      3  O   UNL     1       4.986   7.096  17.458  0.00  0.00    +0.000 OA
ENDROOT
BRANCH   2   4
ATOM      4  C   UNL     1       5.802   5.360  16.068  0.00  0.00    +0.000 A 
ATOM      5  N   UNL     1       7.105   5.443  15.845  0.00  0.00    +0.000 NA
ATOM      6  C   UNL     1       7.422   4.849  14.639  0.00  0.00    +0.000 A 
ATOM      7  C   UNL     1       6.350   4.327  13.961  0.00  0.00    +0.000 A 
ATOM      8 BR   UNL     1       6.473   3.438  12.325  0.00  0.00    +0.000 Br
ATOM      9  S   UNL     1       4.903   4.601  14.804  0.00  0.00    +0.000 S 
ENDBRANCH   2   4
BRANCH   1  10
ATOM     10  C   UNL     1       4.647   3.513  17.992  0.00  0.00    +0.000 C 
ATOM     11  C   UNL     1       3.386   2.700  17.751  0.00  0.00    +0.000 C 
ENDBRANCH   1  10
BRANCH   1  12
ATOM     12  C   UNL     1       4.099   5.516  19.491  0.00  0.00    +0.000 C 
BRANCH  12  13
ATOM     13  C   UNL     1       2.577   5.806  19.570  0.00  0.00    +0.000 C 
BRANCH  13  15
ATOM     14  C   UNL     1       0.969   3.928  20.299  0.00  0.00    +0.000 C 
ATOM     15  C   UNL     1       1.901   5.049  20.731  0.00  0.00    +0.000 C 
ENDBRANCH  13  15
BRANCH  13  16
ATOM     16  C   UNL     1       2.314   7.331  19.619  0.00  0.00    +0.000 C 
ATOM     17  C   UNL     1       1.472   7.812  20.796  0.00  0.00    +0.000 C 
ENDBRANCH  13  16
ENDBRANCH  12  13
ENDBRANCH   1  12
TORSDOF 6
ENDMDL
MODEL 8
REMARK VINA RESULT:      -5.6      1.488      2.531
REMARK  Name = 
REMARK  9 active torsions:
REMARK  status: ('A' for Active; 'I' for Inactive)
REMARK    1  A    between atoms: C_1  and  C_2
REMARK    2  A    between atoms: C_2  and  C_3
REMARK    3  A    between atoms: C_3  and  C_4
REMARK    4  A    between atoms: C_3  and  C_6
REMARK    5  A    between atoms: C_4  and  C_5
REMARK    6  A    between atoms: C_6  and  N_7
REMARK    7  A    between atoms: N_7  and  C_8
REMARK    8  A    between atoms: C_8  and  C_9
REMARK    9  A    between atoms: C_10  and  C_12
REMARK                            x       y       z     vdW  Elec       q    Type
REMARK                         _______ _______ _______ _____ _____    ______ ____
ROOT
ATOM      1  N   UNL     1       3.732   4.447  18.530  0.00  0.00    +0.000 N 
ATOM      2  C   UNL     1       4.951   5.037  18.085  0.00  0.00    +0.000 C 
ATOM      3  O   UNL     1       5.725   5.526  18.913  0.00  0.00    +0.000 OA
ENDROOT
BRANCH   2   4
ATOM      4  C   UNL     1       5.261   5.048  16.639  0.00  0.00    +0.000 A 
ATOM      5  N   UNL     1       5.145   6.098  15.839  0.00  0.00    +0.000 NA
ATOM      6  C   UNL     1       5.522   5.762  14.553  0.00  0.00    +0.000 A 
ATOM      7  C   UNL     1       5.915   4.457  14.397  0.00  0.00    +0.000 A 
ATOM      8 BR   UNL     1       6.507   3.724  12.786  0.00  0.00    +0.000 Br
ATOM      9  S   UNL     1       5.787   3.601  15.856  0.00  0.00    +0.000 S 
ENDBRANCH   2   4
BRANCH   1  10
ATOM     10  C   UNL     1       2.768   3.884  17.573  0.00  0.00    +0.000 C 
ATOM     11  C   UNL     1       2.406   2.410  17.638  0.00  0.00    +0.000 C 
ENDBRANCH   1  10
BRANCH   1  12
ATOM     12  C   UNL     1       3.579   4.231  19.978  0.00  0.00    +0.000 C 
BRANCH  12  13
ATOM     13  C   UNL     1       2.426   5.032  20.638  0.00  0.00    +0.000 C 
BRANCH  13  15
ATOM     14  C   UNL     1       1.477   7.421  20.837  0.00  0.00    +0.000 C 
ATOM     15  C   UNL     1       2.230   6.413  19.982  0.00  0.00    +0.000 C 
ENDBRANCH  13  15
BRANCH  13  16
ATOM     16  C   UNL     1       1.125   4.194  20.665  0.00  0.00    +0.000 C 
ATOM     17  C   UNL     1       1.266   2.785  21.231  0.00  0.00    +0.000 C 
ENDBRANCH  13  16
ENDBRANCH  12  13
ENDBRANCH   1  12
TORSDOF 6
ENDMDL
MODEL 9
REMARK VINA RESULT:      -5.5      1.155      1.242
REMARK  Name = 
REMARK  9 active torsions:
REMARK  status: ('A' for Active; 'I' for Inactive)
REMARK    1  A    between atoms: C_1  and  C_2
REMARK    2  A    between atoms: C_2  and  C_3
REMARK    3  A    between atoms: C_3  and  C_4
REMARK    4  A    between atoms: C_3  and  C_6
REMARK    5  A    between atoms: C_4  and  C_5
REMARK    6  A    between atoms: C_6  and  N_7
REMARK    7  A    between atoms: N_7  and  C_8
REMARK    8  A    between atoms: C_8  and  C_9
REMARK    9  A    between atoms: C_10  and  C_12
REMARK                            x       y       z     vdW  Elec       q    Type
REMARK                         _______ _______ _______ _____ _____    ______ ____
ROOT
ATOM      1  N   UNL     1       3.838   5.317  18.662  0.00  0.00    +0.000 N 
ATOM      2  C   UNL     1       4.812   4.358  18.259  0.00  0.00    +0.000 C 
ATOM      3  O   UNL     1       5.176   3.491  19.059  0.00  0.00    +0.000 OA
ENDROOT
BRANCH   2   4
ATOM      4  C   UNL     1       5.366   4.423  16.890  0.00  0.00    +0.000 A 
ATOM      5  N   UNL     1       4.815   3.879  15.815  0.00  0.00    +0.000 NA
ATOM      6  C   UNL     1       5.590   4.134  14.700  0.00  0.00    +0.000 A 
ATOM      7  C   UNL     1       6.723   4.866  14.949  0.00  0.00    +0.000 A 
ATOM      8 BR   UNL     1       7.944   5.390  13.639  0.00  0.00    +0.000 Br
ATOM      9  S   UNL     1       6.868   5.224  16.601  0.00  0.00    +0.000 S 
ENDBRANCH   2   4
BRANCH   1  10
ATOM     10  C   UNL     1       3.403   6.386  17.750  0.00  0.00    +0.000 C 
ATOM     11  C   UNL     1       2.664   7.597  18.296  0.00  0.00    +0.000 C 
ENDBRANCH   1  10
BRANCH   1  12
ATOM     12  C   UNL     1       3.135   5.069  19.931  0.00  0.00    +0.000 C 
BRANCH  12  13
ATOM     13  C   UNL     1       1.686   4.535  19.779  0.00  0.00    +0.000 C 
BRANCH  13  15
ATOM     14  C   UNL     1       1.579   2.391  18.353  0.00  0.00    +0.000 C 
ATOM     15  C   UNL     1       1.442   3.904  18.393  0.00  0.00    +0.000 C 
ENDBRANCH  13  15
BRANCH  13  16
ATOM     16  C   UNL     1       1.334   3.575  20.941  0.00  0.00    +0.000 C 
ATOM     17  C   UNL     1       2.526   2.967  21.671  0.00  0.00    +0.000 C 
ENDBRANCH  13  16
ENDBRANCH  12  13
ENDBRANCH   1  12
TORSDOF 6
ENDMDL
