MODEL 1
REMARK VINA RESULT:      -7.9      0.000      0.000
REMARK  Name = 
REMARK  3 active torsions:
REMARK  status: ('A' for Active; 'I' for Inactive)
REMARK    1  A    between atoms: C_1  and  C_2
REMARK    2  A    between atoms: C_6  and  C_7
REMARK    3  A    between atoms: C_14  and  C_15
REMARK                            x       y       z     vdW  Elec       q    Type
REMARK                         _______ _______ _______ _____ _____    ______ ____
ROOT
ATOM      1  C   UNL     1       1.663   2.391  18.274  0.00  0.00    +0.000 C 
ATOM      2  C   UNL     1       3.115   2.808  18.201  0.00  0.00    +0.000 C 
ATOM      3  O   UNL     1       4.015   1.990  18.020  0.00  0.00    +0.000 OA
ATOM      4  N   UNL     1       3.330   4.161  18.313  0.00  0.00    +0.000 N 
ATOM      5  N   UNL     1       2.332   5.039  18.592  0.00  0.00    +0.000 NA
ATOM      6  C   UNL     1       2.936   6.179  18.681  0.00  0.00    +0.000 C 
ATOM      7  O   UNL     1       4.279   6.206  18.486  0.00  0.00    +0.000 OA
ATOM      8  C   UNL     1       4.619   4.829  18.247  0.00  0.00    +0.000 C 
ENDROOT
BRANCH   8   9
ATOM      9  C   UNL     1       5.297   4.704  16.896  0.00  0.00    +0.000 A 
ATOM     10  C   UNL     1       4.505   4.585  15.734  0.00  0.00    +0.000 A 
ATOM     11  C   UNL     1       5.085   4.400  14.478  0.00  0.00    +0.000 A 
ATOM     12  C   UNL     1       6.469   4.337  14.362  0.00  0.00    +0.000 A 
ATOM     13 CL   UNL     1       7.183   4.086  12.817  0.00  0.00    +0.000 Cl
ATOM     14  C   UNL     1       7.276   4.472  15.486  0.00  0.00    +0.000 A 
ATOM     15  C   UNL     1       6.694   4.661  16.746  0.00  0.00    +0.000 A 
ATOM     16 CL   UNL     1       7.773   4.839  18.085  0.00  0.00    +0.000 Cl
ENDBRANCH   8   9
BRANCH   6  17
ATOM     17  C   UNL     1       2.278   7.455  18.962  0.00  0.00    +0.000 A 
ATOM     18  C   UNL     1       1.808   7.694  20.252  0.00  0.00    +0.000 A 
ATOM     19  C   UNL     1       1.165   8.890  20.499  0.00  0.00    +0.000 A 
ATOM     20  N   UNL     1       0.967   9.833  19.554  0.00  0.00    +0.000 NA
ATOM     21  C   UNL     1       1.434   9.573  18.313  0.00  0.00    +0.000 A 
ATOM     22  C   UNL     1       2.097   8.411  17.966  0.00  0.00    +0.000 A 
ENDBRANCH   6  17
TORSDOF 2
ENDMDL
MODEL 2
REMARK VINA RESULT:      -7.9      0.937      1.413
REMARK  Name = 
REMARK  3 active torsions:
REMARK  status: ('A' for Active; 'I' for Inactive)
REMARK    1  A    between atoms: C_1  and  C_2
REMARK    2  A    between atoms: C_6  and  C_7
REMARK    3  A    between atoms: C_14  and  C_15
REMARK                            x       y       z     vdW  Elec       q    Type
REMARK                         _______ _______ _______ _____ _____    ______ ____
ROOT
ATOM      1  C   UNL     1       1.802   2.427  19.673  0.00  0.00    +0.000 C 
ATOM      2  C   UNL     1       3.205   2.954  19.476  0.00  0.00    +0.000 C 
ATOM      3  O   UNL     1       4.166   2.199  19.337  0.00  0.00    +0.000 OA
ATOM      4  N   UNL     1       3.303   4.324  19.427  0.00  0.00    +0.000 N 
ATOM      5  N   UNL     1       2.243   5.141  19.661  0.00  0.00    +0.000 NA
ATOM      6  C   UNL     1       2.745   6.331  19.591  0.00  0.00    +0.000 C 
ATOM      7  O   UNL     1       4.071   6.448  19.321  0.00  0.00    +0.000 OA
ATOM      8  C   UNL     1       4.522   5.087  19.217  0.00  0.00    +0.000 C 
ENDROOT
BRANCH   8   9
ATOM      9  C   UNL     1       5.148   4.866  17.853  0.00  0.00    +0.000 A 
ATOM     10  C   UNL     1       4.321   4.533  16.760  0.00  0.00    +0.000 A 
ATOM     11  C   UNL     1       4.859   4.256  15.503  0.00  0.00    +0.000 A 
ATOM     12  C   UNL     1       6.236   4.311  15.317  0.00  0.00    +0.000 A 
ATOM     13 CL   UNL     1       6.902   3.946  13.772  0.00  0.00    +0.000 Cl
ATOM     14  C   UNL     1       7.075   4.657  16.370  0.00  0.00    +0.000 A 
ATOM     15  C   UNL     1       6.534   4.939  17.631  0.00  0.00    +0.000 A 
ATOM     16 CL   UNL     1       7.648   5.378  18.878  0.00  0.00    +0.000 Cl
ENDBRANCH   8   9
BRANCH   6  17
ATOM     17  C   UNL     1       1.988   7.570  19.765  0.00  0.00    +0.000 A 
ATOM     18  C   UNL     1       1.894   8.452  18.691  0.00  0.00    +0.000 A 
ATOM     19  C   UNL     1       1.200   9.631  18.876  0.00  0.00    +0.000 A 
ATOM     20  N   UNL     1       0.614   9.970  20.044  0.00  0.00    +0.000 NA
ATOM     21  C   UNL     1       0.722   9.094  21.067  0.00  0.00    +0.000 A 
ATOM     22  C   UNL     1       1.388   7.886  20.982  0.00  0.00    +0.000 A 
ENDBRANCH   6  17
TORSDOF 2
ENDMDL
MODEL 3
REMARK VINA RESULT:      -7.7      3.298      4.726
REMARK  Name = 
REMARK  3 active torsions:
REMARK  status: ('A' for Active; 'I' for Inactive)
REMARK    1  A    between atoms: C_1  and  C_2
REMARK    2  A    between atoms: C_6  and  C_7
REMARK    3  A    between atoms: C_14  and  C_15
REMARK                            x       y       z     vdW  Elec       q    Type
REMARK                         _______ _______ _______ _____ _____    ______ ____
ROOT
ATOM      1  C   UNL     1       5.626   4.079  14.144  0.00  0.00    +0.000 C 
ATOM      2  C   UNL     1       6.522   4.345  15.333  0.00  0.00    +0.000 C 
ATOM      3  O   UNL     1       7.721   4.583  15.200  0.00  0.00    +0.000 OA
ATOM      4  N   UNL     1       5.881   4.334  16.548  0.00  0.00    +0.000 N 
ATOM      5  N   UNL     1       4.574   3.991  16.682  0.00  0.00    +0.000 NA
ATOM      6  C   UNL     1       4.368   4.037  17.958  0.00  0.00    +0.000 C 
ATOM      7  O   UNL     1       5.407   4.389  18.759  0.00  0.00    +0.000 OA
ATOM      8  C   UNL     1       6.496   4.589  17.841  0.00  0.00    +0.000 C 
ENDROOT
BRANCH   8   9
ATOM      9  C   UNL     1       7.030   6.000  17.990  0.00  0.00    +0.000 A 
ATOM     10  C   UNL     1       6.559   7.012  17.127  0.00  0.00    +0.000 A 
ATOM     11  C   UNL     1       7.071   8.309  17.184  0.00  0.00    +0.000 A 
ATOM     12  C   UNL     1       8.060   8.618  18.111  0.00  0.00    +0.000 A 
ATOM     13 CL   UNL     1       8.708  10.211  18.166  0.00  0.00    +0.000 Cl
ATOM     14  C   UNL     1       8.529   7.647  18.990  0.00  0.00    +0.000 A 
ATOM     15  C   UNL     1       8.012   6.346  18.934  0.00  0.00    +0.000 A 
ATOM     16 CL   UNL     1       8.638   5.209  20.076  0.00  0.00    +0.000 Cl
ENDBRANCH   8   9
BRANCH   6  17
ATOM     17  C   UNL     1       3.090   3.753  18.611  0.00  0.00    +0.000 A 
ATOM     18  C   UNL     1       2.253   2.790  18.050  0.00  0.00    +0.000 A 
ATOM     19  C   UNL     1       1.039   2.550  18.659  0.00  0.00    +0.000 A 
ATOM     20  N   UNL     1       0.622   3.203  19.765  0.00  0.00    +0.000 NA
ATOM     21  C   UNL     1       1.455   4.131  20.286  0.00  0.00    +0.000 A 
ATOM     22  C   UNL     1       2.694   4.440  19.756  0.00  0.00    +0.000 A 
ENDBRANCH   6  17
TORSDOF 2
ENDMDL
MODEL 4
REMARK VINA RESULT:      -7.7      3.200      4.659
REMARK  Name = 
REMARK  3 active torsions:
REMARK  status: ('A' for Active; 'I' for Inactive)
REMARK    1  A    between atoms: C_1  and  C_2
REMARK    2  A    between atoms: C_6  and  C_7
REMARK    3  A    between atoms: C_14  and  C_15
REMARK                            x       y       z     vdW  Elec       q    Type
REMARK                         _______ _______ _______ _____ _____    ______ ____
ROOT
ATOM      1  C   UNL     1       5.542   4.180  14.068  0.00  0.00    +0.000 C 
ATOM      2  C   UNL     1       6.445   4.412  15.259  0.00  0.00    +0.000 C 
ATOM      3  O   UNL     1       7.646   4.640  15.126  0.00  0.00    +0.000 OA
ATOM      4  N   UNL     1       5.808   4.384  16.477  0.00  0.00    +0.000 N 
ATOM      5  N   UNL     1       4.498   4.052  16.609  0.00  0.00    +0.000 NA
ATOM      6  C   UNL     1       4.298   4.076  17.886  0.00  0.00    +0.000 C 
ATOM      7  O   UNL     1       5.343   4.400  18.689  0.00  0.00    +0.000 OA
ATOM      8  C   UNL     1       6.431   4.606  17.771  0.00  0.00    +0.000 C 
ENDROOT
BRANCH   8   9
ATOM      9  C   UNL     1       6.980   6.008  17.947  0.00  0.00    +0.000 A 
ATOM     10  C   UNL     1       6.513   7.043  17.109  0.00  0.00    +0.000 A 
ATOM     11  C   UNL     1       7.039   8.333  17.190  0.00  0.00    +0.000 A 
ATOM     12  C   UNL     1       8.039   8.612  18.115  0.00  0.00    +0.000 A 
ATOM     13 CL   UNL     1       8.704  10.197  18.199  0.00  0.00    +0.000 Cl
ATOM     14  C   UNL     1       8.504   7.618  18.969  0.00  0.00    +0.000 A 
ATOM     15  C   UNL     1       7.974   6.324  18.890  0.00  0.00    +0.000 A 
ATOM     16 CL   UNL     1       8.597   5.156  20.002  0.00  0.00    +0.000 Cl
ENDBRANCH   8   9
BRANCH   6  17
ATOM     17  C   UNL     1       3.019   3.792  18.538  0.00  0.00    +0.000 A 
ATOM     18  C   UNL     1       2.592   4.633  19.564  0.00  0.00    +0.000 A 
ATOM     19  C   UNL     1       1.397   4.340  20.189  0.00  0.00    +0.000 A 
ATOM     20  N   UNL     1       0.628   3.281  19.859  0.00  0.00    +0.000 NA
ATOM     21  C   UNL     1       1.069   2.484  18.861  0.00  0.00    +0.000 A 
ATOM     22  C   UNL     1       2.246   2.695  18.168  0.00  0.00    +0.000 A 
ENDBRANCH   6  17
TORSDOF 2
ENDMDL
MODEL 5
REMARK VINA RESULT:      -7.7      3.410      6.728
REMARK  Name = 
REMARK  3 active torsions:
REMARK  status: ('A' for Active; 'I' for Inactive)
REMARK    1  A    between atoms: C_1  and  C_2
REMARK    2  A    between atoms: C_6  and  C_7
REMARK    3  A    between atoms: C_14  and  C_15
REMARK                            x       y       z     vdW  Elec       q    Type
REMARK                         _______ _______ _______ _____ _____    ______ ____
ROOT
ATOM      1  C   UNL     1       8.208   7.226  18.561  0.00  0.00    +0.000 C 
ATOM      2  C   UNL     1       7.484   5.943  18.899  0.00  0.00    +0.000 C 
ATOM      3  O   UNL     1       7.278   5.603  20.063  0.00  0.00    +0.000 OA
ATOM      4  N   UNL     1       7.050   5.224  17.811  0.00  0.00    +0.000 N 
ATOM      5  N   UNL     1       7.355   5.574  16.535  0.00  0.00    +0.000 NA
ATOM      6  C   UNL     1       6.833   4.632  15.819  0.00  0.00    +0.000 C 
ATOM      7  O   UNL     1       6.172   3.635  16.462  0.00  0.00    +0.000 OA
ATOM      8  C   UNL     1       6.305   3.976  17.853  0.00  0.00    +0.000 C 
ENDROOT
BRANCH   8   9
ATOM      9  C   UNL     1       4.927   4.114  18.472  0.00  0.00    +0.000 A 
ATOM     10  C   UNL     1       4.523   3.202  19.469  0.00  0.00    +0.000 A 
ATOM     11  C   UNL     1       3.241   3.249  20.018  0.00  0.00    +0.000 A 
ATOM     12  C   UNL     1       2.342   4.216  19.582  0.00  0.00    +0.000 A 
ATOM     13 CL   UNL     1       0.753   4.261  20.243  0.00  0.00    +0.000 Cl
ATOM     14  C   UNL     1       2.718   5.143  18.616  0.00  0.00    +0.000 A 
ATOM     15  C   UNL     1       4.007   5.097  18.068  0.00  0.00    +0.000 A 
ATOM     16 CL   UNL     1       4.395   6.298  16.888  0.00  0.00    +0.000 Cl
ENDBRANCH   8   9
BRANCH   6  17
ATOM     17  C   UNL     1       6.885   4.563  14.359  0.00  0.00    +0.000 A 
ATOM     18  C   UNL     1       6.077   3.636  13.704  0.00  0.00    +0.000 A 
ATOM     19  C   UNL     1       6.154   3.562  12.329  0.00  0.00    +0.000 A 
ATOM     20  N   UNL     1       6.976   4.338  11.590  0.00  0.00    +0.000 NA
ATOM     21  C   UNL     1       7.748   5.228  12.253  0.00  0.00    +0.000 A 
ATOM     22  C   UNL     1       7.739   5.385  13.626  0.00  0.00    +0.000 A 
ENDBRANCH   6  17
TORSDOF 2
ENDMDL
MODEL 6
REMARK VINA RESULT:      -7.6      3.476      6.702
REMARK  Name = 
REMARK  3 active torsions:
REMARK  status: ('A' for Active; 'I' for Inactive)
REMARK    1  A    between atoms: C_1  and  C_2
REMARK    2  A    between atoms: C_6  and  C_7
REMARK    3  A    between atoms: C_14  and  C_15
REMARK                            x       y       z     vdW  Elec       q    Type
REMARK                         _______ _______ _______ _____ _____    ______ ____
ROOT
ATOM      1  C   UNL     1       8.217   7.060  18.565  0.00  0.00    +0.000 C 
ATOM      2  C   UNL     1       7.375   5.859  18.930  0.00  0.00    +0.000 C 
ATOM      3  O   UNL     1       7.134   5.568  20.100  0.00  0.00    +0.000 OA
ATOM      4  N   UNL     1       6.879   5.157  17.856  0.00  0.00    +0.000 N 
ATOM      5  N   UNL     1       7.221   5.446  16.574  0.00  0.00    +0.000 NA
ATOM      6  C   UNL     1       6.615   4.540  15.878  0.00  0.00    +0.000 C 
ATOM      7  O   UNL     1       5.863   3.625  16.541  0.00  0.00    +0.000 OA
ATOM      8  C   UNL     1       6.021   3.986  17.924  0.00  0.00    +0.000 C 
ENDROOT
BRANCH   8   9
ATOM      9  C   UNL     1       4.660   4.266  18.531  0.00  0.00    +0.000 A 
ATOM     10  C   UNL     1       3.973   5.445  18.172  0.00  0.00    +0.000 A 
ATOM     11  C   UNL     1       2.750   5.777  18.756  0.00  0.00    +0.000 A 
ATOM     12  C   UNL     1       2.190   4.931  19.708  0.00  0.00    +0.000 A 
ATOM     13 CL   UNL     1       0.693   5.352  20.445  0.00  0.00    +0.000 Cl
ATOM     14  C   UNL     1       2.834   3.751  20.066  0.00  0.00    +0.000 A 
ATOM     15  C   UNL     1       4.060   3.417  19.477  0.00  0.00    +0.000 A 
ATOM     16 CL   UNL     1       4.779   1.924  19.968  0.00  0.00    +0.000 Cl
ENDBRANCH   8   9
BRANCH   6  17
ATOM     17  C   UNL     1       6.666   4.431  14.420  0.00  0.00    +0.000 A 
ATOM     18  C   UNL     1       5.762   3.585  13.782  0.00  0.00    +0.000 A 
ATOM     19  C   UNL     1       5.837   3.470  12.408  0.00  0.00    +0.000 A 
ATOM     20  N   UNL     1       6.744   4.132  11.658  0.00  0.00    +0.000 NA
ATOM     21  C   UNL     1       7.608   4.945  12.306  0.00  0.00    +0.000 A 
ATOM     22  C   UNL     1       7.610   5.135  13.675  0.00  0.00    +0.000 A 
ENDBRANCH   6  17
TORSDOF 2
ENDMDL
MODEL 7
REMARK VINA RESULT:      -7.6      3.411      6.752
REMARK  Name = 
REMARK  3 active torsions:
REMARK  status: ('A' for Active; 'I' for Inactive)
REMARK    1  A    between atoms: C_1  and  C_2
REMARK    2  A    between atoms: C_6  and  C_7
REMARK    3  A    between atoms: C_14  and  C_15
REMARK                            x       y       z     vdW  Elec       q    Type
REMARK                         _______ _______ _______ _____ _____    ______ ____
ROOT
ATOM      1  C   UNL     1       8.201   7.229  18.535  0.00  0.00    +0.000 C 
ATOM      2  C   UNL     1       7.481   5.948  18.891  0.00  0.00    +0.000 C 
ATOM      3  O   UNL     1       7.276   5.625  20.060  0.00  0.00    +0.000 OA
ATOM      4  N   UNL     1       7.051   5.212  17.814  0.00  0.00    +0.000 N 
ATOM      5  N   UNL     1       7.356   5.545  16.533  0.00  0.00    +0.000 NA
ATOM      6  C   UNL     1       6.837   4.591  15.831  0.00  0.00    +0.000 C 
ATOM      7  O   UNL     1       6.180   3.601  16.488  0.00  0.00    +0.000 OA
ATOM      8  C   UNL     1       6.310   3.963  17.873  0.00  0.00    +0.000 C 
ENDROOT
BRANCH   8   9
ATOM      9  C   UNL     1       4.932   4.105  18.490  0.00  0.00    +0.000 A 
ATOM     10  C   UNL     1       4.522   3.191  19.483  0.00  0.00    +0.000 A 
ATOM     11  C   UNL     1       3.238   3.242  20.029  0.00  0.00    +0.000 A 
ATOM     12  C   UNL     1       2.344   4.214  19.594  0.00  0.00    +0.000 A 
ATOM     13 CL   UNL     1       0.754   4.263  20.251  0.00  0.00    +0.000 Cl
ATOM     14  C   UNL     1       2.727   5.142  18.632  0.00  0.00    +0.000 A 
ATOM     15  C   UNL     1       4.016   5.092  18.086  0.00  0.00    +0.000 A 
ATOM     16 CL   UNL     1       4.412   6.296  16.911  0.00  0.00    +0.000 Cl
ENDBRANCH   8   9
BRANCH   6  17
ATOM     17  C   UNL     1       6.891   4.501  14.371  0.00  0.00    +0.000 A 
ATOM     18  C   UNL     1       7.744   5.359  13.680  0.00  0.00    +0.000 A 
ATOM     19  C   UNL     1       7.766   5.284  12.303  0.00  0.00    +0.000 A 
ATOM     20  N   UNL     1       7.001   4.426  11.595  0.00  0.00    +0.000 NA
ATOM     21  C   UNL     1       6.183   3.606  12.293  0.00  0.00    +0.000 A 
ATOM     22  C   UNL     1       6.093   3.598  13.672  0.00  0.00    +0.000 A 
ENDBRANCH   6  17
TORSDOF 2
ENDMDL
MODEL 8
REMARK VINA RESULT:      -7.6      3.282      6.639
REMARK  Name = 
REMARK  3 active torsions:
REMARK  status: ('A' for Active; 'I' for Inactive)
REMARK    1  A    between atoms: C_1  and  C_2
REMARK    2  A    between atoms: C_6  and  C_7
REMARK    3  A    between atoms: C_14  and  C_15
REMARK                            x       y       z     vdW  Elec       q    Type
REMARK                         _______ _______ _______ _____ _____    ______ ____
ROOT
ATOM      1  C   UNL     1       8.302   5.542  19.088  0.00  0.00    +0.000 C 
ATOM      2  C   UNL     1       6.832   5.189  19.121  0.00  0.00    +0.000 C 
ATOM      3  O   UNL     1       6.199   5.151  20.175  0.00  0.00    +0.000 OA
ATOM      4  N   UNL     1       6.269   4.956  17.889  0.00  0.00    +0.000 N 
ATOM      5  N   UNL     1       7.001   4.924  16.746  0.00  0.00    +0.000 NA
ATOM      6  C   UNL     1       6.139   4.617  15.832  0.00  0.00    +0.000 C 
ATOM      7  O   UNL     1       4.848   4.430  16.211  0.00  0.00    +0.000 OA
ATOM      8  C   UNL     1       4.876   4.631  17.635  0.00  0.00    +0.000 C 
ENDROOT
BRANCH   8   9
ATOM      9  C   UNL     1       3.916   5.744  18.006  0.00  0.00    +0.000 A 
ATOM     10  C   UNL     1       3.943   6.952  17.276  0.00  0.00    +0.000 A 
ATOM     11  C   UNL     1       3.125   8.027  17.624  0.00  0.00    +0.000 A 
ATOM     12  C   UNL     1       2.261   7.912  18.707  0.00  0.00    +0.000 A 
ATOM     13 CL   UNL     1       1.269   9.246  19.151  0.00  0.00    +0.000 Cl
ATOM     14  C   UNL     1       2.196   6.727  19.432  0.00  0.00    +0.000 A 
ATOM     15  C   UNL     1       3.014   5.646  19.080  0.00  0.00    +0.000 A 
ATOM     16 CL   UNL     1       2.855   4.207  20.023  0.00  0.00    +0.000 Cl
ENDBRANCH   8   9
BRANCH   6  17
ATOM     17  C   UNL     1       6.444   4.469  14.409  0.00  0.00    +0.000 A 
ATOM     18  C   UNL     1       5.682   3.582  13.651  0.00  0.00    +0.000 A 
ATOM     19  C   UNL     1       5.997   3.431  12.316  0.00  0.00    +0.000 A 
ATOM     20  N   UNL     1       7.006   4.096  11.713  0.00  0.00    +0.000 NA
ATOM     21  C   UNL     1       7.726   4.949  12.473  0.00  0.00    +0.000 A 
ATOM     22  C   UNL     1       7.487   5.177  13.816  0.00  0.00    +0.000 A 
ENDBRANCH   6  17
TORSDOF 2
ENDMDL
MODEL 9
REMARK VINA RESULT:      -7.5      3.495      6.727
REMARK  Name = 
REMARK  3 active torsions:
REMARK  status: ('A' for Active; 'I' for Inactive)
REMARK    1  A    between atoms: C_1  and  C_2
REMARK    2  A    between atoms: C_6  and  C_7
REMARK    3  A    between atoms: C_14  and  C_15
REMARK                            x       y       z     vdW  Elec       q    Type
REMARK                         _______ _______ _______ _____ _____    ______ ____
ROOT
ATOM      1  C   UNL     1       8.230   7.079  18.551  0.00  0.00    +0.000 C 
ATOM      2  C   UNL     1       7.392   5.877  18.923  0.00  0.00    +0.000 C 
ATOM      3  O   UNL     1       7.147   5.597  20.095  0.00  0.00    +0.000 OA
ATOM      4  N   UNL     1       6.906   5.162  17.855  0.00  0.00    +0.000 N 
ATOM      5  N   UNL     1       7.253   5.440  16.571  0.00  0.00    +0.000 NA
ATOM      6  C   UNL     1       6.656   4.524  15.882  0.00  0.00    +0.000 C 
ATOM      7  O   UNL     1       5.904   3.612  16.549  0.00  0.00    +0.000 OA
ATOM      8  C   UNL     1       6.054   3.987  17.929  0.00  0.00    +0.000 C 
ENDROOT
BRANCH   8   9
ATOM      9  C   UNL     1       4.688   4.267  18.527  0.00  0.00    +0.000 A 
ATOM     10  C   UNL     1       3.981   5.419  18.124  0.00  0.00    +0.000 A 
ATOM     11  C   UNL     1       2.752   5.751  18.697  0.00  0.00    +0.000 A 
ATOM     12  C   UNL     1       2.207   4.933  19.679  0.00  0.00    +0.000 A 
ATOM     13 CL   UNL     1       0.703   5.354  20.401  0.00  0.00    +0.000 Cl
ATOM     14  C   UNL     1       2.871   3.778  20.082  0.00  0.00    +0.000 A 
ATOM     15  C   UNL     1       4.103   3.443  19.504  0.00  0.00    +0.000 A 
ATOM     16 CL   UNL     1       4.848   1.983  20.050  0.00  0.00    +0.000 Cl
ENDBRANCH   8   9
BRANCH   6  17
ATOM     17  C   UNL     1       6.715   4.401  14.425  0.00  0.00    +0.000 A 
ATOM     18  C   UNL     1       7.615   5.200  13.723  0.00  0.00    +0.000 A 
ATOM     19  C   UNL     1       7.643   5.095  12.348  0.00  0.00    +0.000 A 
ATOM     20  N   UNL     1       6.841   4.261  11.652  0.00  0.00    +0.000 NA
ATOM     21  C   UNL     1       5.978   3.499  12.360  0.00  0.00    +0.000 A 
ATOM     22  C   UNL     1       5.878   3.524  13.738  0.00  0.00    +0.000 A 
ENDBRANCH   6  17
TORSDOF 2
ENDMDL
