MODEL 1
REMARK VINA RESULT:      -8.7      0.000      0.000
REMARK  Name = 
REMARK  6 active torsions:
REMARK  status: ('A' for Active; 'I' for Inactive)
REMARK    1  A    between atoms: C_1  and  C_2
REMARK    2  A    between atoms: C_2  and  N_3
REMARK    3  A    between atoms: C_2  and  C_20
REMARK    4  A    between atoms: C_4  and  C_6
REMARK    5  A    between atoms: C_6  and  N_7
REMARK    6  A    between atoms: C_10  and  C_11
REMARK                            x       y       z     vdW  Elec       q    Type
REMARK                         _______ _______ _______ _____ _____    ______ ____
ROOT
ATOM      1  N   UNL     1       3.849   4.937  19.149  0.00  0.00    +0.000 N 
ATOM      2  C   UNL     1       4.176   4.121  18.086  0.00  0.00    +0.000 C 
ATOM      3  O   UNL     1       3.330   3.498  17.446  0.00  0.00    +0.000 OA
ATOM      4  H   UNL     1       4.579   5.524  19.552  0.00  0.00    +0.000 HD
ENDROOT
BRANCH   1   6
ATOM      5  C   UNL     1       2.180   4.772  20.931  0.00  0.00    +0.000 C 
ATOM      6  C   UNL     1       2.472   5.231  19.500  0.00  0.00    +0.000 C 
BRANCH   6   7
ATOM      7  C   UNL     1       2.176   6.708  19.303  0.00  0.00    +0.000 A 
ATOM      8  C   UNL     1       2.361   7.307  18.044  0.00  0.00    +0.000 A 
ATOM      9  C   UNL     1       2.046   8.656  17.840  0.00  0.00    +0.000 A 
ATOM     10  C   UNL     1       1.561   9.423  18.896  0.00  0.00    +0.000 A 
ATOM     11 CL   UNL     1       1.141  11.071  18.628  0.00  0.00    +0.000 Cl
ATOM     12  C   UNL     1       1.415   8.848  20.156  0.00  0.00    +0.000 A 
ATOM     13  F   UNL     1       0.972   9.575  21.193  0.00  0.00    +0.000 F 
ATOM     14  C   UNL     1       1.717   7.505  20.364  0.00  0.00    +0.000 A 
ENDBRANCH   6   7
ENDBRANCH   1   6
BRANCH   2  15
ATOM     15  C   UNL     1       5.674   3.919  17.856  0.00  0.00    +0.000 C 
BRANCH  15  16
ATOM     16  N   UNL     1       6.085   4.281  16.517  0.00  0.00    +0.000 N 
ATOM     17  N   UNL     1       5.592   3.645  15.388  0.00  0.00    +0.000 NA
ATOM     18  C   UNL     1       6.308   4.128  14.414  0.00  0.00    +0.000 A 
ATOM     19  C   UNL     1       6.178   3.819  12.960  0.00  0.00    +0.000 A 
ATOM     20  C   UNL     1       7.043   4.473  12.166  0.00  0.00    +0.000 A 
ATOM     21  C   UNL     1       8.036   5.393  12.762  0.00  0.00    +0.000 A 
ATOM     22  N   UNL     1       8.153   5.662  14.022  0.00  0.00    +0.000 NA
ATOM     23  N   UNL     1       7.262   5.010  14.808  0.00  0.00    +0.000 N 
ATOM     24  C   UNL     1       7.165   5.116  16.179  0.00  0.00    +0.000 A 
ATOM     25  O   UNL     1       7.820   5.784  16.964  0.00  0.00    +0.000 OA
BRANCH  19  26
ATOM     26  C   UNL     1       5.112   2.911  12.492  0.00  0.00    +0.000 C 
ATOM     27  C   UNL     1       4.479   3.044  11.130  0.00  0.00    +0.000 C 
ATOM     28  C   UNL     1       5.442   1.925  11.398  0.00  0.00    +0.000 C 
ENDBRANCH  19  26
ENDBRANCH  15  16
ENDBRANCH   2  15
TORSDOF 5
ENDMDL
MODEL 2
REMARK VINA RESULT:      -8.5      0.854      1.256
REMARK  Name = 
REMARK  6 active torsions:
REMARK  status: ('A' for Active; 'I' for Inactive)
REMARK    1  A    between atoms: C_1  and  C_2
REMARK    2  A    between atoms: C_2  and  N_3
REMARK    3  A    between atoms: C_2  and  C_20
REMARK    4  A    between atoms: C_4  and  C_6
REMARK    5  A    between atoms: C_6  and  N_7
REMARK    6  A    between atoms: C_10  and  C_11
REMARK                            x       y       z     vdW  Elec       q    Type
REMARK                         _______ _______ _______ _____ _____    ______ ____
ROOT
ATOM      1  N   UNL     1       3.801   4.962  19.039  0.00  0.00    +0.000 N 
ATOM      2  C   UNL     1       4.241   4.031  18.121  0.00  0.00    +0.000 C 
ATOM      3  O   UNL     1       3.487   3.212  17.597  0.00  0.00    +0.000 OA
ATOM      4  H   UNL     1       4.447   5.694  19.336  0.00  0.00    +0.000 HD
ENDROOT
BRANCH   1   6
ATOM      5  C   UNL     1       2.044   4.411  20.651  0.00  0.00    +0.000 C 
ATOM      6  C   UNL     1       2.394   5.135  19.348  0.00  0.00    +0.000 C 
BRANCH   6   7
ATOM      7  C   UNL     1       2.038   6.611  19.401  0.00  0.00    +0.000 A 
ATOM      8  C   UNL     1       1.537   7.178  20.586  0.00  0.00    +0.000 A 
ATOM      9  C   UNL     1       1.251   8.546  20.662  0.00  0.00    +0.000 A 
ATOM     10  C   UNL     1       1.445   9.357  19.546  0.00  0.00    +0.000 A 
ATOM     11 CL   UNL     1       1.127  11.046  19.656  0.00  0.00    +0.000 Cl
ATOM     12  C   UNL     1       1.900   8.796  18.356  0.00  0.00    +0.000 A 
ATOM     13  F   UNL     1       2.071   9.554  17.262  0.00  0.00    +0.000 F 
ATOM     14  C   UNL     1       2.196   7.438  18.278  0.00  0.00    +0.000 A 
ENDBRANCH   6   7
ENDBRANCH   1   6
BRANCH   2  15
ATOM     15  C   UNL     1       5.755   3.984  17.914  0.00  0.00    +0.000 C 
BRANCH  15  16
ATOM     16  N   UNL     1       6.145   4.334  16.566  0.00  0.00    +0.000 N 
ATOM     17  N   UNL     1       5.662   3.664  15.452  0.00  0.00    +0.000 NA
ATOM     18  C   UNL     1       6.356   4.151  14.464  0.00  0.00    +0.000 A 
ATOM     19  C   UNL     1       6.223   3.812  13.017  0.00  0.00    +0.000 A 
ATOM     20  C   UNL     1       7.063   4.478  12.205  0.00  0.00    +0.000 A 
ATOM     21  C   UNL     1       8.033   5.437  12.777  0.00  0.00    +0.000 A 
ATOM     22  N   UNL     1       8.151   5.731  14.031  0.00  0.00    +0.000 NA
ATOM     23  N   UNL     1       7.286   5.067  14.835  0.00  0.00    +0.000 N 
ATOM     24  C   UNL     1       7.196   5.194  16.205  0.00  0.00    +0.000 A 
ATOM     25  O   UNL     1       7.838   5.895  16.973  0.00  0.00    +0.000 OA
BRANCH  19  26
ATOM     26  C   UNL     1       5.182   2.866  12.573  0.00  0.00    +0.000 C 
ATOM     27  C   UNL     1       4.411   3.056  11.291  0.00  0.00    +0.000 C 
ATOM     28  C   UNL     1       5.470   1.996  11.374  0.00  0.00    +0.000 C 
ENDBRANCH  19  26
ENDBRANCH  15  16
ENDBRANCH   2  15
TORSDOF 5
ENDMDL
MODEL 3
REMARK VINA RESULT:      -7.9      4.220      6.062
REMARK  Name = 
REMARK  6 active torsions:
REMARK  status: ('A' for Active; 'I' for Inactive)
REMARK    1  A    between atoms: C_1  and  C_2
REMARK    2  A    between atoms: C_2  and  N_3
REMARK    3  A    between atoms: C_2  and  C_20
REMARK    4  A    between atoms: C_4  and  C_6
REMARK    5  A    between atoms: C_6  and  N_7
REMARK    6  A    between atoms: C_10  and  C_11
REMARK                            x       y       z     vdW  Elec       q    Type
REMARK                         _______ _______ _______ _____ _____    ______ ____
ROOT
ATOM      1  N   UNL     1       0.935   8.615  19.594  0.00  0.00    +0.000 N 
ATOM      2  C   UNL     1       1.237   8.353  20.915  0.00  0.00    +0.000 C 
ATOM      3  O   UNL     1       1.648   9.221  21.683  0.00  0.00    +0.000 OA
ATOM      4  H   UNL     1       0.476   7.886  19.048  0.00  0.00    +0.000 HD
ENDROOT
BRANCH   1   6
ATOM      5  C   UNL     1       1.962  10.066  17.914  0.00  0.00    +0.000 C 
ATOM      6  C   UNL     1       0.946   9.961  19.054  0.00  0.00    +0.000 C 
BRANCH   6   7
ATOM      7  C   UNL     1      -0.450  10.369  18.613  0.00  0.00    +0.000 A 
ATOM      8  C   UNL     1      -1.138  11.391  19.290  0.00  0.00    +0.000 A 
ATOM      9  C   UNL     1      -2.404  11.807  18.862  0.00  0.00    +0.000 A 
ATOM     10  C   UNL     1      -3.003  11.192  17.765  0.00  0.00    +0.000 A 
ATOM     11 CL   UNL     1      -4.544  11.734  17.222  0.00  0.00    +0.000 Cl
ATOM     12  C   UNL     1      -2.347  10.151  17.115  0.00  0.00    +0.000 A 
ATOM     13  F   UNL     1      -2.915   9.528  16.071  0.00  0.00    +0.000 F 
ATOM     14  C   UNL     1      -1.083   9.739  17.529  0.00  0.00    +0.000 A 
ENDBRANCH   6   7
ENDBRANCH   1   6
BRANCH   2  15
ATOM     15  C   UNL     1       1.175   6.880  21.318  0.00  0.00    +0.000 C 
BRANCH  15  16
ATOM     16  N   UNL     1       1.881   6.019  20.395  0.00  0.00    +0.000 N 
ATOM     17  N   UNL     1       2.731   6.512  19.416  0.00  0.00    +0.000 NA
ATOM     18  C   UNL     1       3.034   5.465  18.704  0.00  0.00    +0.000 A 
ATOM     19  C   UNL     1       3.957   5.410  17.532  0.00  0.00    +0.000 A 
ATOM     20  C   UNL     1       4.100   4.189  16.987  0.00  0.00    +0.000 A 
ATOM     21  C   UNL     1       3.349   3.043  17.543  0.00  0.00    +0.000 A 
ATOM     22  N   UNL     1       2.547   3.089  18.557  0.00  0.00    +0.000 NA
ATOM     23  N   UNL     1       2.427   4.321  19.108  0.00  0.00    +0.000 N 
ATOM     24  C   UNL     1       1.644   4.647  20.195  0.00  0.00    +0.000 A 
ATOM     25  O   UNL     1       0.916   3.944  20.879  0.00  0.00    +0.000 OA
BRANCH  19  26
ATOM     26  C   UNL     1       4.679   6.623  17.104  0.00  0.00    +0.000 C 
ATOM     27  C   UNL     1       6.173   6.645  16.903  0.00  0.00    +0.000 C 
ATOM     28  C   UNL     1       5.261   6.656  15.712  0.00  0.00    +0.000 C 
ENDBRANCH  19  26
ENDBRANCH  15  16
ENDBRANCH   2  15
TORSDOF 5
ENDMDL
MODEL 4
REMARK VINA RESULT:      -7.8      4.181      5.894
REMARK  Name = 
REMARK  6 active torsions:
REMARK  status: ('A' for Active; 'I' for Inactive)
REMARK    1  A    between atoms: C_1  and  C_2
REMARK    2  A    between atoms: C_2  and  N_3
REMARK    3  A    between atoms: C_2  and  C_20
REMARK    4  A    between atoms: C_4  and  C_6
REMARK    5  A    between atoms: C_6  and  N_7
REMARK    6  A    between atoms: C_10  and  C_11
REMARK                            x       y       z     vdW  Elec       q    Type
REMARK                         _______ _______ _______ _____ _____    ______ ____
ROOT
ATOM      1  N   UNL     1       0.984   8.491  19.552  0.00  0.00    +0.000 N 
ATOM      2  C   UNL     1       1.314   8.194  20.858  0.00  0.00    +0.000 C 
ATOM      3  O   UNL     1       1.810   9.023  21.619  0.00  0.00    +0.000 OA
ATOM      4  H   UNL     1       0.458   7.801  19.016  0.00  0.00    +0.000 HD
ENDROOT
BRANCH   1   6
ATOM      5  C   UNL     1       2.032   9.886  17.836  0.00  0.00    +0.000 C 
ATOM      6  C   UNL     1       1.067   9.840  19.024  0.00  0.00    +0.000 C 
BRANCH   6   7
ATOM      7  C   UNL     1      -0.315  10.354  18.657  0.00  0.00    +0.000 A 
ATOM      8  C   UNL     1      -0.998   9.823  17.548  0.00  0.00    +0.000 A 
ATOM      9  C   UNL     1      -2.291  10.255  17.229  0.00  0.00    +0.000 A 
ATOM     10  C   UNL     1      -2.906  11.235  18.004  0.00  0.00    +0.000 A 
ATOM     11 CL   UNL     1      -4.510  11.735  17.629  0.00  0.00    +0.000 Cl
ATOM     12  C   UNL     1      -2.220  11.796  19.078  0.00  0.00    +0.000 A 
ATOM     13  F   UNL     1      -2.784  12.759  19.823  0.00  0.00    +0.000 F 
ATOM     14  C   UNL     1      -0.938  11.364  19.407  0.00  0.00    +0.000 A 
ENDBRANCH   6   7
ENDBRANCH   1   6
BRANCH   2  15
ATOM     15  C   UNL     1       1.167   6.724  21.250  0.00  0.00    +0.000 C 
BRANCH  15  16
ATOM     16  N   UNL     1       1.932   5.841  20.397  0.00  0.00    +0.000 N 
ATOM     17  N   UNL     1       2.885   6.307  19.504  0.00  0.00    +0.000 NA
ATOM     18  C   UNL     1       3.223   5.250  18.823  0.00  0.00    +0.000 A 
ATOM     19  C   UNL     1       4.251   5.165  17.744  0.00  0.00    +0.000 A 
ATOM     20  C   UNL     1       4.409   3.940  17.214  0.00  0.00    +0.000 A 
ATOM     21  C   UNL     1       3.576   2.817  17.695  0.00  0.00    +0.000 A 
ATOM     22  N   UNL     1       2.683   2.888  18.629  0.00  0.00    +0.000 NA
ATOM     23  N   UNL     1       2.547   4.125  19.167  0.00  0.00    +0.000 N 
ATOM     24  C   UNL     1       1.675   4.476  20.175  0.00  0.00    +0.000 A 
ATOM     25  O   UNL     1       0.866   3.796  20.786  0.00  0.00    +0.000 OA
BRANCH  19  26
ATOM     26  C   UNL     1       5.046   6.356  17.387  0.00  0.00    +0.000 C 
ATOM     27  C   UNL     1       6.329   6.265  16.600  0.00  0.00    +0.000 C 
ATOM     28  C   UNL     1       5.086   6.783  15.940  0.00  0.00    +0.000 C 
ENDBRANCH  19  26
ENDBRANCH  15  16
ENDBRANCH   2  15
TORSDOF 5
ENDMDL
MODEL 5
REMARK VINA RESULT:      -7.8      3.776      5.904
REMARK  Name = 
REMARK  6 active torsions:
REMARK  status: ('A' for Active; 'I' for Inactive)
REMARK    1  A    between atoms: C_1  and  C_2
REMARK    2  A    between atoms: C_2  and  N_3
REMARK    3  A    between atoms: C_2  and  C_20
REMARK    4  A    between atoms: C_4  and  C_6
REMARK    5  A    between atoms: C_6  and  N_7
REMARK    6  A    between atoms: C_10  and  C_11
REMARK                            x       y       z     vdW  Elec       q    Type
REMARK                         _______ _______ _______ _____ _____    ______ ____
ROOT
ATOM      1  N   UNL     1       1.181  10.000  18.737  0.00  0.00    +0.000 N 
ATOM      2  C   UNL     1       1.909   8.836  18.868  0.00  0.00    +0.000 C 
ATOM      3  O   UNL     1       1.841   8.122  19.868  0.00  0.00    +0.000 OA
ATOM      4  H   UNL     1       1.183  10.474  17.834  0.00  0.00    +0.000 HD
ENDROOT
BRANCH   1   6
ATOM      5  C   UNL     1       0.674  11.581  20.534  0.00  0.00    +0.000 C 
ATOM      6  C   UNL     1       0.176  10.393  19.707  0.00  0.00    +0.000 C 
BRANCH   6   7
ATOM      7  C   UNL     1      -1.143  10.692  19.015  0.00  0.00    +0.000 A 
ATOM      8  C   UNL     1      -2.010  11.671  19.532  0.00  0.00    +0.000 A 
ATOM      9  C   UNL     1      -3.205  11.989  18.876  0.00  0.00    +0.000 A 
ATOM     10  C   UNL     1      -3.555  11.316  17.707  0.00  0.00    +0.000 A 
ATOM     11 CL   UNL     1      -5.008  11.737  16.886  0.00  0.00    +0.000 Cl
ATOM     12  C   UNL     1      -2.723  10.316  17.212  0.00  0.00    +0.000 A 
ATOM     13  F   UNL     1      -3.052   9.639  16.102  0.00  0.00    +0.000 F 
ATOM     14  C   UNL     1      -1.529  10.002  17.854  0.00  0.00    +0.000 A 
ENDBRANCH   6   7
ENDBRANCH   1   6
BRANCH   2  15
ATOM     15  C   UNL     1       2.924   8.573  17.755  0.00  0.00    +0.000 C 
BRANCH  15  16
ATOM     16  N   UNL     1       3.212   7.166  17.584  0.00  0.00    +0.000 N 
ATOM     17  N   UNL     1       2.332   6.171  17.984  0.00  0.00    +0.000 NA
ATOM     18  C   UNL     1       3.005   5.068  17.816  0.00  0.00    +0.000 A 
ATOM     19  C   UNL     1       2.525   3.676  18.056  0.00  0.00    +0.000 A 
ATOM     20  C   UNL     1       3.428   2.717  17.787  0.00  0.00    +0.000 A 
ATOM     21  C   UNL     1       4.780   3.090  17.320  0.00  0.00    +0.000 A 
ATOM     22  N   UNL     1       5.199   4.296  17.114  0.00  0.00    +0.000 NA
ATOM     23  N   UNL     1       4.273   5.251  17.370  0.00  0.00    +0.000 N 
ATOM     24  C   UNL     1       4.454   6.611  17.231  0.00  0.00    +0.000 A 
ATOM     25  O   UNL     1       5.436   7.240  16.864  0.00  0.00    +0.000 OA
BRANCH  19  26
ATOM     26  C   UNL     1       1.133   3.438  18.484  0.00  0.00    +0.000 C 
ATOM     27  C   UNL     1       0.660   2.099  18.990  0.00  0.00    +0.000 C 
ATOM     28  C   UNL     1       0.861   3.231  19.953  0.00  0.00    +0.000 C 
ENDBRANCH  19  26
ENDBRANCH  15  16
ENDBRANCH   2  15
TORSDOF 5
ENDMDL
MODEL 6
REMARK VINA RESULT:      -7.7      9.277     13.375
REMARK  Name = 
REMARK  6 active torsions:
REMARK  status: ('A' for Active; 'I' for Inactive)
REMARK    1  A    between atoms: C_1  and  C_2
REMARK    2  A    between atoms: C_2  and  N_3
REMARK    3  A    between atoms: C_2  and  C_20
REMARK    4  A    between atoms: C_4  and  C_6
REMARK    5  A    between atoms: C_6  and  N_7
REMARK    6  A    between atoms: C_10  and  C_11
REMARK                            x       y       z     vdW  Elec       q    Type
REMARK                         _______ _______ _______ _____ _____    ______ ____
ROOT
ATOM      1  N   UNL     1      -2.753  12.275  18.456  0.00  0.00    +0.000 N 
ATOM      2  C   UNL     1      -3.722  11.329  18.194  0.00  0.00    +0.000 C 
ATOM      3  O   UNL     1      -3.449  10.186  17.831  0.00  0.00    +0.000 OA
ATOM      4  H   UNL     1      -3.039  13.159  18.878  0.00  0.00    +0.000 HD
ENDROOT
BRANCH   1   6
ATOM      5  C   UNL     1      -0.508  13.198  18.154  0.00  0.00    +0.000 C 
ATOM      6  C   UNL     1      -1.339  11.950  18.459  0.00  0.00    +0.000 C 
BRANCH   6   7
ATOM      7  C   UNL     1      -0.943  11.309  19.779  0.00  0.00    +0.000 A 
ATOM      8  C   UNL     1      -1.196  11.971  20.993  0.00  0.00    +0.000 A 
ATOM      9  C   UNL     1      -0.878  11.370  22.217  0.00  0.00    +0.000 A 
ATOM     10  C   UNL     1      -0.288  10.108  22.237  0.00  0.00    +0.000 A 
ATOM     11 CL   UNL     1       0.065   9.358  23.746  0.00  0.00    +0.000 Cl
ATOM     12  C   UNL     1       0.004   9.464  21.038  0.00  0.00    +0.000 A 
ATOM     13  F   UNL     1       0.594   8.259  21.034  0.00  0.00    +0.000 F 
ATOM     14  C   UNL     1      -0.318  10.052  19.818  0.00  0.00    +0.000 A 
ENDBRANCH   6   7
ENDBRANCH   1   6
BRANCH   2  15
ATOM     15  C   UNL     1      -5.162  11.842  18.235  0.00  0.00    +0.000 C 
BRANCH  15  16
ATOM     16  N   UNL     1      -5.607  12.149  19.576  0.00  0.00    +0.000 N 
ATOM     17  N   UNL     1      -4.864  12.932  20.447  0.00  0.00    +0.000 NA
ATOM     18  C   UNL     1      -5.504  12.841  21.578  0.00  0.00    +0.000 A 
ATOM     19  C   UNL     1      -5.165  13.522  22.861  0.00  0.00    +0.000 A 
ATOM     20  C   UNL     1      -6.007  13.260  23.876  0.00  0.00    +0.000 A 
ATOM     21  C   UNL     1      -7.144  12.338  23.668  0.00  0.00    +0.000 A 
ATOM     22  N   UNL     1      -7.439  11.744  22.557  0.00  0.00    +0.000 NA
ATOM     23  N   UNL     1      -6.593  12.032  21.539  0.00  0.00    +0.000 N 
ATOM     24  C   UNL     1      -6.678  11.540  20.254  0.00  0.00    +0.000 A 
ATOM     25  O   UNL     1      -7.490  10.773  19.758  0.00  0.00    +0.000 OA
BRANCH  19  26
ATOM     26  C   UNL     1      -4.023  14.455  22.922  0.00  0.00    +0.000 C 
ATOM     27  C   UNL     1      -3.633  15.173  24.190  0.00  0.00    +0.000 C 
ATOM     28  C   UNL     1      -2.795  14.033  23.691  0.00  0.00    +0.000 C 
ENDBRANCH  19  26
ENDBRANCH  15  16
ENDBRANCH   2  15
TORSDOF 5
ENDMDL
MODEL 7
REMARK VINA RESULT:      -7.6      7.395     12.363
REMARK  Name = 
REMARK  6 active torsions:
REMARK  status: ('A' for Active; 'I' for Inactive)
REMARK    1  A    between atoms: C_1  and  C_2
REMARK    2  A    between atoms: C_2  and  N_3
REMARK    3  A    between atoms: C_2  and  C_20
REMARK    4  A    between atoms: C_4  and  C_6
REMARK    5  A    between atoms: C_6  and  N_7
REMARK    6  A    between atoms: C_10  and  C_11
REMARK                            x       y       z     vdW  Elec       q    Type
REMARK                         _______ _______ _______ _____ _____    ______ ____
ROOT
ATOM      1  N   UNL     1      -1.304  10.903  19.305  0.00  0.00    +0.000 N 
ATOM      2  C   UNL     1      -1.693  11.767  18.303  0.00  0.00    +0.000 C 
ATOM      3  O   UNL     1      -0.994  12.709  17.934  0.00  0.00    +0.000 OA
ATOM      4  H   UNL     1      -1.867  10.069  19.473  0.00  0.00    +0.000 HD
ENDROOT
BRANCH   1   6
ATOM      5  C   UNL     1      -0.088  11.027  21.425  0.00  0.00    +0.000 C 
ATOM      6  C   UNL     1       0.019  10.957  19.899  0.00  0.00    +0.000 C 
BRANCH   6   7
ATOM      7  C   UNL     1       0.858   9.778  19.439  0.00  0.00    +0.000 A 
ATOM      8  C   UNL     1       1.415   9.763  18.148  0.00  0.00    +0.000 A 
ATOM      9  C   UNL     1       2.230   8.704  17.730  0.00  0.00    +0.000 A 
ATOM     10  C   UNL     1       2.480   7.640  18.594  0.00  0.00    +0.000 A 
ATOM     11 CL   UNL     1       3.512   6.358  18.087  0.00  0.00    +0.000 Cl
ATOM     12  C   UNL     1       1.898   7.625  19.858  0.00  0.00    +0.000 A 
ATOM     13  F   UNL     1       2.105   6.599  20.696  0.00  0.00    +0.000 F 
ATOM     14  C   UNL     1       1.095   8.680  20.283  0.00  0.00    +0.000 A 
ENDBRANCH   6   7
ENDBRANCH   1   6
BRANCH   2  15
ATOM     15  C   UNL     1      -3.119  11.569  17.789  0.00  0.00    +0.000 C 
BRANCH  15  16
ATOM     16  N   UNL     1      -4.120  11.912  18.776  0.00  0.00    +0.000 N 
ATOM     17  N   UNL     1      -3.792  12.341  20.053  0.00  0.00    +0.000 NA
ATOM     18  C   UNL     1      -4.936  12.389  20.674  0.00  0.00    +0.000 A 
ATOM     19  C   UNL     1      -5.179  12.828  22.079  0.00  0.00    +0.000 A 
ATOM     20  C   UNL     1      -6.467  12.790  22.464  0.00  0.00    +0.000 A 
ATOM     21  C   UNL     1      -7.502  12.314  21.522  0.00  0.00    +0.000 A 
ATOM     22  N   UNL     1      -7.294  11.930  20.304  0.00  0.00    +0.000 NA
ATOM     23  N   UNL     1      -5.995  11.992  19.924  0.00  0.00    +0.000 N 
ATOM     24  C   UNL     1      -5.498  11.647  18.684  0.00  0.00    +0.000 A 
ATOM     25  O   UNL     1      -6.078  11.230  17.694  0.00  0.00    +0.000 OA
BRANCH  19  26
ATOM     26  C   UNL     1      -4.059  13.322  22.903  0.00  0.00    +0.000 C 
ATOM     27  C   UNL     1      -4.015  13.141  24.399  0.00  0.00    +0.000 C 
ATOM     28  C   UNL     1      -3.126  12.311  23.521  0.00  0.00    +0.000 C 
ENDBRANCH  19  26
ENDBRANCH  15  16
ENDBRANCH   2  15
TORSDOF 5
ENDMDL
MODEL 8
REMARK VINA RESULT:      -7.6      8.228     11.039
REMARK  Name = 
REMARK  6 active torsions:
REMARK  status: ('A' for Active; 'I' for Inactive)
REMARK    1  A    between atoms: C_1  and  C_2
REMARK    2  A    between atoms: C_2  and  N_3
REMARK    3  A    between atoms: C_2  and  C_20
REMARK    4  A    between atoms: C_4  and  C_6
REMARK    5  A    between atoms: C_6  and  N_7
REMARK    6  A    between atoms: C_10  and  C_11
REMARK                            x       y       z     vdW  Elec       q    Type
REMARK                         _______ _______ _______ _____ _____    ______ ____
ROOT
ATOM      1  N   UNL     1      -1.206  11.488  22.089  0.00  0.00    +0.000 N 
ATOM      2  C   UNL     1      -1.170  12.828  22.413  0.00  0.00    +0.000 C 
ATOM      3  O   UNL     1      -0.270  13.319  23.093  0.00  0.00    +0.000 OA
ATOM      4  H   UNL     1      -1.904  11.170  21.417  0.00  0.00    +0.000 HD
ENDROOT
BRANCH   1   6
ATOM      5  C   UNL     1      -0.576   9.520  23.401  0.00  0.00    +0.000 C 
ATOM      6  C   UNL     1      -0.112  10.588  22.406  0.00  0.00    +0.000 C 
BRANCH   6   7
ATOM      7  C   UNL     1       0.460   9.977  21.139  0.00  0.00    +0.000 A 
ATOM      8  C   UNL     1       0.265  10.608  19.897  0.00  0.00    +0.000 A 
ATOM      9  C   UNL     1       0.828  10.079  18.729  0.00  0.00    +0.000 A 
ATOM     10  C   UNL     1       1.575   8.905  18.789  0.00  0.00    +0.000 A 
ATOM     11 CL   UNL     1       2.296   8.281  17.355  0.00  0.00    +0.000 Cl
ATOM     12  C   UNL     1       1.737   8.252  20.008  0.00  0.00    +0.000 A 
ATOM     13  F   UNL     1       2.432   7.107  20.085  0.00  0.00    +0.000 F 
ATOM     14  C   UNL     1       1.188   8.777  21.174  0.00  0.00    +0.000 A 
ENDBRANCH   6   7
ENDBRANCH   1   6
BRANCH   2  15
ATOM     15  C   UNL     1      -2.404  13.632  22.003  0.00  0.00    +0.000 C 
BRANCH  15  16
ATOM     16  N   UNL     1      -3.236  12.929  21.052  0.00  0.00    +0.000 N 
ATOM     17  N   UNL     1      -2.757  12.482  19.829  0.00  0.00    +0.000 NA
ATOM     18  C   UNL     1      -3.821  12.059  19.209  0.00  0.00    +0.000 A 
ATOM     19  C   UNL     1      -3.884  11.431  17.856  0.00  0.00    +0.000 A 
ATOM     20  C   UNL     1      -5.118  11.073  17.461  0.00  0.00    +0.000 A 
ATOM     21  C   UNL     1      -6.277  11.335  18.341  0.00  0.00    +0.000 A 
ATOM     22  N   UNL     1      -6.225  11.880  19.512  0.00  0.00    +0.000 NA
ATOM     23  N   UNL     1      -4.974  12.219  19.906  0.00  0.00    +0.000 N 
ATOM     24  C   UNL     1      -4.636  12.809  21.105  0.00  0.00    +0.000 A 
ATOM     25  O   UNL     1      -5.343  13.146  22.043  0.00  0.00    +0.000 OA
BRANCH  19  26
ATOM     26  C   UNL     1      -2.642  11.187  17.097  0.00  0.00    +0.000 C 
ATOM     27  C   UNL     1      -2.294   9.833  16.533  0.00  0.00    +0.000 C 
ATOM     28  C   UNL     1      -2.750  10.928  15.614  0.00  0.00    +0.000 C 
ENDBRANCH  19  26
ENDBRANCH  15  16
ENDBRANCH   2  15
TORSDOF 5
ENDMDL
MODEL 9
REMARK VINA RESULT:      -7.6      3.952      7.460
REMARK  Name = 
REMARK  6 active torsions:
REMARK  status: ('A' for Active; 'I' for Inactive)
REMARK    1  A    between atoms: C_1  and  C_2
REMARK    2  A    between atoms: C_2  and  N_3
REMARK    3  A    between atoms: C_2  and  C_20
REMARK    4  A    between atoms: C_4  and  C_6
REMARK    5  A    between atoms: C_6  and  N_7
REMARK    6  A    between atoms: C_10  and  C_11
REMARK                            x       y       z     vdW  Elec       q    Type
REMARK                         _______ _______ _______ _____ _____    ______ ____
ROOT
ATOM      1  N   UNL     1       5.855   6.104  17.308  0.00  0.00    +0.000 N 
ATOM      2  C   UNL     1       4.962   6.895  16.615  0.00  0.00    +0.000 C 
ATOM      3  O   UNL     1       5.178   7.286  15.469  0.00  0.00    +0.000 OA
ATOM      4  H   UNL     1       5.560   5.708  18.201  0.00  0.00    +0.000 HD
ENDROOT
BRANCH   1   6
ATOM      5  C   UNL     1       7.778   4.634  17.662  0.00  0.00    +0.000 C 
ATOM      6  C   UNL     1       7.047   5.559  16.686  0.00  0.00    +0.000 C 
BRANCH   6   7
ATOM      7  C   UNL     1       6.695   4.855  15.387  0.00  0.00    +0.000 A 
ATOM      8  C   UNL     1       5.657   3.907  15.352  0.00  0.00    +0.000 A 
ATOM      9  C   UNL     1       5.292   3.287  14.151  0.00  0.00    +0.000 A 
ATOM     10  C   UNL     1       5.975   3.595  12.976  0.00  0.00    +0.000 A 
ATOM     11 CL   UNL     1       5.498   2.857  11.496  0.00  0.00    +0.000 Cl
ATOM     12  C   UNL     1       7.032   4.501  13.010  0.00  0.00    +0.000 A 
ATOM     13  F   UNL     1       7.719   4.794  11.896  0.00  0.00    +0.000 F 
ATOM     14  C   UNL     1       7.393   5.128  14.199  0.00  0.00    +0.000 A 
ENDBRANCH   6   7
ENDBRANCH   1   6
BRANCH   2  15
ATOM     15  C   UNL     1       3.759   7.382  17.422  0.00  0.00    +0.000 C 
BRANCH  15  16
ATOM     16  N   UNL     1       3.207   6.353  18.275  0.00  0.00    +0.000 N 
ATOM     17  N   UNL     1       3.195   5.013  17.916  0.00  0.00    +0.000 NA
ATOM     18  C   UNL     1       2.485   4.443  18.847  0.00  0.00    +0.000 A 
ATOM     19  C   UNL     1       2.178   2.989  18.981  0.00  0.00    +0.000 A 
ATOM     20  C   UNL     1       1.429   2.669  20.051  0.00  0.00    +0.000 A 
ATOM     21  C   UNL     1       0.960   3.733  20.964  0.00  0.00    +0.000 A 
ATOM     22  N   UNL     1       1.222   4.995  20.849  0.00  0.00    +0.000 NA
ATOM     23  N   UNL     1       1.993   5.300  19.778  0.00  0.00    +0.000 N 
ATOM     24  C   UNL     1       2.422   6.561  19.424  0.00  0.00    +0.000 A 
ATOM     25  O   UNL     1       2.220   7.640  19.961  0.00  0.00    +0.000 OA
BRANCH  19  26
ATOM     26  C   UNL     1       2.746   2.023  18.021  0.00  0.00    +0.000 C 
ATOM     27  C   UNL     1       4.188   2.074  17.581  0.00  0.00    +0.000 C 
ATOM     28  C   UNL     1       3.735   1.004  18.531  0.00  0.00    +0.000 C 
ENDBRANCH  19  26
ENDBRANCH  15  16
ENDBRANCH   2  15
TORSDOF 5
ENDMDL
