MODEL 1
REMARK VINA RESULT:      -7.8      0.000      0.000
REMARK  Name = 
REMARK  5 active torsions:
REMARK  status: ('A' for Active; 'I' for Inactive)
REMARK    1  A    between atoms: N_1  and  C_2
REMARK    2  A    between atoms: C_5  and  S_6
REMARK    3  A    between atoms: S_6  and  C_9
REMARK    4  A    between atoms: C_12  and  N_13
REMARK    5  A    between atoms: C_19  and  N_20
REMARK                            x       y       z     vdW  Elec       q    Type
REMARK                         _______ _______ _______ _____ _____    ______ ____
ROOT
ATOM      1  C   UNL     1       3.197   5.216  19.037  0.00  0.00    +0.000 A 
ATOM      2  C   UNL     1       2.596   5.186  20.275  0.00  0.00    +0.000 A 
ATOM      3  C   UNL     1       1.928   6.322  20.729  0.00  0.00    +0.000 A 
ATOM      4  C   UNL     1       1.825   7.550  20.013  0.00  0.00    +0.000 A 
ATOM      5  C   UNL     1       2.543   7.575  18.775  0.00  0.00    +0.000 A 
ATOM      6  C   UNL     1       3.165   6.389  18.283  0.00  0.00    +0.000 A 
ENDROOT
BRANCH   4   7
ATOM      7  N   UNL     1       1.019   8.583  20.566  0.00  0.00    +0.000 N 
ATOM      8  C   UNL     1       1.081   8.743  22.039  0.00  0.00    +0.000 C 
ATOM      9  C   UNL     1       0.224   9.849  22.639  0.00  0.00    +0.000 C 
ATOM     10  O   UNL     1       0.335  11.056  21.896  0.00  0.00    +0.000 OA
ATOM     11  C   UNL     1      -0.199  10.837  20.592  0.00  0.00    +0.000 C 
ATOM     12  C   UNL     1       0.540   9.743  19.789  0.00  0.00    +0.000 C 
ENDBRANCH   4   7
BRANCH   1  13
ATOM     13  S   UNL     1       4.021   3.745  18.468  0.00  0.00    +0.000 S 
ATOM     14  O   UNL     1       2.988   2.916  17.877  0.00  0.00    +0.000 OA
ATOM     15  O   UNL     1       4.842   3.251  19.559  0.00  0.00    +0.000 OA
BRANCH  13  19
ATOM     16  C   UNL     1       6.969   4.887  15.130  0.00  0.00    +0.000 A 
ATOM     17  C   UNL     1       5.661   4.510  14.815  0.00  0.00    +0.000 A 
ATOM     18  C   UNL     1       4.753   4.151  15.827  0.00  0.00    +0.000 A 
ATOM     19  C   UNL     1       5.148   4.218  17.166  0.00  0.00    +0.000 A 
ATOM     20  C   UNL     1       6.438   4.641  17.496  0.00  0.00    +0.000 A 
ATOM     21  C   UNL     1       7.331   4.997  16.477  0.00  0.00    +0.000 A 
BRANCH  16  22
ATOM     22  N   UNL     1       7.826   5.367  14.132  0.00  0.00    +0.000 N 
ATOM     23  H   UNL     1       7.902   4.757  13.323  0.00  0.00    +0.000 HD
ATOM     24  H   UNL     1       8.736   5.659  14.474  0.00  0.00    +0.000 HD
ENDBRANCH  16  22
ENDBRANCH  13  19
ENDBRANCH   1  13
BRANCH   5  25
ATOM     25  N   UNL     1       2.539   8.663  17.869  0.00  0.00    +0.000 N 
ATOM     26  H   UNL     1       3.433   8.796  17.421  0.00  0.00    +0.000 HD
ATOM     27  H   UNL     1       1.816   8.580  17.158  0.00  0.00    +0.000 HD
ENDBRANCH   5  25
TORSDOF 5
ENDMDL
MODEL 2
REMARK VINA RESULT:      -7.7      0.048      1.007
REMARK  Name = 
REMARK  5 active torsions:
REMARK  status: ('A' for Active; 'I' for Inactive)
REMARK    1  A    between atoms: N_1  and  C_2
REMARK    2  A    between atoms: C_5  and  S_6
REMARK    3  A    between atoms: S_6  and  C_9
REMARK    4  A    between atoms: C_12  and  N_13
REMARK    5  A    between atoms: C_19  and  N_20
REMARK                            x       y       z     vdW  Elec       q    Type
REMARK                         _______ _______ _______ _____ _____    ______ ____
ROOT
ATOM      1  C   UNL     1       3.212   5.211  19.038  0.00  0.00    +0.000 A 
ATOM      2  C   UNL     1       2.620   5.184  20.281  0.00  0.00    +0.000 A 
ATOM      3  C   UNL     1       1.950   6.319  20.735  0.00  0.00    +0.000 A 
ATOM      4  C   UNL     1       1.837   7.543  20.014  0.00  0.00    +0.000 A 
ATOM      5  C   UNL     1       2.545   7.566  18.771  0.00  0.00    +0.000 A 
ATOM      6  C   UNL     1       3.169   6.381  18.280  0.00  0.00    +0.000 A 
ENDROOT
BRANCH   4   7
ATOM      7  N   UNL     1       1.029   8.575  20.569  0.00  0.00    +0.000 N 
ATOM      8  C   UNL     1       1.093   8.735  22.042  0.00  0.00    +0.000 C 
ATOM      9  C   UNL     1       0.236   9.840  22.643  0.00  0.00    +0.000 C 
ATOM     10  O   UNL     1       0.344  11.047  21.901  0.00  0.00    +0.000 OA
ATOM     11  C   UNL     1      -0.192  10.827  20.598  0.00  0.00    +0.000 C 
ATOM     12  C   UNL     1       0.547   9.734  19.793  0.00  0.00    +0.000 C 
ENDBRANCH   4   7
BRANCH   1  13
ATOM     13  S   UNL     1       4.038   3.741  18.470  0.00  0.00    +0.000 S 
ATOM     14  O   UNL     1       3.010   2.917  17.864  0.00  0.00    +0.000 OA
ATOM     15  O   UNL     1       4.848   3.240  19.566  0.00  0.00    +0.000 OA
BRANCH  13  19
ATOM     16  C   UNL     1       6.924   5.047  15.137  0.00  0.00    +0.000 A 
ATOM     17  C   UNL     1       7.325   5.094  16.475  0.00  0.00    +0.000 A 
ATOM     18  C   UNL     1       6.449   4.706  17.502  0.00  0.00    +0.000 A 
ATOM     19  C   UNL     1       5.179   4.219  17.182  0.00  0.00    +0.000 A 
ATOM     20  C   UNL     1       4.784   4.121  15.845  0.00  0.00    +0.000 A 
ATOM     21  C   UNL     1       5.668   4.510  14.832  0.00  0.00    +0.000 A 
BRANCH  16  22
ATOM     22  N   UNL     1       7.842   5.310  14.114  0.00  0.00    +0.000 N 
ATOM     23  H   UNL     1       8.360   4.493  13.801  0.00  0.00    +0.000 HD
ATOM     24  H   UNL     1       8.455   6.099  14.301  0.00  0.00    +0.000 HD
ENDBRANCH  16  22
ENDBRANCH  13  19
ENDBRANCH   1  13
BRANCH   5  25
ATOM     25  N   UNL     1       2.530   8.650  17.861  0.00  0.00    +0.000 N 
ATOM     26  H   UNL     1       1.730   9.251  17.989  0.00  0.00    +0.000 HD
ATOM     27  H   UNL     1       3.380   9.208  17.899  0.00  0.00    +0.000 HD
ENDBRANCH   5  25
TORSDOF 5
ENDMDL
MODEL 3
REMARK VINA RESULT:      -7.7      3.268      8.340
REMARK  Name = 
REMARK  5 active torsions:
REMARK  status: ('A' for Active; 'I' for Inactive)
REMARK    1  A    between atoms: N_1  and  C_2
REMARK    2  A    between atoms: C_5  and  S_6
REMARK    3  A    between atoms: S_6  and  C_9
REMARK    4  A    between atoms: C_12  and  N_13
REMARK    5  A    between atoms: C_19  and  N_20
REMARK                            x       y       z     vdW  Elec       q    Type
REMARK                         _______ _______ _______ _____ _____    ______ ____
ROOT
ATOM      1  C   UNL     1       1.280   9.617  19.149  0.00  0.00    +0.000 A 
ATOM      2  C   UNL     1       1.895   9.402  17.936  0.00  0.00    +0.000 A 
ATOM      3  C   UNL     1       2.507   8.172  17.697  0.00  0.00    +0.000 A 
ATOM      4  C   UNL     1       2.569   7.096  18.630  0.00  0.00    +0.000 A 
ATOM      5  C   UNL     1       2.005   7.390  19.912  0.00  0.00    +0.000 A 
ATOM      6  C   UNL     1       1.319   8.623  20.127  0.00  0.00    +0.000 A 
ENDROOT
BRANCH   4   7
ATOM      7  N   UNL     1       3.137   5.866  18.197  0.00  0.00    +0.000 N 
ATOM      8  C   UNL     1       4.537   5.610  18.614  0.00  0.00    +0.000 C 
ATOM      9  C   UNL     1       5.151   4.293  18.159  0.00  0.00    +0.000 C 
ATOM     10  O   UNL     1       4.257   3.206  18.351  0.00  0.00    +0.000 OA
ATOM     11  C   UNL     1       3.122   3.398  17.508  0.00  0.00    +0.000 C 
ATOM     12  C   UNL     1       2.332   4.692  17.809  0.00  0.00    +0.000 C 
ENDBRANCH   4   7
BRANCH   1  13
ATOM     13  S   UNL     1       0.484  11.184  19.420  0.00  0.00    +0.000 S 
ATOM     14  O   UNL     1       1.242  12.153  18.653  0.00  0.00    +0.000 OA
ATOM     15  O   UNL     1       0.301  11.344  20.852  0.00  0.00    +0.000 OA
BRANCH  13  19
ATOM     16  C   UNL     1      -3.745  10.873  17.641  0.00  0.00    +0.000 A 
ATOM     17  C   UNL     1      -3.464  11.822  18.628  0.00  0.00    +0.000 A 
ATOM     18  C   UNL     1      -2.178  11.921  19.185  0.00  0.00    +0.000 A 
ATOM     19  C   UNL     1      -1.154  11.095  18.713  0.00  0.00    +0.000 A 
ATOM     20  C   UNL     1      -1.410  10.176  17.692  0.00  0.00    +0.000 A 
ATOM     21  C   UNL     1      -2.697  10.090  17.146  0.00  0.00    +0.000 A 
BRANCH  16  22
ATOM     22  N   UNL     1      -4.989  10.868  17.000  0.00  0.00    +0.000 N 
ATOM     23  H   UNL     1      -5.280  11.777  16.650  0.00  0.00    +0.000 HD
ATOM     24  H   UNL     1      -5.726  10.413  17.531  0.00  0.00    +0.000 HD
ENDBRANCH  16  22
ENDBRANCH  13  19
ENDBRANCH   1  13
BRANCH   5  25
ATOM     25  N   UNL     1       1.901   6.460  20.974  0.00  0.00    +0.000 N 
ATOM     26  H   UNL     1       2.338   5.577  20.758  0.00  0.00    +0.000 HD
ATOM     27  H   UNL     1       2.278   6.818  21.849  0.00  0.00    +0.000 HD
ENDBRANCH   5  25
TORSDOF 5
ENDMDL
MODEL 4
REMARK VINA RESULT:      -7.7      3.267      8.325
REMARK  Name = 
REMARK  5 active torsions:
REMARK  status: ('A' for Active; 'I' for Inactive)
REMARK    1  A    between atoms: N_1  and  C_2
REMARK    2  A    between atoms: C_5  and  S_6
REMARK    3  A    between atoms: S_6  and  C_9
REMARK    4  A    between atoms: C_12  and  N_13
REMARK    5  A    between atoms: C_19  and  N_20
REMARK                            x       y       z     vdW  Elec       q    Type
REMARK                         _______ _______ _______ _____ _____    ______ ____
ROOT
ATOM      1  C   UNL     1       1.284   9.597  19.145  0.00  0.00    +0.000 A 
ATOM      2  C   UNL     1       1.901   9.382  17.933  0.00  0.00    +0.000 A 
ATOM      3  C   UNL     1       2.518   8.154  17.697  0.00  0.00    +0.000 A 
ATOM      4  C   UNL     1       2.583   7.080  18.632  0.00  0.00    +0.000 A 
ATOM      5  C   UNL     1       2.016   7.375  19.913  0.00  0.00    +0.000 A 
ATOM      6  C   UNL     1       1.325   8.605  20.125  0.00  0.00    +0.000 A 
ENDROOT
BRANCH   4   7
ATOM      7  N   UNL     1       3.156   5.852  18.203  0.00  0.00    +0.000 N 
ATOM      8  C   UNL     1       4.554   5.598  18.627  0.00  0.00    +0.000 C 
ATOM      9  C   UNL     1       5.173   4.283  18.176  0.00  0.00    +0.000 C 
ATOM     10  O   UNL     1       4.280   3.194  18.363  0.00  0.00    +0.000 OA
ATOM     11  C   UNL     1       3.150   3.383  17.514  0.00  0.00    +0.000 C 
ATOM     12  C   UNL     1       2.355   4.675  17.811  0.00  0.00    +0.000 C 
ENDBRANCH   4   7
BRANCH   1  13
ATOM     13  S   UNL     1       0.481  11.162  19.411  0.00  0.00    +0.000 S 
ATOM     14  O   UNL     1       1.230  12.130  18.632  0.00  0.00    +0.000 OA
ATOM     15  O   UNL     1       0.308  11.330  20.843  0.00  0.00    +0.000 OA
BRANCH  13  19
ATOM     16  C   UNL     1      -3.731  10.979  17.578  0.00  0.00    +0.000 A 
ATOM     17  C   UNL     1      -2.736  10.098  17.146  0.00  0.00    +0.000 A 
ATOM     18  C   UNL     1      -1.443  10.150  17.693  0.00  0.00    +0.000 A 
ATOM     19  C   UNL     1      -1.160  11.060  18.716  0.00  0.00    +0.000 A 
ATOM     20  C   UNL     1      -2.160  11.912  19.191  0.00  0.00    +0.000 A 
ATOM     21  C   UNL     1      -3.445  11.848  18.637  0.00  0.00    +0.000 A 
BRANCH  16  22
ATOM     22  N   UNL     1      -5.048  10.835  17.124  0.00  0.00    +0.000 N 
ATOM     23  H   UNL     1      -5.543  10.046  17.531  0.00  0.00    +0.000 HD
ATOM     24  H   UNL     1      -5.141  10.861  16.113  0.00  0.00    +0.000 HD
ENDBRANCH  16  22
ENDBRANCH  13  19
ENDBRANCH   1  13
BRANCH   5  25
ATOM     25  N   UNL     1       1.914   6.446  20.977  0.00  0.00    +0.000 N 
ATOM     26  H   UNL     1       1.434   6.827  21.777  0.00  0.00    +0.000 HD
ATOM     27  H   UNL     1       1.466   5.576  20.698  0.00  0.00    +0.000 HD
ENDBRANCH   5  25
TORSDOF 5
ENDMDL
MODEL 5
REMARK VINA RESULT:      -7.6      1.674      2.469
REMARK  Name = 
REMARK  5 active torsions:
REMARK  status: ('A' for Active; 'I' for Inactive)
REMARK    1  A    between atoms: N_1  and  C_2
REMARK    2  A    between atoms: C_5  and  S_6
REMARK    3  A    between atoms: S_6  and  C_9
REMARK    4  A    between atoms: C_12  and  N_13
REMARK    5  A    between atoms: C_19  and  N_20
REMARK                            x       y       z     vdW  Elec       q    Type
REMARK                         _______ _______ _______ _____ _____    ______ ____
ROOT
ATOM      1  C   UNL     1       2.558   6.459  18.862  0.00  0.00    +0.000 A 
ATOM      2  C   UNL     1       2.338   7.266  17.769  0.00  0.00    +0.000 A 
ATOM      3  C   UNL     1       1.825   8.547  17.967  0.00  0.00    +0.000 A 
ATOM      4  C   UNL     1       1.483   9.102  19.235  0.00  0.00    +0.000 A 
ATOM      5  C   UNL     1       1.634   8.201  20.336  0.00  0.00    +0.000 A 
ATOM      6  C   UNL     1       2.224   6.918  20.137  0.00  0.00    +0.000 A 
ENDROOT
BRANCH   4   7
ATOM      7  N   UNL     1       1.071  10.463  19.281  0.00  0.00    +0.000 N 
ATOM      8  C   UNL     1       1.900  11.424  18.513  0.00  0.00    +0.000 C 
ATOM      9  C   UNL     1       1.462  12.881  18.553  0.00  0.00    +0.000 C 
ATOM     10  O   UNL     1       0.060  13.011  18.365  0.00  0.00    +0.000 OA
ATOM     11  C   UNL     1      -0.604  12.393  19.465  0.00  0.00    +0.000 C 
ATOM     12  C   UNL     1      -0.305  10.884  19.608  0.00  0.00    +0.000 C 
ENDBRANCH   4   7
BRANCH   1  13
ATOM     13  S   UNL     1       3.238   4.838  18.585  0.00  0.00    +0.000 S 
ATOM     14  O   UNL     1       2.189   4.074  17.938  0.00  0.00    +0.000 OA
ATOM     15  O   UNL     1       3.828   4.389  19.834  0.00  0.00    +0.000 OA
BRANCH  13  19
ATOM     16  C   UNL     1       6.761   5.218  15.655  0.00  0.00    +0.000 A 
ATOM     17  C   UNL     1       5.713   4.334  15.386  0.00  0.00    +0.000 A 
ATOM     18  C   UNL     1       4.635   4.204  16.277  0.00  0.00    +0.000 A 
ATOM     19  C   UNL     1       4.585   5.002  17.424  0.00  0.00    +0.000 A 
ATOM     20  C   UNL     1       5.602   5.924  17.679  0.00  0.00    +0.000 A 
ATOM     21  C   UNL     1       6.669   6.044  16.781  0.00  0.00    +0.000 A 
BRANCH  16  22
ATOM     22  N   UNL     1       7.763   5.438  14.702  0.00  0.00    +0.000 N 
ATOM     23  H   UNL     1       8.074   6.404  14.643  0.00  0.00    +0.000 HD
ATOM     24  H   UNL     1       7.554   5.050  13.787  0.00  0.00    +0.000 HD
ENDBRANCH  16  22
ENDBRANCH  13  19
ENDBRANCH   1  13
BRANCH   5  25
ATOM     25  N   UNL     1       1.411   8.548  21.691  0.00  0.00    +0.000 N 
ATOM     26  H   UNL     1       1.894   7.936  22.330  0.00  0.00    +0.000 HD
ATOM     27  H   UNL     1       1.659   9.513  21.896  0.00  0.00    +0.000 HD
ENDBRANCH   5  25
TORSDOF 5
ENDMDL
MODEL 6
REMARK VINA RESULT:      -7.5      1.816      2.784
REMARK  Name = 
REMARK  5 active torsions:
REMARK  status: ('A' for Active; 'I' for Inactive)
REMARK    1  A    between atoms: N_1  and  C_2
REMARK    2  A    between atoms: C_5  and  S_6
REMARK    3  A    between atoms: S_6  and  C_9
REMARK    4  A    between atoms: C_12  and  N_13
REMARK    5  A    between atoms: C_19  and  N_20
REMARK                            x       y       z     vdW  Elec       q    Type
REMARK                         _______ _______ _______ _____ _____    ______ ____
ROOT
ATOM      1  C   UNL     1       2.438   6.656  18.966  0.00  0.00    +0.000 A 
ATOM      2  C   UNL     1       2.338   7.460  17.852  0.00  0.00    +0.000 A 
ATOM      3  C   UNL     1       1.817   8.745  17.990  0.00  0.00    +0.000 A 
ATOM      4  C   UNL     1       1.348   9.309  19.212  0.00  0.00    +0.000 A 
ATOM      5  C   UNL     1       1.377   8.413  20.328  0.00  0.00    +0.000 A 
ATOM      6  C   UNL     1       1.976   7.125  20.197  0.00  0.00    +0.000 A 
ENDROOT
BRANCH   4   7
ATOM      7  N   UNL     1       0.943  10.672  19.209  0.00  0.00    +0.000 N 
ATOM      8  C   UNL     1       1.871  11.629  18.557  0.00  0.00    +0.000 C 
ATOM      9  C   UNL     1       1.443  13.090  18.545  0.00  0.00    +0.000 C 
ATOM     10  O   UNL     1       0.077  13.230  18.177  0.00  0.00    +0.000 OA
ATOM     11  C   UNL     1      -0.728  12.615  19.181  0.00  0.00    +0.000 C 
ATOM     12  C   UNL     1      -0.461  11.103  19.357  0.00  0.00    +0.000 C 
ENDBRANCH   4   7
BRANCH   1  13
ATOM     13  S   UNL     1       3.131   5.030  18.769  0.00  0.00    +0.000 S 
ATOM     14  O   UNL     1       2.093   4.229  18.149  0.00  0.00    +0.000 OA
ATOM     15  O   UNL     1       3.713   4.642  20.042  0.00  0.00    +0.000 OA
BRANCH  13  19
ATOM     16  C   UNL     1       6.567   5.387  15.735  0.00  0.00    +0.000 A 
ATOM     17  C   UNL     1       6.619   6.086  16.943  0.00  0.00    +0.000 A 
ATOM     18  C   UNL     1       5.571   5.991  17.875  0.00  0.00    +0.000 A 
ATOM     19  C   UNL     1       4.486   5.150  17.613  0.00  0.00    +0.000 A 
ATOM     20  C   UNL     1       4.446   4.408  16.430  0.00  0.00    +0.000 A 
ATOM     21  C   UNL     1       5.498   4.512  15.512  0.00  0.00    +0.000 A 
BRANCH  16  22
ATOM     22  N   UNL     1       7.669   5.383  14.872  0.00  0.00    +0.000 N 
ATOM     23  H   UNL     1       8.567   5.332  15.347  0.00  0.00    +0.000 HD
ATOM     24  H   UNL     1       7.651   6.122  14.175  0.00  0.00    +0.000 HD
ENDBRANCH  16  22
ENDBRANCH  13  19
ENDBRANCH   1  13
BRANCH   5  25
ATOM     25  N   UNL     1       1.017   8.768  21.650  0.00  0.00    +0.000 N 
ATOM     26  H   UNL     1       1.685   9.390  22.079  0.00  0.00    +0.000 HD
ATOM     27  H   UNL     1       0.088   9.181  21.707  0.00  0.00    +0.000 HD
ENDBRANCH   5  25
TORSDOF 5
ENDMDL
MODEL 7
REMARK VINA RESULT:      -7.5      3.287      8.375
REMARK  Name = 
REMARK  5 active torsions:
REMARK  status: ('A' for Active; 'I' for Inactive)
REMARK    1  A    between atoms: N_1  and  C_2
REMARK    2  A    between atoms: C_5  and  S_6
REMARK    3  A    between atoms: S_6  and  C_9
REMARK    4  A    between atoms: C_12  and  N_13
REMARK    5  A    between atoms: C_19  and  N_20
REMARK                            x       y       z     vdW  Elec       q    Type
REMARK                         _______ _______ _______ _____ _____    ______ ____
ROOT
ATOM      1  C   UNL     1       1.262   9.645  19.186  0.00  0.00    +0.000 A 
ATOM      2  C   UNL     1       1.891   9.415  17.983  0.00  0.00    +0.000 A 
ATOM      3  C   UNL     1       2.513   8.186  17.768  0.00  0.00    +0.000 A 
ATOM      4  C   UNL     1       2.573   7.125  18.718  0.00  0.00    +0.000 A 
ATOM      5  C   UNL     1       1.994   7.435  19.990  0.00  0.00    +0.000 A 
ATOM      6  C   UNL     1       1.298   8.666  20.180  0.00  0.00    +0.000 A 
ENDROOT
BRANCH   4   7
ATOM      7  N   UNL     1       3.153   5.893  18.310  0.00  0.00    +0.000 N 
ATOM      8  C   UNL     1       2.208   4.844  17.854  0.00  0.00    +0.000 C 
ATOM      9  C   UNL     1       2.821   3.523  17.410  0.00  0.00    +0.000 C 
ATOM     10  O   UNL     1       3.947   3.728  16.567  0.00  0.00    +0.000 OA
ATOM     11  C   UNL     1       4.968   4.376  17.324  0.00  0.00    +0.000 C 
ATOM     12  C   UNL     1       4.556   5.762  17.871  0.00  0.00    +0.000 C 
ENDBRANCH   4   7
BRANCH   1  13
ATOM     13  S   UNL     1       0.453  11.211  19.425  0.00  0.00    +0.000 S 
ATOM     14  O   UNL     1       1.210  12.172  18.646  0.00  0.00    +0.000 OA
ATOM     15  O   UNL     1       0.260  11.394  20.853  0.00  0.00    +0.000 OA
BRANCH  13  19
ATOM     16  C   UNL     1      -3.761  10.839  17.624  0.00  0.00    +0.000 A 
ATOM     17  C   UNL     1      -3.493  11.807  18.596  0.00  0.00    +0.000 A 
ATOM     18  C   UNL     1      -2.211  11.925  19.159  0.00  0.00    +0.000 A 
ATOM     19  C   UNL     1      -1.179  11.097  18.709  0.00  0.00    +0.000 A 
ATOM     20  C   UNL     1      -1.422  10.159  17.702  0.00  0.00    +0.000 A 
ATOM     21  C   UNL     1      -2.704  10.055  17.149  0.00  0.00    +0.000 A 
BRANCH  16  22
ATOM     22  N   UNL     1      -5.001  10.814  16.975  0.00  0.00    +0.000 N 
ATOM     23  H   UNL     1      -5.066  10.125  16.230  0.00  0.00    +0.000 HD
ATOM     24  H   UNL     1      -5.329  11.728  16.675  0.00  0.00    +0.000 HD
ENDBRANCH  16  22
ENDBRANCH  13  19
ENDBRANCH   1  13
BRANCH   5  25
ATOM     25  N   UNL     1       1.886   6.520  21.065  0.00  0.00    +0.000 N 
ATOM     26  H   UNL     1       2.645   6.607  21.724  0.00  0.00    +0.000 HD
ATOM     27  H   UNL     1       1.000   6.598  21.560  0.00  0.00    +0.000 HD
ENDBRANCH   5  25
TORSDOF 5
ENDMDL
MODEL 8
REMARK VINA RESULT:      -7.5      3.308      8.396
REMARK  Name = 
REMARK  5 active torsions:
REMARK  status: ('A' for Active; 'I' for Inactive)
REMARK    1  A    between atoms: N_1  and  C_2
REMARK    2  A    between atoms: C_5  and  S_6
REMARK    3  A    between atoms: S_6  and  C_9
REMARK    4  A    between atoms: C_12  and  N_13
REMARK    5  A    between atoms: C_19  and  N_20
REMARK                            x       y       z     vdW  Elec       q    Type
REMARK                         _______ _______ _______ _____ _____    ______ ____
ROOT
ATOM      1  C   UNL     1       1.227   9.710  19.171  0.00  0.00    +0.000 A 
ATOM      2  C   UNL     1       1.854   9.478  17.967  0.00  0.00    +0.000 A 
ATOM      3  C   UNL     1       2.487   8.254  17.759  0.00  0.00    +0.000 A 
ATOM      4  C   UNL     1       2.560   7.200  18.716  0.00  0.00    +0.000 A 
ATOM      5  C   UNL     1       1.983   7.513  19.988  0.00  0.00    +0.000 A 
ATOM      6  C   UNL     1       1.276   8.739  20.171  0.00  0.00    +0.000 A 
ENDROOT
BRANCH   4   7
ATOM      7  N   UNL     1       3.151   5.970  18.314  0.00  0.00    +0.000 N 
ATOM      8  C   UNL     1       2.213   4.903  17.887  0.00  0.00    +0.000 C 
ATOM      9  C   UNL     1       2.838   3.585  17.450  0.00  0.00    +0.000 C 
ATOM     10  O   UNL     1       3.947   3.794  16.587  0.00  0.00    +0.000 OA
ATOM     11  C   UNL     1       4.971   4.466  17.318  0.00  0.00    +0.000 C 
ATOM     12  C   UNL     1       4.548   5.853  17.854  0.00  0.00    +0.000 C 
ENDBRANCH   4   7
BRANCH   1  13
ATOM     13  S   UNL     1       0.403  11.270  19.402  0.00  0.00    +0.000 S 
ATOM     14  O   UNL     1       1.135  12.228  18.595  0.00  0.00    +0.000 OA
ATOM     15  O   UNL     1       0.234  11.471  20.830  0.00  0.00    +0.000 OA
BRANCH  13  19
ATOM     16  C   UNL     1      -3.814  10.981  17.595  0.00  0.00    +0.000 A 
ATOM     17  C   UNL     1      -2.804  10.115  17.168  0.00  0.00    +0.000 A 
ATOM     18  C   UNL     1      -1.510  10.199  17.707  0.00  0.00    +0.000 A 
ATOM     19  C   UNL     1      -1.240  11.127  18.717  0.00  0.00    +0.000 A 
ATOM     20  C   UNL     1      -2.254  11.965  19.187  0.00  0.00    +0.000 A 
ATOM     21  C   UNL     1      -3.540  11.868  18.641  0.00  0.00    +0.000 A 
BRANCH  16  22
ATOM     22  N   UNL     1      -5.130  10.806  17.150  0.00  0.00    +0.000 N 
ATOM     23  H   UNL     1      -5.269  11.032  16.168  0.00  0.00    +0.000 HD
ATOM     24  H   UNL     1      -5.829  11.245  17.743  0.00  0.00    +0.000 HD
ENDBRANCH  16  22
ENDBRANCH  13  19
ENDBRANCH   1  13
BRANCH   5  25
ATOM     25  N   UNL     1       1.888   6.605  21.070  0.00  0.00    +0.000 N 
ATOM     26  H   UNL     1       1.923   7.067  21.965  0.00  0.00    +0.000 HD
ATOM     27  H   UNL     1       1.054   6.023  21.022  0.00  0.00    +0.000 HD
ENDBRANCH   5  25
TORSDOF 5
ENDMDL
MODEL 9
REMARK VINA RESULT:      -7.5      1.441      1.875
REMARK  Name = 
REMARK  5 active torsions:
REMARK  status: ('A' for Active; 'I' for Inactive)
REMARK    1  A    between atoms: N_1  and  C_2
REMARK    2  A    between atoms: C_5  and  S_6
REMARK    3  A    between atoms: S_6  and  C_9
REMARK    4  A    between atoms: C_12  and  N_13
REMARK    5  A    between atoms: C_19  and  N_20
REMARK                            x       y       z     vdW  Elec       q    Type
REMARK                         _______ _______ _______ _____ _____    ______ ____
ROOT
ATOM      1  C   UNL     1       2.261   6.537  19.173  0.00  0.00    +0.000 A 
ATOM      2  C   UNL     1       1.891   6.765  20.479  0.00  0.00    +0.000 A 
ATOM      3  C   UNL     1       1.404   8.022  20.834  0.00  0.00    +0.000 A 
ATOM      4  C   UNL     1       1.269   9.127  19.943  0.00  0.00    +0.000 A 
ATOM      5  C   UNL     1       1.754   8.882  18.619  0.00  0.00    +0.000 A 
ATOM      6  C   UNL     1       2.185   7.575  18.244  0.00  0.00    +0.000 A 
ENDROOT
BRANCH   4   7
ATOM      7  N   UNL     1       0.656  10.312  20.434  0.00  0.00    +0.000 N 
ATOM      8  C   UNL     1      -0.323  10.135  21.534  0.00  0.00    +0.000 C 
ATOM      9  C   UNL     1      -0.980  11.400  22.069  0.00  0.00    +0.000 C 
ATOM     10  O   UNL     1      -0.030  12.437  22.269  0.00  0.00    +0.000 OA
ATOM     11  C   UNL     1       0.512  12.807  21.003  0.00  0.00    +0.000 C 
ATOM     12  C   UNL     1       1.246  11.656  20.277  0.00  0.00    +0.000 C 
ENDBRANCH   4   7
BRANCH   1  13
ATOM     13  S   UNL     1       2.855   4.917  18.739  0.00  0.00    +0.000 S 
ATOM     14  O   UNL     1       1.791   4.297  17.973  0.00  0.00    +0.000 OA
ATOM     15  O   UNL     1       3.364   4.296  19.950  0.00  0.00    +0.000 OA
BRANCH  13  19
ATOM     16  C   UNL     1       6.409   5.475  15.877  0.00  0.00    +0.000 A 
ATOM     17  C   UNL     1       6.267   6.304  16.993  0.00  0.00    +0.000 A 
ATOM     18  C   UNL     1       5.181   6.147  17.870  0.00  0.00    +0.000 A 
ATOM     19  C   UNL     1       4.257   5.121  17.653  0.00  0.00    +0.000 A 
ATOM     20  C   UNL     1       4.416   4.255  16.568  0.00  0.00    +0.000 A 
ATOM     21  C   UNL     1       5.504   4.422  15.703  0.00  0.00    +0.000 A 
BRANCH  16  22
ATOM     22  N   UNL     1       7.560   5.550  15.082  0.00  0.00    +0.000 N 
ATOM     23  H   UNL     1       7.536   6.292  14.388  0.00  0.00    +0.000 HD
ATOM     24  H   UNL     1       7.842   4.662  14.679  0.00  0.00    +0.000 HD
ENDBRANCH  16  22
ENDBRANCH  13  19
ENDBRANCH   1  13
BRANCH   5  25
ATOM     25  N   UNL     1       1.671   9.809  17.552  0.00  0.00    +0.000 N 
ATOM     26  H   UNL     1       2.437  10.465  17.550  0.00  0.00    +0.000 HD
ATOM     27  H   UNL     1       1.613   9.357  16.642  0.00  0.00    +0.000 HD
ENDBRANCH   5  25
TORSDOF 5
ENDMDL
