MODEL 1
REMARK VINA RESULT:      -9.0      0.000      0.000
REMARK  Name = 
REMARK  6 active torsions:
REMARK  status: ('A' for Active; 'I' for Inactive)
REMARK    1  A    between atoms: C_1  and  O_2
REMARK    2  A    between atoms: O_2  and  C_3
REMARK    3  A    between atoms: C_6  and  C_7
REMARK    4  A    between atoms: C_15  and  N_16
REMARK    5  A    between atoms: N_19  and  N_20
REMARK    6  A    between atoms: C_21  and  C_23
REMARK                            x       y       z     vdW  Elec       q    Type
REMARK                         _______ _______ _______ _____ _____    ______ ____
ROOT
ATOM      1  C   UNL     1       3.523   5.643  18.188  0.00  0.00    +0.000 A 
ATOM      2  N   UNL     1       3.425   4.832  19.315  0.00  0.00    +0.000 N 
ATOM      3  N   UNL     1       2.909   5.438  20.406  0.00  0.00    +0.000 NA
ATOM      4  C   UNL     1       2.488   6.578  19.886  0.00  0.00    +0.000 A 
ATOM      5  C   UNL     1       2.717   6.714  18.513  0.00  0.00    +0.000 A 
ATOM      6  C   UNL     1       2.163   7.983  18.062  0.00  0.00    +0.000 C 
ATOM      7  O   UNL     1       2.339   8.509  16.980  0.00  0.00    +0.000 OA
ATOM      8  C   UNL     1       1.494   8.571  19.314  0.00  0.00    +0.000 A 
ATOM      9  C   UNL     1       0.766   9.733  19.567  0.00  0.00    +0.000 A 
ATOM     10  C   UNL     1       0.638  10.124  20.919  0.00  0.00    +0.000 A 
ATOM     11  C   UNL     1       1.131   9.340  21.981  0.00  0.00    +0.000 A 
ATOM     12  C   UNL     1       1.722   8.110  21.730  0.00  0.00    +0.000 A 
ATOM     13  C   UNL     1       1.864   7.743  20.408  0.00  0.00    +0.000 A 
ATOM     14  H   UNL     1       3.777   3.886  19.415  0.00  0.00    +0.000 HD
ENDROOT
BRANCH   1  18
ATOM     15  C   UNL     1       6.075   4.716  14.869  0.00  0.00    +0.000 A 
ATOM     16  C   UNL     1       5.493   3.684  15.615  0.00  0.00    +0.000 A 
ATOM     17  C   UNL     1       4.646   3.959  16.703  0.00  0.00    +0.000 A 
ATOM     18  C   UNL     1       4.398   5.279  17.077  0.00  0.00    +0.000 A 
ATOM     19  C   UNL     1       4.999   6.307  16.326  0.00  0.00    +0.000 A 
ATOM     20  C   UNL     1       5.830   6.031  15.237  0.00  0.00    +0.000 A 
BRANCH  15  22
ATOM     21  C   UNL     1       6.256   3.555  12.816  0.00  0.00    +0.000 C 
ATOM     22  O   UNL     1       6.882   4.332  13.835  0.00  0.00    +0.000 OA
ENDBRANCH  15  22
ENDBRANCH   1  18
BRANCH   9  23
ATOM     23  N   UNL     1       0.076  10.537  18.631  0.00  0.00    +0.000 N 
ATOM     24  C   UNL     1      -1.224  10.972  18.772  0.00  0.00    +0.000 C 
ATOM     25  O   UNL     1      -1.968  10.715  19.713  0.00  0.00    +0.000 OA
ATOM     26  N   UNL     1      -1.633  11.774  17.714  0.00  0.00    +0.000 N 
ATOM     27  H   UNL     1       0.643  11.107  18.021  0.00  0.00    +0.000 HD
ATOM     28  H   UNL     1      -0.982  12.396  17.243  0.00  0.00    +0.000 HD
BRANCH  26  29
ATOM     29  N   UNL     1      -2.953  12.256  17.792  0.00  0.00    +0.000 N 
ATOM     30  C   UNL     1      -3.993  11.486  17.309  0.00  0.00    +0.000 C 
ATOM     31  O   UNL     1      -3.834  10.440  16.689  0.00  0.00    +0.000 OA
ATOM     32  H   UNL     1      -3.084  13.010  18.461  0.00  0.00    +0.000 HD
BRANCH  30  33
ATOM     33  C   UNL     1      -5.357  12.005  17.613  0.00  0.00    +0.000 A 
ATOM     34  C   UNL     1      -5.999  12.905  16.758  0.00  0.00    +0.000 A 
ATOM     35  C   UNL     1      -7.254  13.360  17.120  0.00  0.00    +0.000 A 
ATOM     36  N   UNL     1      -7.892  12.980  18.245  0.00  0.00    +0.000 NA
ATOM     37  C   UNL     1      -7.256  12.097  19.047  0.00  0.00    +0.000 A 
ATOM     38  C   UNL     1      -6.002  11.578  18.773  0.00  0.00    +0.000 A 
ENDBRANCH  30  33
ENDBRANCH  26  29
ENDBRANCH   9  23
TORSDOF 5
ENDMDL
MODEL 2
REMARK VINA RESULT:      -8.5      8.354     12.477
REMARK  Name = 
REMARK  6 active torsions:
REMARK  status: ('A' for Active; 'I' for Inactive)
REMARK    1  A    between atoms: C_1  and  O_2
REMARK    2  A    between atoms: O_2  and  C_3
REMARK    3  A    between atoms: C_6  and  C_7
REMARK    4  A    between atoms: C_15  and  N_16
REMARK    5  A    between atoms: N_19  and  N_20
REMARK    6  A    between atoms: C_21  and  C_23
REMARK                            x       y       z     vdW  Elec       q    Type
REMARK                         _______ _______ _______ _____ _____    ______ ____
ROOT
ATOM      1  C   UNL     1       7.803  14.744  22.112  0.00  0.00    +0.000 A 
ATOM      2  N   UNL     1       7.618  15.809  21.236  0.00  0.00    +0.000 N 
ATOM      3  N   UNL     1       8.185  15.648  20.021  0.00  0.00    +0.000 NA
ATOM      4  C   UNL     1       8.545  14.377  20.077  0.00  0.00    +0.000 A 
ATOM      5  C   UNL     1       8.226  13.732  21.277  0.00  0.00    +0.000 A 
ATOM      6  C   UNL     1       8.628  12.335  21.187  0.00  0.00    +0.000 C 
ATOM      7  O   UNL     1       8.672  11.532  22.098  0.00  0.00    +0.000 OA
ATOM      8  C   UNL     1       9.157  12.184  19.752  0.00  0.00    +0.000 A 
ATOM      9  C   UNL     1       9.662  11.115  19.014  0.00  0.00    +0.000 A 
ATOM     10  C   UNL     1      10.405  11.434  17.855  0.00  0.00    +0.000 A 
ATOM     11  C   UNL     1      10.557  12.758  17.396  0.00  0.00    +0.000 A 
ATOM     12  C   UNL     1       9.924  13.804  18.051  0.00  0.00    +0.000 A 
ATOM     13  C   UNL     1       9.219  13.491  19.195  0.00  0.00    +0.000 A 
ATOM     14  H   UNL     1       7.189  16.704  21.448  0.00  0.00    +0.000 HD
ENDROOT
BRANCH   1  18
ATOM     15  C   UNL     1       7.359  15.163  26.357  0.00  0.00    +0.000 A 
ATOM     16  C   UNL     1       6.265  15.383  25.514  0.00  0.00    +0.000 A 
ATOM     17  C   UNL     1       6.379  15.245  24.118  0.00  0.00    +0.000 A 
ATOM     18  C   UNL     1       7.608  14.914  23.550  0.00  0.00    +0.000 A 
ATOM     19  C   UNL     1       8.704  14.707  24.409  0.00  0.00    +0.000 A 
ATOM     20  C   UNL     1       8.584  14.833  25.795  0.00  0.00    +0.000 A 
BRANCH  15  22
ATOM     21  C   UNL     1       7.829  16.407  28.314  0.00  0.00    +0.000 C 
ATOM     22  O   UNL     1       7.133  15.327  27.695  0.00  0.00    +0.000 OA
ENDBRANCH  15  22
ENDBRANCH   1  18
BRANCH   9  23
ATOM     23  N   UNL     1       9.461   9.736  19.250  0.00  0.00    +0.000 N 
ATOM     24  C   UNL     1       8.566   8.942  18.567  0.00  0.00    +0.000 C 
ATOM     25  O   UNL     1       7.810   9.315  17.675  0.00  0.00    +0.000 OA
ATOM     26  N   UNL     1       8.603   7.617  18.987  0.00  0.00    +0.000 N 
ATOM     27  H   UNL     1      10.228   9.233  19.671  0.00  0.00    +0.000 HD
ATOM     28  H   UNL     1       9.471   7.185  19.290  0.00  0.00    +0.000 HD
BRANCH  26  29
ATOM     29  N   UNL     1       7.713   6.747  18.331  0.00  0.00    +0.000 N 
ATOM     30  C   UNL     1       7.125   5.713  19.032  0.00  0.00    +0.000 C 
ATOM     31  O   UNL     1       7.423   5.415  20.184  0.00  0.00    +0.000 OA
ATOM     32  H   UNL     1       7.338   7.110  17.459  0.00  0.00    +0.000 HD
BRANCH  30  33
ATOM     33  C   UNL     1       6.061   4.974  18.294  0.00  0.00    +0.000 A 
ATOM     34  C   UNL     1       5.922   5.092  16.908  0.00  0.00    +0.000 A 
ATOM     35  C   UNL     1       4.896   4.394  16.298  0.00  0.00    +0.000 A 
ATOM     36  N   UNL     1       4.028   3.605  16.963  0.00  0.00    +0.000 NA
ATOM     37  C   UNL     1       4.194   3.496  18.300  0.00  0.00    +0.000 A 
ATOM     38  C   UNL     1       5.192   4.148  19.005  0.00  0.00    +0.000 A 
ENDBRANCH  30  33
ENDBRANCH  26  29
ENDBRANCH   9  23
TORSDOF 5
ENDMDL
MODEL 3
REMARK VINA RESULT:      -8.4      8.188     12.601
REMARK  Name = 
REMARK  6 active torsions:
REMARK  status: ('A' for Active; 'I' for Inactive)
REMARK    1  A    between atoms: C_1  and  O_2
REMARK    2  A    between atoms: O_2  and  C_3
REMARK    3  A    between atoms: C_6  and  C_7
REMARK    4  A    between atoms: C_15  and  N_16
REMARK    5  A    between atoms: N_19  and  N_20
REMARK    6  A    between atoms: C_21  and  C_23
REMARK                            x       y       z     vdW  Elec       q    Type
REMARK                         _______ _______ _______ _____ _____    ______ ____
ROOT
ATOM      1  C   UNL     1       8.030  14.906  21.974  0.00  0.00    +0.000 A 
ATOM      2  N   UNL     1       7.901  15.950  21.063  0.00  0.00    +0.000 N 
ATOM      3  N   UNL     1       8.479  15.731  19.863  0.00  0.00    +0.000 NA
ATOM      4  C   UNL     1       8.788  14.449  19.962  0.00  0.00    +0.000 A 
ATOM      5  C   UNL     1       8.426  13.854  21.175  0.00  0.00    +0.000 A 
ATOM      6  C   UNL     1       8.774  12.440  21.133  0.00  0.00    +0.000 C 
ATOM      7  O   UNL     1       8.774  11.664  22.069  0.00  0.00    +0.000 OA
ATOM      8  C   UNL     1       9.319  12.226  19.712  0.00  0.00    +0.000 A 
ATOM      9  C   UNL     1       9.793  11.116  19.015  0.00  0.00    +0.000 A 
ATOM     10  C   UNL     1      10.565  11.370  17.859  0.00  0.00    +0.000 A 
ATOM     11  C   UNL     1      10.776  12.673  17.364  0.00  0.00    +0.000 A 
ATOM     12  C   UNL     1      10.174  13.763  17.977  0.00  0.00    +0.000 A 
ATOM     13  C   UNL     1       9.440  13.511  19.118  0.00  0.00    +0.000 A 
ATOM     14  H   UNL     1       7.504  16.867  21.242  0.00  0.00    +0.000 HD
ENDROOT
BRANCH   1  18
ATOM     15  C   UNL     1       7.297  15.650  26.133  0.00  0.00    +0.000 A 
ATOM     16  C   UNL     1       8.530  15.133  25.721  0.00  0.00    +0.000 A 
ATOM     17  C   UNL     1       8.801  14.887  24.362  0.00  0.00    +0.000 A 
ATOM     18  C   UNL     1       7.820  15.127  23.402  0.00  0.00    +0.000 A 
ATOM     19  C   UNL     1       6.579  15.636  23.831  0.00  0.00    +0.000 A 
ATOM     20  C   UNL     1       6.318  15.892  25.180  0.00  0.00    +0.000 A 
BRANCH  15  22
ATOM     21  C   UNL     1       8.202  16.552  28.123  0.00  0.00    +0.000 C 
ATOM     22  O   UNL     1       7.144  15.848  27.476  0.00  0.00    +0.000 OA
ENDBRANCH  15  22
ENDBRANCH   1  18
BRANCH   9  23
ATOM     23  N   UNL     1       9.534   9.753  19.288  0.00  0.00    +0.000 N 
ATOM     24  C   UNL     1       8.623   8.972  18.611  0.00  0.00    +0.000 C 
ATOM     25  O   UNL     1       7.901   9.346  17.692  0.00  0.00    +0.000 OA
ATOM     26  N   UNL     1       8.601   7.662  19.071  0.00  0.00    +0.000 N 
ATOM     27  H   UNL     1      10.273   9.236  19.740  0.00  0.00    +0.000 HD
ATOM     28  H   UNL     1       9.447   7.207  19.406  0.00  0.00    +0.000 HD
BRANCH  26  29
ATOM     29  N   UNL     1       7.693   6.805  18.423  0.00  0.00    +0.000 N 
ATOM     30  C   UNL     1       7.188   5.708  19.093  0.00  0.00    +0.000 C 
ATOM     31  O   UNL     1       7.578   5.347  20.199  0.00  0.00    +0.000 OA
ATOM     32  H   UNL     1       7.245   7.211  17.605  0.00  0.00    +0.000 HD
BRANCH  30  33
ATOM     33  C   UNL     1       6.096   4.982  18.385  0.00  0.00    +0.000 A 
ATOM     34  C   UNL     1       4.957   4.541  19.065  0.00  0.00    +0.000 A 
ATOM     35  C   UNL     1       3.997   3.853  18.344  0.00  0.00    +0.000 A 
ATOM     36  N   UNL     1       4.097   3.591  17.026  0.00  0.00    +0.000 NA
ATOM     37  C   UNL     1       5.200   4.043  16.388  0.00  0.00    +0.000 A 
ATOM     38  C   UNL     1       6.215   4.745  17.017  0.00  0.00    +0.000 A 
ENDBRANCH  30  33
ENDBRANCH  26  29
ENDBRANCH   9  23
TORSDOF 5
ENDMDL
MODEL 4
REMARK VINA RESULT:      -8.4      0.587      1.005
REMARK  Name = 
REMARK  6 active torsions:
REMARK  status: ('A' for Active; 'I' for Inactive)
REMARK    1  A    between atoms: C_1  and  O_2
REMARK    2  A    between atoms: O_2  and  C_3
REMARK    3  A    between atoms: C_6  and  C_7
REMARK    4  A    between atoms: C_15  and  N_16
REMARK    5  A    between atoms: N_19  and  N_20
REMARK    6  A    between atoms: C_21  and  C_23
REMARK                            x       y       z     vdW  Elec       q    Type
REMARK                         _______ _______ _______ _____ _____    ______ ____
ROOT
ATOM      1  C   UNL     1       3.834   5.789  18.165  0.00  0.00    +0.000 A 
ATOM      2  N   UNL     1       3.670   4.886  19.211  0.00  0.00    +0.000 N 
ATOM      3  N   UNL     1       3.001   5.372  20.280  0.00  0.00    +0.000 NA
ATOM      4  C   UNL     1       2.564   6.524  19.801  0.00  0.00    +0.000 A 
ATOM      5  C   UNL     1       2.929   6.782  18.476  0.00  0.00    +0.000 A 
ATOM      6  C   UNL     1       2.345   8.050  18.060  0.00  0.00    +0.000 C 
ATOM      7  O   UNL     1       2.600   8.670  17.046  0.00  0.00    +0.000 OA
ATOM      8  C   UNL     1       1.508   8.496  19.269  0.00  0.00    +0.000 A 
ATOM      9  C   UNL     1       0.682   9.590  19.524  0.00  0.00    +0.000 A 
ATOM     10  C   UNL     1       0.385   9.864  20.878  0.00  0.00    +0.000 A 
ATOM     11  C   UNL     1       0.812   9.027  21.929  0.00  0.00    +0.000 A 
ATOM     12  C   UNL     1       1.505   7.856  21.656  0.00  0.00    +0.000 A 
ATOM     13  C   UNL     1       1.812   7.605  20.334  0.00  0.00    +0.000 A 
ATOM     14  H   UNL     1       4.070   3.956  19.281  0.00  0.00    +0.000 HD
ENDROOT
BRANCH   1  18
ATOM     15  C   UNL     1       6.865   5.270  15.177  0.00  0.00    +0.000 A 
ATOM     16  C   UNL     1       5.693   4.507  15.126  0.00  0.00    +0.000 A 
ATOM     17  C   UNL     1       4.679   4.662  16.088  0.00  0.00    +0.000 A 
ATOM     18  C   UNL     1       4.845   5.566  17.135  0.00  0.00    +0.000 A 
ATOM     19  C   UNL     1       6.034   6.319  17.181  0.00  0.00    +0.000 A 
ATOM     20  C   UNL     1       7.034   6.172  16.217  0.00  0.00    +0.000 A 
BRANCH  15  22
ATOM     21  C   UNL     1       7.251   4.597  12.942  0.00  0.00    +0.000 C 
ATOM     22  O   UNL     1       7.782   5.034  14.191  0.00  0.00    +0.000 OA
ENDBRANCH  15  22
ENDBRANCH   1  18
BRANCH   9  23
ATOM     23  N   UNL     1       0.045  10.426  18.578  0.00  0.00    +0.000 N 
ATOM     24  C   UNL     1      -1.254  10.875  18.672  0.00  0.00    +0.000 C 
ATOM     25  O   UNL     1      -2.043  10.606  19.573  0.00  0.00    +0.000 OA
ATOM     26  N   UNL     1      -1.606  11.708  17.617  0.00  0.00    +0.000 N 
ATOM     27  H   UNL     1       0.646  11.002  18.008  0.00  0.00    +0.000 HD
ATOM     28  H   UNL     1      -0.926  12.333  17.191  0.00  0.00    +0.000 HD
BRANCH  26  29
ATOM     29  N   UNL     1      -2.921  12.206  17.648  0.00  0.00    +0.000 N 
ATOM     30  C   UNL     1      -3.981  11.357  17.399  0.00  0.00    +0.000 C 
ATOM     31  O   UNL     1      -3.850  10.197  17.021  0.00  0.00    +0.000 OA
ATOM     32  H   UNL     1      -3.022  13.091  18.138  0.00  0.00    +0.000 HD
BRANCH  30  33
ATOM     33  C   UNL     1      -5.330  11.941  17.644  0.00  0.00    +0.000 A 
ATOM     34  C   UNL     1      -6.149  11.472  18.676  0.00  0.00    +0.000 A 
ATOM     35  C   UNL     1      -7.397  12.047  18.826  0.00  0.00    +0.000 A 
ATOM     36  N   UNL     1      -7.865  13.036  18.038  0.00  0.00    +0.000 NA
ATOM     37  C   UNL     1      -7.047  13.483  17.059  0.00  0.00    +0.000 A 
ATOM     38  C   UNL     1      -5.779  12.978  16.829  0.00  0.00    +0.000 A 
ENDBRANCH  30  33
ENDBRANCH  26  29
ENDBRANCH   9  23
TORSDOF 5
ENDMDL
MODEL 5
REMARK VINA RESULT:      -8.2      3.901     11.736
REMARK  Name = 
REMARK  6 active torsions:
REMARK  status: ('A' for Active; 'I' for Inactive)
REMARK    1  A    between atoms: C_1  and  O_2
REMARK    2  A    between atoms: O_2  and  C_3
REMARK    3  A    between atoms: C_6  and  C_7
REMARK    4  A    between atoms: C_15  and  N_16
REMARK    5  A    between atoms: N_19  and  N_20
REMARK    6  A    between atoms: C_21  and  C_23
REMARK                            x       y       z     vdW  Elec       q    Type
REMARK                         _______ _______ _______ _____ _____    ______ ____
ROOT
ATOM      1  C   UNL     1      -5.181  13.379  21.595  0.00  0.00    +0.000 A 
ATOM      2  N   UNL     1      -6.400  12.788  21.278  0.00  0.00    +0.000 N 
ATOM      3  N   UNL     1      -6.437  12.172  20.077  0.00  0.00    +0.000 NA
ATOM      4  C   UNL     1      -5.159  12.202  19.739  0.00  0.00    +0.000 A 
ATOM      5  C   UNL     1      -4.321  12.810  20.679  0.00  0.00    +0.000 A 
ATOM      6  C   UNL     1      -2.944  12.731  20.210  0.00  0.00    +0.000 C 
ATOM      7  O   UNL     1      -1.983  13.311  20.676  0.00  0.00    +0.000 OA
ATOM      8  C   UNL     1      -3.034  11.925  18.904  0.00  0.00    +0.000 A 
ATOM      9  C   UNL     1      -2.094  11.472  17.980  0.00  0.00    +0.000 A 
ATOM     10  C   UNL     1      -2.580  11.095  16.708  0.00  0.00    +0.000 A 
ATOM     11  C   UNL     1      -3.956  11.079  16.400  0.00  0.00    +0.000 A 
ATOM     12  C   UNL     1      -4.896  11.387  17.373  0.00  0.00    +0.000 A 
ATOM     13  C   UNL     1      -4.416  11.775  18.606  0.00  0.00    +0.000 A 
ATOM     14  H   UNL     1      -7.263  12.852  21.808  0.00  0.00    +0.000 HD
ENDROOT
BRANCH   1  18
ATOM     15  C   UNL     1      -5.036  16.434  24.600  0.00  0.00    +0.000 A 
ATOM     16  C   UNL     1      -3.917  15.628  24.367  0.00  0.00    +0.000 A 
ATOM     17  C   UNL     1      -3.933  14.624  23.382  0.00  0.00    +0.000 A 
ATOM     18  C   UNL     1      -5.090  14.395  22.640  0.00  0.00    +0.000 A 
ATOM     19  C   UNL     1      -6.214  15.206  22.893  0.00  0.00    +0.000 A 
ATOM     20  C   UNL     1      -6.190  16.210  23.863  0.00  0.00    +0.000 A 
BRANCH  15  22
ATOM     21  C   UNL     1      -3.959  18.410  25.328  0.00  0.00    +0.000 C 
ATOM     22  O   UNL     1      -4.908  17.376  25.582  0.00  0.00    +0.000 OA
ENDBRANCH  15  22
ENDBRANCH   1  18
BRANCH   9  23
ATOM     23  N   UNL     1      -0.710  11.277  18.187  0.00  0.00    +0.000 N 
ATOM     24  C   UNL     1      -0.008  10.152  17.813  0.00  0.00    +0.000 C 
ATOM     25  O   UNL     1      -0.480   9.159  17.267  0.00  0.00    +0.000 OA
ATOM     26  N   UNL     1       1.346  10.247  18.111  0.00  0.00    +0.000 N 
ATOM     27  H   UNL     1      -0.146  12.109  18.280  0.00  0.00    +0.000 HD
ATOM     28  H   UNL     1       1.834  11.137  18.064  0.00  0.00    +0.000 HD
BRANCH  26  29
ATOM     29  N   UNL     1       2.126   9.131  17.756  0.00  0.00    +0.000 N 
ATOM     30  C   UNL     1       2.257   8.078  18.639  0.00  0.00    +0.000 C 
ATOM     31  O   UNL     1       1.833   8.098  19.790  0.00  0.00    +0.000 OA
ATOM     32  H   UNL     1       2.305   9.045  16.759  0.00  0.00    +0.000 HD
BRANCH  30  33
ATOM     33  C   UNL     1       2.943   6.874  18.089  0.00  0.00    +0.000 A 
ATOM     34  C   UNL     1       4.137   6.983  17.371  0.00  0.00    +0.000 A 
ATOM     35  C   UNL     1       4.702   5.823  16.872  0.00  0.00    +0.000 A 
ATOM     36  N   UNL     1       4.168   4.597  17.044  0.00  0.00    +0.000 NA
ATOM     37  C   UNL     1       3.022   4.517  17.757  0.00  0.00    +0.000 A 
ATOM     38  C   UNL     1       2.381   5.617  18.302  0.00  0.00    +0.000 A 
ENDBRANCH  30  33
ENDBRANCH  26  29
ENDBRANCH   9  23
TORSDOF 5
ENDMDL
MODEL 6
REMARK VINA RESULT:      -8.1      3.527     10.807
REMARK  Name = 
REMARK  6 active torsions:
REMARK  status: ('A' for Active; 'I' for Inactive)
REMARK    1  A    between atoms: C_1  and  O_2
REMARK    2  A    between atoms: O_2  and  C_3
REMARK    3  A    between atoms: C_6  and  C_7
REMARK    4  A    between atoms: C_15  and  N_16
REMARK    5  A    between atoms: N_19  and  N_20
REMARK    6  A    between atoms: C_21  and  C_23
REMARK                            x       y       z     vdW  Elec       q    Type
REMARK                         _______ _______ _______ _____ _____    ______ ____
ROOT
ATOM      1  C   UNL     1      -2.375  14.144  20.607  0.00  0.00    +0.000 A 
ATOM      2  N   UNL     1      -2.228  15.506  20.359  0.00  0.00    +0.000 N 
ATOM      3  N   UNL     1      -1.019  15.867  19.877  0.00  0.00    +0.000 NA
ATOM      4  C   UNL     1      -0.484  14.684  19.625  0.00  0.00    +0.000 A 
ATOM      5  C   UNL     1      -1.308  13.595  19.928  0.00  0.00    +0.000 A 
ATOM      6  C   UNL     1      -0.622  12.365  19.558  0.00  0.00    +0.000 C 
ATOM      7  O   UNL     1      -0.957  11.232  19.845  0.00  0.00    +0.000 OA
ATOM      8  C   UNL     1       0.690  12.840  18.914  0.00  0.00    +0.000 A 
ATOM      9  C   UNL     1       1.772  12.186  18.327  0.00  0.00    +0.000 A 
ATOM     10  C   UNL     1       2.968  12.928  18.191  0.00  0.00    +0.000 A 
ATOM     11  C   UNL     1       3.054  14.292  18.536  0.00  0.00    +0.000 A 
ATOM     12  C   UNL     1       1.930  14.976  18.978  0.00  0.00    +0.000 A 
ATOM     13  C   UNL     1       0.771  14.242  19.130  0.00  0.00    +0.000 A 
ATOM     14  H   UNL     1      -2.891  16.240  20.585  0.00  0.00    +0.000 HD
ENDROOT
BRANCH   1  18
ATOM     15  C   UNL     1      -5.395  12.630  23.248  0.00  0.00    +0.000 A 
ATOM     16  C   UNL     1      -5.741  13.061  21.962  0.00  0.00    +0.000 A 
ATOM     17  C   UNL     1      -4.770  13.555  21.072  0.00  0.00    +0.000 A 
ATOM     18  C   UNL     1      -3.440  13.652  21.476  0.00  0.00    +0.000 A 
ATOM     19  C   UNL     1      -3.107  13.226  22.777  0.00  0.00    +0.000 A 
ATOM     20  C   UNL     1      -4.071  12.724  23.654  0.00  0.00    +0.000 A 
BRANCH  15  22
ATOM     21  C   UNL     1      -7.694  12.094  23.392  0.00  0.00    +0.000 C 
ATOM     22  O   UNL     1      -6.420  12.171  24.027  0.00  0.00    +0.000 OA
ENDBRANCH  15  22
ENDBRANCH   1  18
BRANCH   9  23
ATOM     23  N   UNL     1       1.798  10.881  17.785  0.00  0.00    +0.000 N 
ATOM     24  C   UNL     1       1.784   9.720  18.526  0.00  0.00    +0.000 C 
ATOM     25  O   UNL     1       1.763   9.649  19.751  0.00  0.00    +0.000 OA
ATOM     26  N   UNL     1       1.784   8.581  17.729  0.00  0.00    +0.000 N 
ATOM     27  H   UNL     1       1.459  10.778  16.840  0.00  0.00    +0.000 HD
ATOM     28  H   UNL     1       1.307   8.567  16.831  0.00  0.00    +0.000 HD
BRANCH  26  29
ATOM     29  N   UNL     1       1.769   7.356  18.420  0.00  0.00    +0.000 N 
ATOM     30  C   UNL     1       2.819   6.472  18.268  0.00  0.00    +0.000 C 
ATOM     31  O   UNL     1       3.728   6.626  17.459  0.00  0.00    +0.000 OA
ATOM     32  H   UNL     1       1.128   7.327  19.208  0.00  0.00    +0.000 HD
BRANCH  30  33
ATOM     33  C   UNL     1       2.794   5.298  19.186  0.00  0.00    +0.000 A 
ATOM     34  C   UNL     1       1.940   5.258  20.292  0.00  0.00    +0.000 A 
ATOM     35  C   UNL     1       1.991   4.146  21.111  0.00  0.00    +0.000 A 
ATOM     36  N   UNL     1       2.812   3.097  20.900  0.00  0.00    +0.000 NA
ATOM     37  C   UNL     1       3.616   3.153  19.814  0.00  0.00    +0.000 A 
ATOM     38  C   UNL     1       3.637   4.218  18.930  0.00  0.00    +0.000 A 
ENDBRANCH  30  33
ENDBRANCH  26  29
ENDBRANCH   9  23
TORSDOF 5
ENDMDL
MODEL 7
REMARK VINA RESULT:      -8.1      3.460     10.855
REMARK  Name = 
REMARK  6 active torsions:
REMARK  status: ('A' for Active; 'I' for Inactive)
REMARK    1  A    between atoms: C_1  and  O_2
REMARK    2  A    between atoms: O_2  and  C_3
REMARK    3  A    between atoms: C_6  and  C_7
REMARK    4  A    between atoms: C_15  and  N_16
REMARK    5  A    between atoms: N_19  and  N_20
REMARK    6  A    between atoms: C_21  and  C_23
REMARK                            x       y       z     vdW  Elec       q    Type
REMARK                         _______ _______ _______ _____ _____    ______ ____
ROOT
ATOM      1  C   UNL     1      -2.454  14.064  20.462  0.00  0.00    +0.000 A 
ATOM      2  N   UNL     1      -2.299  15.424  20.212  0.00  0.00    +0.000 N 
ATOM      3  N   UNL     1      -1.075  15.784  19.768  0.00  0.00    +0.000 NA
ATOM      4  C   UNL     1      -0.532  14.599  19.541  0.00  0.00    +0.000 A 
ATOM      5  C   UNL     1      -1.364  13.511  19.823  0.00  0.00    +0.000 A 
ATOM      6  C   UNL     1      -0.667  12.279  19.483  0.00  0.00    +0.000 C 
ATOM      7  O   UNL     1      -1.011  11.147  19.765  0.00  0.00    +0.000 OA
ATOM      8  C   UNL     1       0.666  12.751  18.881  0.00  0.00    +0.000 A 
ATOM      9  C   UNL     1       1.768  12.094  18.335  0.00  0.00    +0.000 A 
ATOM     10  C   UNL     1       2.967  12.835  18.235  0.00  0.00    +0.000 A 
ATOM     11  C   UNL     1       3.041  14.201  18.575  0.00  0.00    +0.000 A 
ATOM     12  C   UNL     1       1.903  14.888  18.974  0.00  0.00    +0.000 A 
ATOM     13  C   UNL     1       0.740  14.155  19.091  0.00  0.00    +0.000 A 
ATOM     14  H   UNL     1      -2.970  16.159  20.410  0.00  0.00    +0.000 HD
ENDROOT
BRANCH   1  18
ATOM     15  C   UNL     1      -5.760  12.647  22.796  0.00  0.00    +0.000 A 
ATOM     16  C   UNL     1      -4.609  13.125  23.431  0.00  0.00    +0.000 A 
ATOM     17  C   UNL     1      -3.512  13.603  22.691  0.00  0.00    +0.000 A 
ATOM     18  C   UNL     1      -3.548  13.577  21.298  0.00  0.00    +0.000 A 
ATOM     19  C   UNL     1      -4.708  13.082  20.672  0.00  0.00    +0.000 A 
ATOM     20  C   UNL     1      -5.800  12.620  21.410  0.00  0.00    +0.000 A 
BRANCH  15  22
ATOM     21  C   UNL     1      -7.698  13.196  24.036  0.00  0.00    +0.000 C 
ATOM     22  O   UNL     1      -6.762  12.207  23.615  0.00  0.00    +0.000 OA
ENDBRANCH  15  22
ENDBRANCH   1  18
BRANCH   9  23
ATOM     23  N   UNL     1       1.812  10.786  17.802  0.00  0.00    +0.000 N 
ATOM     24  C   UNL     1       1.807   9.629  18.550  0.00  0.00    +0.000 C 
ATOM     25  O   UNL     1       1.778   9.567  19.776  0.00  0.00    +0.000 OA
ATOM     26  N   UNL     1       1.825   8.486  17.761  0.00  0.00    +0.000 N 
ATOM     27  H   UNL     1       1.480  10.673  16.856  0.00  0.00    +0.000 HD
ATOM     28  H   UNL     1       1.354   8.460  16.860  0.00  0.00    +0.000 HD
BRANCH  26  29
ATOM     29  N   UNL     1       1.820   7.264  18.460  0.00  0.00    +0.000 N 
ATOM     30  C   UNL     1       2.864   6.377  18.295  0.00  0.00    +0.000 C 
ATOM     31  O   UNL     1       3.759   6.524  17.468  0.00  0.00    +0.000 OA
ATOM     32  H   UNL     1       1.194   7.243  19.260  0.00  0.00    +0.000 HD
BRANCH  30  33
ATOM     33  C   UNL     1       2.853   5.209  19.220  0.00  0.00    +0.000 A 
ATOM     34  C   UNL     1       3.645   4.082  18.978  0.00  0.00    +0.000 A 
ATOM     35  C   UNL     1       3.563   3.028  19.870  0.00  0.00    +0.000 A 
ATOM     36  N   UNL     1       2.767   3.029  20.958  0.00  0.00    +0.000 NA
ATOM     37  C   UNL     1       2.024   4.137  21.178  0.00  0.00    +0.000 A 
ATOM     38  C   UNL     1       2.039   5.246  20.350  0.00  0.00    +0.000 A 
ENDBRANCH  30  33
ENDBRANCH  26  29
ENDBRANCH   9  23
TORSDOF 5
ENDMDL
MODEL 8
REMARK VINA RESULT:      -8.0      3.416      4.328
REMARK  Name = 
REMARK  6 active torsions:
REMARK  status: ('A' for Active; 'I' for Inactive)
REMARK    1  A    between atoms: C_1  and  O_2
REMARK    2  A    between atoms: O_2  and  C_3
REMARK    3  A    between atoms: C_6  and  C_7
REMARK    4  A    between atoms: C_15  and  N_16
REMARK    5  A    between atoms: N_19  and  N_20
REMARK    6  A    between atoms: C_21  and  C_23
REMARK                            x       y       z     vdW  Elec       q    Type
REMARK                         _______ _______ _______ _____ _____    ______ ____
ROOT
ATOM      1  C   UNL     1       3.809   5.647  17.875  0.00  0.00    +0.000 A 
ATOM      2  N   UNL     1       3.516   4.590  18.732  0.00  0.00    +0.000 N 
ATOM      3  N   UNL     1       2.799   4.928  19.826  0.00  0.00    +0.000 NA
ATOM      4  C   UNL     1       2.465   6.174  19.532  0.00  0.00    +0.000 A 
ATOM      5  C   UNL     1       2.942   6.631  18.299  0.00  0.00    +0.000 A 
ATOM      6  C   UNL     1       2.463   7.989  18.079  0.00  0.00    +0.000 C 
ATOM      7  O   UNL     1       2.828   8.756  17.210  0.00  0.00    +0.000 OA
ATOM      8  C   UNL     1       1.565   8.276  19.293  0.00  0.00    +0.000 A 
ATOM      9  C   UNL     1       0.787   9.364  19.685  0.00  0.00    +0.000 A 
ATOM     10  C   UNL     1       0.406   9.419  21.045  0.00  0.00    +0.000 A 
ATOM     11  C   UNL     1       0.706   8.385  21.955  0.00  0.00    +0.000 A 
ATOM     12  C   UNL     1       1.349   7.235  21.523  0.00  0.00    +0.000 A 
ATOM     13  C   UNL     1       1.739   7.196  20.200  0.00  0.00    +0.000 A 
ATOM     14  H   UNL     1       3.856   3.637  18.660  0.00  0.00    +0.000 HD
ENDROOT
BRANCH   1  18
ATOM     15  C   UNL     1       6.897   5.181  14.937  0.00  0.00    +0.000 A 
ATOM     16  C   UNL     1       7.043   6.121  15.963  0.00  0.00    +0.000 A 
ATOM     17  C   UNL     1       6.050   6.289  16.945  0.00  0.00    +0.000 A 
ATOM     18  C   UNL     1       4.879   5.535  16.888  0.00  0.00    +0.000 A 
ATOM     19  C   UNL     1       4.740   4.602  15.843  0.00  0.00    +0.000 A 
ATOM     20  C   UNL     1       5.734   4.428  14.877  0.00  0.00    +0.000 A 
BRANCH  15  22
ATOM     21  C   UNL     1       7.557   4.751  12.707  0.00  0.00    +0.000 C 
ATOM     22  O   UNL     1       7.924   5.104  14.038  0.00  0.00    +0.000 OA
ENDBRANCH  15  22
ENDBRANCH   1  18
BRANCH   9  23
ATOM     23  N   UNL     1       0.271  10.393  18.865  0.00  0.00    +0.000 N 
ATOM     24  C   UNL     1       0.675  11.710  18.904  0.00  0.00    +0.000 C 
ATOM     25  O   UNL     1       1.522  12.179  19.659  0.00  0.00    +0.000 OA
ATOM     26  N   UNL     1       0.020  12.494  17.963  0.00  0.00    +0.000 N 
ATOM     27  H   UNL     1      -0.139  10.108  17.988  0.00  0.00    +0.000 HD
ATOM     28  H   UNL     1      -0.250  12.117  17.058  0.00  0.00    +0.000 HD
BRANCH  26  29
ATOM     29  N   UNL     1       0.384  13.854  17.945  0.00  0.00    +0.000 N 
ATOM     30  C   UNL     1      -0.206  14.732  18.831  0.00  0.00    +0.000 C 
ATOM     31  O   UNL     1      -1.140  14.431  19.569  0.00  0.00    +0.000 OA
ATOM     32  H   UNL     1       1.268  14.044  17.480  0.00  0.00    +0.000 HD
BRANCH  30  33
ATOM     33  C   UNL     1       0.387  16.099  18.856  0.00  0.00    +0.000 A 
ATOM     34  C   UNL     1      -0.107  17.121  18.039  0.00  0.00    +0.000 A 
ATOM     35  C   UNL     1       0.511  18.356  18.100  0.00  0.00    +0.000 A 
ATOM     36  N   UNL     1       1.557  18.631  18.905  0.00  0.00    +0.000 NA
ATOM     37  C   UNL     1       2.005  17.630  19.697  0.00  0.00    +0.000 A 
ATOM     38  C   UNL     1       1.453  16.361  19.715  0.00  0.00    +0.000 A 
ENDBRANCH  30  33
ENDBRANCH  26  29
ENDBRANCH   9  23
TORSDOF 5
ENDMDL
MODEL 9
REMARK VINA RESULT:      -8.0      4.676     10.508
REMARK  Name = 
REMARK  6 active torsions:
REMARK  status: ('A' for Active; 'I' for Inactive)
REMARK    1  A    between atoms: C_1  and  O_2
REMARK    2  A    between atoms: O_2  and  C_3
REMARK    3  A    between atoms: C_6  and  C_7
REMARK    4  A    between atoms: C_15  and  N_16
REMARK    5  A    between atoms: N_19  and  N_20
REMARK    6  A    between atoms: C_21  and  C_23
REMARK                            x       y       z     vdW  Elec       q    Type
REMARK                         _______ _______ _______ _____ _____    ______ ____
ROOT
ATOM      1  C   UNL     1       1.254  15.100  19.693  0.00  0.00    +0.000 A 
ATOM      2  N   UNL     1       0.027  15.724  19.902  0.00  0.00    +0.000 N 
ATOM      3  N   UNL     1      -1.049  14.997  19.531  0.00  0.00    +0.000 NA
ATOM      4  C   UNL     1      -0.489  13.825  19.285  0.00  0.00    +0.000 A 
ATOM      5  C   UNL     1       0.895  13.785  19.487  0.00  0.00    +0.000 A 
ATOM      6  C   UNL     1       1.373  12.434  19.231  0.00  0.00    +0.000 C 
ATOM      7  O   UNL     1       2.532  12.080  19.131  0.00  0.00    +0.000 OA
ATOM      8  C   UNL     1       0.098  11.631  18.927  0.00  0.00    +0.000 A 
ATOM      9  C   UNL     1      -0.155  10.293  18.631  0.00  0.00    +0.000 A 
ATOM     10  C   UNL     1      -1.402   9.996  18.035  0.00  0.00    +0.000 A 
ATOM     11  C   UNL     1      -2.393  10.977  17.829  0.00  0.00    +0.000 A 
ATOM     12  C   UNL     1      -2.192  12.279  18.265  0.00  0.00    +0.000 A 
ATOM     13  C   UNL     1      -0.966  12.568  18.826  0.00  0.00    +0.000 A 
ATOM     14  H   UNL     1      -0.125  16.678  20.214  0.00  0.00    +0.000 HD
ENDROOT
BRANCH   1  18
ATOM     15  C   UNL     1       4.945  17.274  19.506  0.00  0.00    +0.000 A 
ATOM     16  C   UNL     1       4.092  17.436  20.604  0.00  0.00    +0.000 A 
ATOM     17  C   UNL     1       2.879  16.730  20.695  0.00  0.00    +0.000 A 
ATOM     18  C   UNL     1       2.492  15.874  19.666  0.00  0.00    +0.000 A 
ATOM     19  C   UNL     1       3.354  15.729  18.562  0.00  0.00    +0.000 A 
ATOM     20  C   UNL     1       4.564  16.422  18.480  0.00  0.00    +0.000 A 
BRANCH  15  22
ATOM     21  C   UNL     1       6.562  18.405  20.811  0.00  0.00    +0.000 C 
ATOM     22  O   UNL     1       6.096  18.011  19.523  0.00  0.00    +0.000 OA
ENDBRANCH  15  22
ENDBRANCH   1  18
BRANCH   9  23
ATOM     23  N   UNL     1       0.664   9.178  18.922  0.00  0.00    +0.000 N 
ATOM     24  C   UNL     1       1.763   8.794  18.185  0.00  0.00    +0.000 C 
ATOM     25  O   UNL     1       2.178   9.349  17.172  0.00  0.00    +0.000 OA
ATOM     26  N   UNL     1       2.398   7.680  18.719  0.00  0.00    +0.000 N 
ATOM     27  H   UNL     1       0.672   8.861  19.880  0.00  0.00    +0.000 HD
ATOM     28  H   UNL     1       2.433   7.525  19.723  0.00  0.00    +0.000 HD
BRANCH  26  29
ATOM     29  N   UNL     1       3.532   7.231  18.017  0.00  0.00    +0.000 N 
ATOM     30  C   UNL     1       4.226   6.128  18.471  0.00  0.00    +0.000 C 
ATOM     31  O   UNL     1       3.994   5.569  19.538  0.00  0.00    +0.000 OA
ATOM     32  H   UNL     1       3.595   7.573  17.062  0.00  0.00    +0.000 HD
BRANCH  30  33
ATOM     33  C   UNL     1       5.289   5.628  17.553  0.00  0.00    +0.000 A 
ATOM     34  C   UNL     1       6.452   5.029  18.045  0.00  0.00    +0.000 A 
ATOM     35  C   UNL     1       7.403   4.612  17.132  0.00  0.00    +0.000 A 
ATOM     36  N   UNL     1       7.269   4.746  15.798  0.00  0.00    +0.000 NA
ATOM     37  C   UNL     1       6.127   5.313  15.347  0.00  0.00    +0.000 A 
ATOM     38  C   UNL     1       5.113   5.759  16.177  0.00  0.00    +0.000 A 
ENDBRANCH  30  33
ENDBRANCH  26  29
ENDBRANCH   9  23
TORSDOF 5
ENDMDL
