MODEL 1
REMARK VINA RESULT:      -7.9      0.000      0.000
REMARK  Name = 
REMARK  10 active torsions:
REMARK  status: ('A' for Active; 'I' for Inactive)
REMARK    1  A    between atoms: C_1  and  C_2
REMARK    2  A    between atoms: C_5  and  C_6
REMARK    3  A    between atoms: C_6  and  N_7
REMARK    4  A    between atoms: C_13  and  C_14
REMARK    5  A    between atoms: N_16  and  C_17
REMARK    6  A    between atoms: C_17  and  C_18
REMARK    7  A    between atoms: C_18  and  C_19
REMARK    8  A    between atoms: N_21  and  C_22
REMARK    9  A    between atoms: C_22  and  C_23
REMARK   10  A    between atoms: C_23  and  N_24
REMARK                            x       y       z     vdW  Elec       q    Type
REMARK                         _______ _______ _______ _____ _____    ______ ____
ROOT
ATOM      1  N   UNL     1       0.657  10.242  20.108  0.00  0.00    +0.000 N 
ATOM      2  C   UNL     1       0.379   9.983  18.700  0.00  0.00    +0.000 C 
ATOM      3  C   UNL     1       1.664   9.883  17.886  0.00  0.00    +0.000 C 
ATOM      4  C   UNL     1       2.552   8.670  18.170  0.00  0.00    +0.000 C 
ATOM      5  N   UNL     1       2.096   7.726  19.168  0.00  0.00    +0.000 N 
ATOM      6  N   UNL     1       2.339   6.404  18.971  0.00  0.00    +0.000 NA
ATOM      7  C   UNL     1       1.990   5.832  20.143  0.00  0.00    +0.000 A 
ATOM      8  C   UNL     1       1.518   6.801  21.053  0.00  0.00    +0.000 A 
ATOM      9  C   UNL     1       1.580   8.015  20.402  0.00  0.00    +0.000 A 
ATOM     10  C   UNL     1       1.233   9.299  20.956  0.00  0.00    +0.000 C 
ATOM     11  O   UNL     1       1.411   9.533  22.150  0.00  0.00    +0.000 OA
ENDROOT
BRANCH   7  12
ATOM     12  C   UNL     1       2.110   4.394  20.423  0.00  0.00    +0.000 C 
ATOM     13  O   UNL     1       1.244   3.771  21.026  0.00  0.00    +0.000 OA
ATOM     14  N   UNL     1       3.270   3.813  19.957  0.00  0.00    +0.000 N 
ATOM     15  H   UNL     1       3.904   4.421  19.451  0.00  0.00    +0.000 HD
BRANCH  14  16
ATOM     16  C   UNL     1       3.548   2.412  20.176  0.00  0.00    +0.000 C 
BRANCH  16  17
ATOM     17  C   UNL     1       3.452   1.602  18.895  0.00  0.00    +0.000 C 
BRANCH  17  18
ATOM     18  C   UNL     1       3.425   2.564  17.741  0.00  0.00    +0.000 C 
ATOM     19  O   UNL     1       2.376   2.798  17.151  0.00  0.00    +0.000 OA
ATOM     20  N   UNL     1       4.652   3.097  17.397  0.00  0.00    +0.000 N 
ATOM     21  H   UNL     1       5.479   2.676  17.799  0.00  0.00    +0.000 HD
BRANCH  20  22
ATOM     22  C   UNL     1       4.857   3.953  16.228  0.00  0.00    +0.000 C 
BRANCH  22  23
ATOM     23  C   UNL     1       5.584   5.276  16.537  0.00  0.00    +0.000 C 
BRANCH  23  24
ATOM     24  N   UNL     1       7.057   5.289  16.418  0.00  0.00    +0.000 NA
ATOM     25  C   UNL     1       7.634   4.665  17.644  0.00  0.00    +0.000 C 
ATOM     26  C   UNL     1       7.475   5.518  18.924  0.00  0.00    +0.000 C 
ATOM     27  O   UNL     1       8.037   6.826  18.748  0.00  0.00    +0.000 OA
ATOM     28  C   UNL     1       7.446   7.492  17.625  0.00  0.00    +0.000 C 
ATOM     29  C   UNL     1       7.612   6.663  16.337  0.00  0.00    +0.000 C 
ENDBRANCH  23  24
ENDBRANCH  22  23
ENDBRANCH  20  22
ENDBRANCH  17  18
ENDBRANCH  16  17
ENDBRANCH  14  16
ENDBRANCH   7  12
BRANCH   1  30
ATOM     30  C   UNL     1       0.127  11.465  20.709  0.00  0.00    +0.000 C 
BRANCH  30  35
ATOM     31  C   UNL     1       1.949  16.513  18.397  0.00  0.00    +0.000 C 
ATOM     32  C   UNL     1       1.489  15.193  18.940  0.00  0.00    +0.000 A 
ATOM     33  C   UNL     1       0.150  14.805  18.846  0.00  0.00    +0.000 A 
ATOM     34  C   UNL     1      -0.276  13.593  19.396  0.00  0.00    +0.000 A 
ATOM     35  C   UNL     1       0.623  12.739  20.055  0.00  0.00    +0.000 A 
ATOM     36  C   UNL     1       1.971  13.118  20.120  0.00  0.00    +0.000 A 
ATOM     37  C   UNL     1       2.396  14.335  19.573  0.00  0.00    +0.000 A 
ENDBRANCH  30  35
ENDBRANCH   1  30
TORSDOF 9
ENDMDL
MODEL 2
REMARK VINA RESULT:      -7.7      0.622      1.047
REMARK  Name = 
REMARK  10 active torsions:
REMARK  status: ('A' for Active; 'I' for Inactive)
REMARK    1  A    between atoms: C_1  and  C_2
REMARK    2  A    between atoms: C_5  and  C_6
REMARK    3  A    between atoms: C_6  and  N_7
REMARK    4  A    between atoms: C_13  and  C_14
REMARK    5  A    between atoms: N_16  and  C_17
REMARK    6  A    between atoms: C_17  and  C_18
REMARK    7  A    between atoms: C_18  and  C_19
REMARK    8  A    between atoms: N_21  and  C_22
REMARK    9  A    between atoms: C_22  and  C_23
REMARK   10  A    between atoms: C_23  and  N_24
REMARK                            x       y       z     vdW  Elec       q    Type
REMARK                         _______ _______ _______ _____ _____    ______ ____
ROOT
ATOM      1  N   UNL     1       0.449  10.377  20.081  0.00  0.00    +0.000 N 
ATOM      2  C   UNL     1       0.133  10.041  18.698  0.00  0.00    +0.000 C 
ATOM      3  C   UNL     1       1.389   9.984  17.836  0.00  0.00    +0.000 C 
ATOM      4  C   UNL     1       2.362   8.840  18.133  0.00  0.00    +0.000 C 
ATOM      5  N   UNL     1       2.004   7.915  19.187  0.00  0.00    +0.000 N 
ATOM      6  N   UNL     1       2.321   6.603  19.035  0.00  0.00    +0.000 NA
ATOM      7  C   UNL     1       2.053   6.062  20.243  0.00  0.00    +0.000 A 
ATOM      8  C   UNL     1       1.557   7.040  21.131  0.00  0.00    +0.000 A 
ATOM      9  C   UNL     1       1.519   8.225  20.428  0.00  0.00    +0.000 A 
ATOM     10  C   UNL     1       1.114   9.509  20.942  0.00  0.00    +0.000 C 
ATOM     11  O   UNL     1       1.323   9.805  22.118  0.00  0.00    +0.000 OA
ENDROOT
BRANCH   7  12
ATOM     12  C   UNL     1       2.273   4.648  20.577  0.00  0.00    +0.000 C 
ATOM     13  O   UNL     1       1.745   4.115  21.545  0.00  0.00    +0.000 OA
ATOM     14  N   UNL     1       3.119   3.980  19.717  0.00  0.00    +0.000 N 
ATOM     15  H   UNL     1       3.479   4.515  18.935  0.00  0.00    +0.000 HD
BRANCH  14  16
ATOM     16  C   UNL     1       3.455   2.590  19.926  0.00  0.00    +0.000 C 
BRANCH  16  17
ATOM     17  C   UNL     1       3.203   1.747  18.687  0.00  0.00    +0.000 C 
BRANCH  17  18
ATOM     18  C   UNL     1       3.439   2.614  17.483  0.00  0.00    +0.000 C 
ATOM     19  O   UNL     1       2.498   2.979  16.786  0.00  0.00    +0.000 OA
ATOM     20  N   UNL     1       4.763   2.906  17.224  0.00  0.00    +0.000 N 
ATOM     21  H   UNL     1       5.469   2.382  17.724  0.00  0.00    +0.000 HD
BRANCH  20  22
ATOM     22  C   UNL     1       5.209   3.628  16.032  0.00  0.00    +0.000 C 
BRANCH  22  23
ATOM     23  C   UNL     1       5.530   5.115  16.281  0.00  0.00    +0.000 C 
BRANCH  23  24
ATOM     24  N   UNL     1       5.370   5.628  17.658  0.00  0.00    +0.000 NA
ATOM     25  C   UNL     1       5.629   7.097  17.646  0.00  0.00    +0.000 C 
ATOM     26  C   UNL     1       7.108   7.477  17.405  0.00  0.00    +0.000 C 
ATOM     27  O   UNL     1       7.969   6.851  18.366  0.00  0.00    +0.000 OA
ATOM     28  C   UNL     1       7.807   5.427  18.349  0.00  0.00    +0.000 C 
ATOM     29  C   UNL     1       6.341   5.030  18.607  0.00  0.00    +0.000 C 
ENDBRANCH  23  24
ENDBRANCH  22  23
ENDBRANCH  20  22
ENDBRANCH  17  18
ENDBRANCH  16  17
ENDBRANCH  14  16
ENDBRANCH   7  12
BRANCH   1  30
ATOM     30  C   UNL     1      -0.134  11.591  20.652  0.00  0.00    +0.000 C 
BRANCH  30  35
ATOM     31  C   UNL     1       1.915  16.677  18.630  0.00  0.00    +0.000 C 
ATOM     32  C   UNL     1       1.407  15.347  19.101  0.00  0.00    +0.000 A 
ATOM     33  C   UNL     1       0.126  14.905  18.760  0.00  0.00    +0.000 A 
ATOM     34  C   UNL     1      -0.353  13.684  19.243  0.00  0.00    +0.000 A 
ATOM     35  C   UNL     1       0.433  12.876  20.079  0.00  0.00    +0.000 A 
ATOM     36  C   UNL     1       1.727  13.309  20.395  0.00  0.00    +0.000 A 
ATOM     37  C   UNL     1       2.205  14.534  19.915  0.00  0.00    +0.000 A 
ENDBRANCH  30  35
ENDBRANCH   1  30
TORSDOF 9
ENDMDL
MODEL 3
REMARK VINA RESULT:      -7.6      2.027      2.450
REMARK  Name = 
REMARK  10 active torsions:
REMARK  status: ('A' for Active; 'I' for Inactive)
REMARK    1  A    between atoms: C_1  and  C_2
REMARK    2  A    between atoms: C_5  and  C_6
REMARK    3  A    between atoms: C_6  and  N_7
REMARK    4  A    between atoms: C_13  and  C_14
REMARK    5  A    between atoms: N_16  and  C_17
REMARK    6  A    between atoms: C_17  and  C_18
REMARK    7  A    between atoms: C_18  and  C_19
REMARK    8  A    between atoms: N_21  and  C_22
REMARK    9  A    between atoms: C_22  and  C_23
REMARK   10  A    between atoms: C_23  and  N_24
REMARK                            x       y       z     vdW  Elec       q    Type
REMARK                         _______ _______ _______ _____ _____    ______ ____
ROOT
ATOM      1  N   UNL     1      -0.830  11.121  20.937  0.00  0.00    +0.000 N 
ATOM      2  C   UNL     1      -1.156  10.964  19.525  0.00  0.00    +0.000 C 
ATOM      3  C   UNL     1       0.004  11.390  18.633  0.00  0.00    +0.000 C 
ATOM      4  C   UNL     1       1.253  10.507  18.680  0.00  0.00    +0.000 C 
ATOM      5  N   UNL     1       1.222   9.349  19.548  0.00  0.00    +0.000 N 
ATOM      6  N   UNL     1       1.846   8.214  19.140  0.00  0.00    +0.000 NA
ATOM      7  C   UNL     1       1.817   7.418  20.230  0.00  0.00    +0.000 A 
ATOM      8  C   UNL     1       1.160   8.059  21.301  0.00  0.00    +0.000 A 
ATOM      9  C   UNL     1       0.771   9.298  20.838  0.00  0.00    +0.000 A 
ATOM     10  C   UNL     1       0.096  10.319  21.599  0.00  0.00    +0.000 C 
ATOM     11  O   UNL     1       0.314  10.447  22.803  0.00  0.00    +0.000 OA
ENDROOT
BRANCH   7  12
ATOM     12  C   UNL     1       2.410   6.074  20.282  0.00  0.00    +0.000 C 
ATOM     13  O   UNL     1       3.503   5.822  19.788  0.00  0.00    +0.000 OA
ATOM     14  N   UNL     1       1.638   5.130  20.926  0.00  0.00    +0.000 N 
ATOM     15  H   UNL     1       0.762   5.458  21.317  0.00  0.00    +0.000 HD
BRANCH  14  16
ATOM     16  C   UNL     1       2.072   3.757  21.038  0.00  0.00    +0.000 C 
BRANCH  16  17
ATOM     17  C   UNL     1       1.331   2.841  20.078  0.00  0.00    +0.000 C 
BRANCH  17  18
ATOM     18  C   UNL     1       2.226   2.587  18.898  0.00  0.00    +0.000 C 
ATOM     19  O   UNL     1       2.907   1.569  18.843  0.00  0.00    +0.000 OA
ATOM     20  N   UNL     1       2.240   3.590  17.949  0.00  0.00    +0.000 N 
ATOM     21  H   UNL     1       1.817   4.476  18.191  0.00  0.00    +0.000 HD
BRANCH  20  22
ATOM     22  C   UNL     1       3.137   3.590  16.793  0.00  0.00    +0.000 C 
BRANCH  22  23
ATOM     23  C   UNL     1       4.480   4.305  17.038  0.00  0.00    +0.000 C 
BRANCH  23  24
ATOM     24  N   UNL     1       4.718   5.575  16.321  0.00  0.00    +0.000 NA
ATOM     25  C   UNL     1       5.500   5.279  15.086  0.00  0.00    +0.000 C 
ATOM     26  C   UNL     1       6.965   4.859  15.349  0.00  0.00    +0.000 C 
ATOM     27  O   UNL     1       7.657   5.848  16.124  0.00  0.00    +0.000 OA
ATOM     28  C   UNL     1       6.977   6.100  17.360  0.00  0.00    +0.000 C 
ATOM     29  C   UNL     1       5.520   6.538  17.115  0.00  0.00    +0.000 C 
ENDBRANCH  23  24
ENDBRANCH  22  23
ENDBRANCH  20  22
ENDBRANCH  17  18
ENDBRANCH  16  17
ENDBRANCH  14  16
ENDBRANCH   7  12
BRANCH   1  30
ATOM     30  C   UNL     1      -1.654  12.020  21.745  0.00  0.00    +0.000 C 
BRANCH  30  35
ATOM     31  C   UNL     1      -0.576  17.738  21.203  0.00  0.00    +0.000 C 
ATOM     32  C   UNL     1      -0.837  16.264  21.288  0.00  0.00    +0.000 A 
ATOM     33  C   UNL     1      -2.084  15.734  20.943  0.00  0.00    +0.000 A 
ATOM     34  C   UNL     1      -2.331  14.365  21.070  0.00  0.00    +0.000 A 
ATOM     35  C   UNL     1      -1.342  13.490  21.545  0.00  0.00    +0.000 A 
ATOM     36  C   UNL     1      -0.084  14.020  21.862  0.00  0.00    +0.000 A 
ATOM     37  C   UNL     1       0.162  15.393  21.739  0.00  0.00    +0.000 A 
ENDBRANCH  30  35
ENDBRANCH   1  30
TORSDOF 9
ENDMDL
MODEL 4
REMARK VINA RESULT:      -7.6      2.853      4.208
REMARK  Name = 
REMARK  10 active torsions:
REMARK  status: ('A' for Active; 'I' for Inactive)
REMARK    1  A    between atoms: C_1  and  C_2
REMARK    2  A    between atoms: C_5  and  C_6
REMARK    3  A    between atoms: C_6  and  N_7
REMARK    4  A    between atoms: C_13  and  C_14
REMARK    5  A    between atoms: N_16  and  C_17
REMARK    6  A    between atoms: C_17  and  C_18
REMARK    7  A    between atoms: C_18  and  C_19
REMARK    8  A    between atoms: N_21  and  C_22
REMARK    9  A    between atoms: C_22  and  C_23
REMARK   10  A    between atoms: C_23  and  N_24
REMARK                            x       y       z     vdW  Elec       q    Type
REMARK                         _______ _______ _______ _____ _____    ______ ____
ROOT
ATOM      1  N   UNL     1      -0.872  12.671  20.527  0.00  0.00    +0.000 N 
ATOM      2  C   UNL     1      -0.944  12.751  19.074  0.00  0.00    +0.000 C 
ATOM      3  C   UNL     1       0.395  13.161  18.470  0.00  0.00    +0.000 C 
ATOM      4  C   UNL     1       1.529  12.140  18.587  0.00  0.00    +0.000 C 
ATOM      5  N   UNL     1       1.234  10.884  19.243  0.00  0.00    +0.000 N 
ATOM      6  N   UNL     1       1.820   9.752  18.772  0.00  0.00    +0.000 NA
ATOM      7  C   UNL     1       1.518   8.821  19.702  0.00  0.00    +0.000 A 
ATOM      8  C   UNL     1       0.735   9.378  20.734  0.00  0.00    +0.000 A 
ATOM      9  C   UNL     1       0.550  10.706  20.414  0.00  0.00    +0.000 A 
ATOM     10  C   UNL     1      -0.159  11.683  21.201  0.00  0.00    +0.000 C 
ATOM     11  O   UNL     1      -0.158  11.615  22.429  0.00  0.00    +0.000 OA
ENDROOT
BRANCH   7  12
ATOM     12  C   UNL     1       1.969   7.423  19.641  0.00  0.00    +0.000 C 
ATOM     13  O   UNL     1       2.498   6.949  18.643  0.00  0.00    +0.000 OA
ATOM     14  N   UNL     1       1.745   6.697  20.792  0.00  0.00    +0.000 N 
ATOM     15  H   UNL     1       1.322   7.199  21.564  0.00  0.00    +0.000 HD
BRANCH  14  16
ATOM     16  C   UNL     1       2.108   5.301  20.880  0.00  0.00    +0.000 C 
BRANCH  16  17
ATOM     17  C   UNL     1       1.030   4.391  20.316  0.00  0.00    +0.000 C 
BRANCH  17  18
ATOM     18  C   UNL     1       1.707   3.312  19.519  0.00  0.00    +0.000 C 
ATOM     19  O   UNL     1       1.570   2.134  19.827  0.00  0.00    +0.000 OA
ATOM     20  N   UNL     1       2.499   3.763  18.482  0.00  0.00    +0.000 N 
ATOM     21  H   UNL     1       2.718   4.750  18.448  0.00  0.00    +0.000 HD
BRANCH  20  22
ATOM     22  C   UNL     1       3.338   2.881  17.669  0.00  0.00    +0.000 C 
BRANCH  22  23
ATOM     23  C   UNL     1       4.494   3.600  16.948  0.00  0.00    +0.000 C 
BRANCH  23  24
ATOM     24  N   UNL     1       4.827   4.970  17.389  0.00  0.00    +0.000 NA
ATOM     25  C   UNL     1       5.207   5.772  16.189  0.00  0.00    +0.000 C 
ATOM     26  C   UNL     1       6.562   5.371  15.563  0.00  0.00    +0.000 C 
ATOM     27  O   UNL     1       7.620   5.434  16.529  0.00  0.00    +0.000 OA
ATOM     28  C   UNL     1       7.328   4.609  17.664  0.00  0.00    +0.000 C 
ATOM     29  C   UNL     1       5.988   5.008  18.312  0.00  0.00    +0.000 C 
ENDBRANCH  23  24
ENDBRANCH  22  23
ENDBRANCH  20  22
ENDBRANCH  17  18
ENDBRANCH  16  17
ENDBRANCH  14  16
ENDBRANCH   7  12
BRANCH   1  30
ATOM     30  C   UNL     1      -1.747  13.538  21.316  0.00  0.00    +0.000 C 
BRANCH  30  35
ATOM     31  C   UNL     1      -7.339  11.869  21.001  0.00  0.00    +0.000 C 
ATOM     32  C   UNL     1      -5.920  12.350  21.068  0.00  0.00    +0.000 A 
ATOM     33  C   UNL     1      -5.110  12.358  19.929  0.00  0.00    +0.000 A 
ATOM     34  C   UNL     1      -3.776  12.765  20.012  0.00  0.00    +0.000 A 
ATOM     35  C   UNL     1      -3.216  13.171  21.233  0.00  0.00    +0.000 A 
ATOM     36  C   UNL     1      -4.039  13.189  22.367  0.00  0.00    +0.000 A 
ATOM     37  C   UNL     1      -5.375  12.777  22.284  0.00  0.00    +0.000 A 
ENDBRANCH  30  35
ENDBRANCH   1  30
TORSDOF 9
ENDMDL
MODEL 5
REMARK VINA RESULT:      -7.6      3.303      4.698
REMARK  Name = 
REMARK  10 active torsions:
REMARK  status: ('A' for Active; 'I' for Inactive)
REMARK    1  A    between atoms: C_1  and  C_2
REMARK    2  A    between atoms: C_5  and  C_6
REMARK    3  A    between atoms: C_6  and  N_7
REMARK    4  A    between atoms: C_13  and  C_14
REMARK    5  A    between atoms: N_16  and  C_17
REMARK    6  A    between atoms: C_17  and  C_18
REMARK    7  A    between atoms: C_18  and  C_19
REMARK    8  A    between atoms: N_21  and  C_22
REMARK    9  A    between atoms: C_22  and  C_23
REMARK   10  A    between atoms: C_23  and  N_24
REMARK                            x       y       z     vdW  Elec       q    Type
REMARK                         _______ _______ _______ _____ _____    ______ ____
ROOT
ATOM      1  N   UNL     1      -0.200   9.914  21.411  0.00  0.00    +0.000 N 
ATOM      2  C   UNL     1      -1.007  10.111  20.212  0.00  0.00    +0.000 C 
ATOM      3  C   UNL     1      -0.327  11.059  19.231  0.00  0.00    +0.000 C 
ATOM      4  C   UNL     1       0.949  10.541  18.565  0.00  0.00    +0.000 C 
ATOM      5  N   UNL     1       1.391   9.206  18.910  0.00  0.00    +0.000 N 
ATOM      6  N   UNL     1       1.956   8.438  17.943  0.00  0.00    +0.000 NA
ATOM      7  C   UNL     1       2.436   7.371  18.617  0.00  0.00    +0.000 A 
ATOM      8  C   UNL     1       2.151   7.478  19.994  0.00  0.00    +0.000 A 
ATOM      9  C   UNL     1       1.465   8.661  20.163  0.00  0.00    +0.000 A 
ATOM     10  C   UNL     1       1.000   9.207  21.413  0.00  0.00    +0.000 C 
ATOM     11  O   UNL     1       1.632   9.018  22.451  0.00  0.00    +0.000 OA
ENDROOT
BRANCH   7  12
ATOM     12  C   UNL     1       3.170   6.264  17.987  0.00  0.00    +0.000 C 
ATOM     13  O   UNL     1       2.638   5.194  17.721  0.00  0.00    +0.000 OA
ATOM     14  N   UNL     1       4.498   6.531  17.727  0.00  0.00    +0.000 N 
ATOM     15  H   UNL     1       4.825   7.460  17.968  0.00  0.00    +0.000 HD
BRANCH  14  16
ATOM     16  C   UNL     1       5.361   5.536  17.134  0.00  0.00    +0.000 C 
BRANCH  16  17
ATOM     17  C   UNL     1       6.610   6.149  16.525  0.00  0.00    +0.000 C 
BRANCH  17  18
ATOM     18  C   UNL     1       7.395   6.794  17.632  0.00  0.00    +0.000 C 
ATOM     19  O   UNL     1       7.595   6.194  18.683  0.00  0.00    +0.000 OA
ATOM     20  N   UNL     1       7.809   8.086  17.378  0.00  0.00    +0.000 N 
ATOM     21  H   UNL     1       7.410   8.562  16.581  0.00  0.00    +0.000 HD
BRANCH  20  22
ATOM     22  C   UNL     1       8.475   8.927  18.374  0.00  0.00    +0.000 C 
BRANCH  22  23
ATOM     23  C   UNL     1       8.489  10.427  18.022  0.00  0.00    +0.000 C 
BRANCH  23  24
ATOM     24  N   UNL     1       9.794  11.121  18.042  0.00  0.00    +0.000 NA
ATOM     25  C   UNL     1      10.321  11.091  19.438  0.00  0.00    +0.000 C 
ATOM     26  C   UNL     1       9.543  11.987  20.429  0.00  0.00    +0.000 C 
ATOM     27  O   UNL     1       9.492  13.345  19.970  0.00  0.00    +0.000 OA
ATOM     28  C   UNL     1       8.913  13.423  18.661  0.00  0.00    +0.000 C 
ATOM     29  C   UNL     1       9.688  12.550  17.657  0.00  0.00    +0.000 C 
ENDBRANCH  23  24
ENDBRANCH  22  23
ENDBRANCH  20  22
ENDBRANCH  17  18
ENDBRANCH  16  17
ENDBRANCH  14  16
ENDBRANCH   7  12
BRANCH   1  30
ATOM     30  C   UNL     1      -0.769  10.296  22.703  0.00  0.00    +0.000 C 
BRANCH  30  35
ATOM     31  C   UNL     1      -2.694  15.794  23.168  0.00  0.00    +0.000 C 
ATOM     32  C   UNL     1      -2.221  14.381  22.996  0.00  0.00    +0.000 A 
ATOM     33  C   UNL     1      -3.057  13.302  23.296  0.00  0.00    +0.000 A 
ATOM     34  C   UNL     1      -2.590  11.991  23.175  0.00  0.00    +0.000 A 
ATOM     35  C   UNL     1      -1.278  11.723  22.755  0.00  0.00    +0.000 A 
ATOM     36  C   UNL     1      -0.452  12.807  22.428  0.00  0.00    +0.000 A 
ATOM     37  C   UNL     1      -0.919  14.121  22.553  0.00  0.00    +0.000 A 
ENDBRANCH  30  35
ENDBRANCH   1  30
TORSDOF 9
ENDMDL
MODEL 6
REMARK VINA RESULT:      -7.5      3.506      5.238
REMARK  Name = 
REMARK  10 active torsions:
REMARK  status: ('A' for Active; 'I' for Inactive)
REMARK    1  A    between atoms: C_1  and  C_2
REMARK    2  A    between atoms: C_5  and  C_6
REMARK    3  A    between atoms: C_6  and  N_7
REMARK    4  A    between atoms: C_13  and  C_14
REMARK    5  A    between atoms: N_16  and  C_17
REMARK    6  A    between atoms: C_17  and  C_18
REMARK    7  A    between atoms: C_18  and  C_19
REMARK    8  A    between atoms: N_21  and  C_22
REMARK    9  A    between atoms: C_22  and  C_23
REMARK   10  A    between atoms: C_23  and  N_24
REMARK                            x       y       z     vdW  Elec       q    Type
REMARK                         _______ _______ _______ _____ _____    ______ ____
ROOT
ATOM      1  N   UNL     1       0.676  10.847  20.136  0.00  0.00    +0.000 N 
ATOM      2  C   UNL     1       1.271  10.512  21.424  0.00  0.00    +0.000 C 
ATOM      3  C   UNL     1       0.553   9.339  22.082  0.00  0.00    +0.000 C 
ATOM      4  C   UNL     1       0.710   7.980  21.397  0.00  0.00    +0.000 C 
ATOM      5  N   UNL     1       1.528   7.923  20.203  0.00  0.00    +0.000 N 
ATOM      6  N   UNL     1       2.293   6.821  19.992  0.00  0.00    +0.000 NA
ATOM      7  C   UNL     1       2.752   6.981  18.732  0.00  0.00    +0.000 A 
ATOM      8  C   UNL     1       2.280   8.189  18.177  0.00  0.00    +0.000 A 
ATOM      9  C   UNL     1       1.504   8.790  19.146  0.00  0.00    +0.000 A 
ATOM     10  C   UNL     1       0.783  10.031  19.013  0.00  0.00    +0.000 C 
ATOM     11  O   UNL     1       0.311  10.366  17.928  0.00  0.00    +0.000 OA
ENDROOT
BRANCH   7  12
ATOM     12  C   UNL     1       3.610   6.010  18.040  0.00  0.00    +0.000 C 
ATOM     13  O   UNL     1       3.198   4.916  17.675  0.00  0.00    +0.000 OA
ATOM     14  N   UNL     1       4.909   6.430  17.841  0.00  0.00    +0.000 N 
ATOM     15  H   UNL     1       5.132   7.365  18.164  0.00  0.00    +0.000 HD
BRANCH  14  16
ATOM     16  C   UNL     1       5.882   5.578  17.198  0.00  0.00    +0.000 C 
BRANCH  16  17
ATOM     17  C   UNL     1       7.044   6.369  16.621  0.00  0.00    +0.000 C 
BRANCH  17  18
ATOM     18  C   UNL     1       7.698   7.118  17.748  0.00  0.00    +0.000 C 
ATOM     19  O   UNL     1       7.904   6.567  18.823  0.00  0.00    +0.000 OA
ATOM     20  N   UNL     1       7.986   8.441  17.479  0.00  0.00    +0.000 N 
ATOM     21  H   UNL     1       7.581   8.855  16.650  0.00  0.00    +0.000 HD
BRANCH  20  22
ATOM     22  C   UNL     1       8.507   9.370  18.483  0.00  0.00    +0.000 C 
BRANCH  22  23
ATOM     23  C   UNL     1       9.131  10.650  17.893  0.00  0.00    +0.000 C 
BRANCH  23  24
ATOM     24  N   UNL     1       9.348  11.789  18.809  0.00  0.00    +0.000 NA
ATOM     25  C   UNL     1       9.601  13.010  17.989  0.00  0.00    +0.000 C 
ATOM     26  C   UNL     1      10.963  13.011  17.258  0.00  0.00    +0.000 C 
ATOM     27  O   UNL     1      12.047  12.824  18.179  0.00  0.00    +0.000 OA
ATOM     28  C   UNL     1      11.880  11.614  18.930  0.00  0.00    +0.000 C 
ATOM     29  C   UNL     1      10.534  11.606  19.680  0.00  0.00    +0.000 C 
ENDBRANCH  23  24
ENDBRANCH  22  23
ENDBRANCH  20  22
ENDBRANCH  17  18
ENDBRANCH  16  17
ENDBRANCH  14  16
ENDBRANCH   7  12
BRANCH   1  30
ATOM     30  C   UNL     1       0.120  12.188  19.954  0.00  0.00    +0.000 C 
BRANCH  30  35
ATOM     31  C   UNL     1      -5.476  12.920  21.470  0.00  0.00    +0.000 C 
ATOM     32  C   UNL     1      -4.044  12.677  21.095  0.00  0.00    +0.000 A 
ATOM     33  C   UNL     1      -3.026  12.773  22.047  0.00  0.00    +0.000 A 
ATOM     34  C   UNL     1      -1.691  12.590  21.677  0.00  0.00    +0.000 A 
ATOM     35  C   UNL     1      -1.338  12.309  20.348  0.00  0.00    +0.000 A 
ATOM     36  C   UNL     1      -2.365  12.185  19.402  0.00  0.00    +0.000 A 
ATOM     37  C   UNL     1      -3.702  12.373  19.772  0.00  0.00    +0.000 A 
ENDBRANCH  30  35
ENDBRANCH   1  30
TORSDOF 9
ENDMDL
MODEL 7
REMARK VINA RESULT:      -7.5      1.785      4.357
REMARK  Name = 
REMARK  10 active torsions:
REMARK  status: ('A' for Active; 'I' for Inactive)
REMARK    1  A    between atoms: C_1  and  C_2
REMARK    2  A    between atoms: C_5  and  C_6
REMARK    3  A    between atoms: C_6  and  N_7
REMARK    4  A    between atoms: C_13  and  C_14
REMARK    5  A    between atoms: N_16  and  C_17
REMARK    6  A    between atoms: C_17  and  C_18
REMARK    7  A    between atoms: C_18  and  C_19
REMARK    8  A    between atoms: N_21  and  C_22
REMARK    9  A    between atoms: C_22  and  C_23
REMARK   10  A    between atoms: C_23  and  N_24
REMARK                            x       y       z     vdW  Elec       q    Type
REMARK                         _______ _______ _______ _____ _____    ______ ____
ROOT
ATOM      1  N   UNL     1      -0.107  11.201  19.840  0.00  0.00    +0.000 N 
ATOM      2  C   UNL     1       0.690  11.131  21.059  0.00  0.00    +0.000 C 
ATOM      3  C   UNL     1       0.302   9.928  21.911  0.00  0.00    +0.000 C 
ATOM      4  C   UNL     1       0.645   8.553  21.335  0.00  0.00    +0.000 C 
ATOM      5  N   UNL     1       1.310   8.512  20.050  0.00  0.00    +0.000 N 
ATOM      6  N   UNL     1       2.249   7.554  19.834  0.00  0.00    +0.000 NA
ATOM      7  C   UNL     1       2.514   7.652  18.514  0.00  0.00    +0.000 A 
ATOM      8  C   UNL     1       1.750   8.680  17.924  0.00  0.00    +0.000 A 
ATOM      9  C   UNL     1       0.990   9.233  18.933  0.00  0.00    +0.000 A 
ATOM     10  C   UNL     1       0.026  10.295  18.791  0.00  0.00    +0.000 C 
ATOM     11  O   UNL     1      -0.628  10.410  17.755  0.00  0.00    +0.000 OA
ENDROOT
BRANCH   7  12
ATOM     12  C   UNL     1       3.461   6.784  17.800  0.00  0.00    +0.000 C 
ATOM     13  O   UNL     1       3.160   5.657  17.424  0.00  0.00    +0.000 OA
ATOM     14  N   UNL     1       4.706   7.339  17.594  0.00  0.00    +0.000 N 
ATOM     15  H   UNL     1       4.835   8.288  17.927  0.00  0.00    +0.000 HD
BRANCH  14  16
ATOM     16  C   UNL     1       5.755   6.601  16.929  0.00  0.00    +0.000 C 
BRANCH  16  17
ATOM     17  C   UNL     1       6.995   6.461  17.796  0.00  0.00    +0.000 C 
BRANCH  17  18
ATOM     18  C   UNL     1       6.681   5.486  18.896  0.00  0.00    +0.000 C 
ATOM     19  O   UNL     1       7.331   5.493  19.936  0.00  0.00    +0.000 OA
ATOM     20  N   UNL     1       5.666   4.595  18.613  0.00  0.00    +0.000 N 
ATOM     21  H   UNL     1       5.346   4.530  17.656  0.00  0.00    +0.000 HD
BRANCH  20  22
ATOM     22  C   UNL     1       5.295   3.492  19.501  0.00  0.00    +0.000 C 
BRANCH  22  23
ATOM     23  C   UNL     1       3.846   3.563  20.022  0.00  0.00    +0.000 C 
BRANCH  23  24
ATOM     24  N   UNL     1       3.098   2.294  20.134  0.00  0.00    +0.000 NA
ATOM     25  C   UNL     1       3.035   1.665  18.783  0.00  0.00    +0.000 C 
ATOM     26  C   UNL     1       2.124   2.409  17.779  0.00  0.00    +0.000 C 
ATOM     27  O   UNL     1       0.794   2.557  18.296  0.00  0.00    +0.000 OA
ATOM     28  C   UNL     1       0.807   3.233  19.560  0.00  0.00    +0.000 C 
ATOM     29  C   UNL     1       1.696   2.494  20.578  0.00  0.00    +0.000 C 
ENDBRANCH  23  24
ENDBRANCH  22  23
ENDBRANCH  20  22
ENDBRANCH  17  18
ENDBRANCH  16  17
ENDBRANCH  14  16
ENDBRANCH   7  12
BRANCH   1  30
ATOM     30  C   UNL     1      -0.936  12.385  19.618  0.00  0.00    +0.000 C 
BRANCH  30  35
ATOM     31  C   UNL     1       1.920  17.476  19.335  0.00  0.00    +0.000 C 
ATOM     32  C   UNL     1       1.226  16.151  19.445  0.00  0.00    +0.000 A 
ATOM     33  C   UNL     1       1.597  15.076  18.634  0.00  0.00    +0.000 A 
ATOM     34  C   UNL     1       0.913  13.860  18.712  0.00  0.00    +0.000 A 
ATOM     35  C   UNL     1      -0.160  13.687  19.601  0.00  0.00    +0.000 A 
ATOM     36  C   UNL     1      -0.510  14.759  20.433  0.00  0.00    +0.000 A 
ATOM     37  C   UNL     1       0.173  15.978  20.351  0.00  0.00    +0.000 A 
ENDBRANCH  30  35
ENDBRANCH   1  30
TORSDOF 9
ENDMDL
MODEL 8
REMARK VINA RESULT:      -7.5      2.696      5.120
REMARK  Name = 
REMARK  10 active torsions:
REMARK  status: ('A' for Active; 'I' for Inactive)
REMARK    1  A    between atoms: C_1  and  C_2
REMARK    2  A    between atoms: C_5  and  C_6
REMARK    3  A    between atoms: C_6  and  N_7
REMARK    4  A    between atoms: C_13  and  C_14
REMARK    5  A    between atoms: N_16  and  C_17
REMARK    6  A    between atoms: C_17  and  C_18
REMARK    7  A    between atoms: C_18  and  C_19
REMARK    8  A    between atoms: N_21  and  C_22
REMARK    9  A    between atoms: C_22  and  C_23
REMARK   10  A    between atoms: C_23  and  N_24
REMARK                            x       y       z     vdW  Elec       q    Type
REMARK                         _______ _______ _______ _____ _____    ______ ____
ROOT
ATOM      1  N   UNL     1      -0.405  11.933  20.010  0.00  0.00    +0.000 N 
ATOM      2  C   UNL     1       0.451  11.857  21.188  0.00  0.00    +0.000 C 
ATOM      3  C   UNL     1       0.040  10.709  22.103  0.00  0.00    +0.000 C 
ATOM      4  C   UNL     1       0.272   9.297  21.561  0.00  0.00    +0.000 C 
ATOM      5  N   UNL     1       0.865   9.173  20.246  0.00  0.00    +0.000 N 
ATOM      6  N   UNL     1       1.734   8.155  20.018  0.00  0.00    +0.000 NA
ATOM      7  C   UNL     1       1.933   8.192  18.683  0.00  0.00    +0.000 A 
ATOM      8  C   UNL     1       1.199   9.243  18.096  0.00  0.00    +0.000 A 
ATOM      9  C   UNL     1       0.527   9.874  19.121  0.00  0.00    +0.000 A 
ATOM     10  C   UNL     1      -0.380  10.986  18.990  0.00  0.00    +0.000 C 
ATOM     11  O   UNL     1      -1.081  11.105  17.986  0.00  0.00    +0.000 OA
ENDROOT
BRANCH   7  12
ATOM     12  C   UNL     1       2.789   7.246  17.954  0.00  0.00    +0.000 C 
ATOM     13  O   UNL     1       2.537   6.048  17.894  0.00  0.00    +0.000 OA
ATOM     14  N   UNL     1       3.891   7.815  17.351  0.00  0.00    +0.000 N 
ATOM     15  H   UNL     1       3.986   8.820  17.446  0.00  0.00    +0.000 HD
BRANCH  14  16
ATOM     16  C   UNL     1       4.843   7.012  16.618  0.00  0.00    +0.000 C 
BRANCH  16  17
ATOM     17  C   UNL     1       6.178   6.908  17.336  0.00  0.00    +0.000 C 
BRANCH  17  18
ATOM     18  C   UNL     1       6.303   5.511  17.876  0.00  0.00    +0.000 C 
ATOM     19  O   UNL     1       7.191   4.767  17.475  0.00  0.00    +0.000 OA
ATOM     20  N   UNL     1       5.335   5.152  18.793  0.00  0.00    +0.000 N 
ATOM     21  H   UNL     1       4.529   5.754  18.891  0.00  0.00    +0.000 HD
BRANCH  20  22
ATOM     22  C   UNL     1       5.210   3.800  19.340  0.00  0.00    +0.000 C 
BRANCH  22  23
ATOM     23  C   UNL     1       3.872   3.533  20.057  0.00  0.00    +0.000 C 
BRANCH  23  24
ATOM     24  N   UNL     1       3.230   2.220  19.840  0.00  0.00    +0.000 NA
ATOM     25  C   UNL     1       3.237   1.930  18.376  0.00  0.00    +0.000 C 
ATOM     26  C   UNL     1       2.279   2.819  17.550  0.00  0.00    +0.000 C 
ATOM     27  O   UNL     1       0.936   2.734  18.044  0.00  0.00    +0.000 OA
ATOM     28  C   UNL     1       0.877   3.087  19.432  0.00  0.00    +0.000 C 
ATOM     29  C   UNL     1       1.812   2.197  20.273  0.00  0.00    +0.000 C 
ENDBRANCH  23  24
ENDBRANCH  22  23
ENDBRANCH  20  22
ENDBRANCH  17  18
ENDBRANCH  16  17
ENDBRANCH  14  16
ENDBRANCH   7  12
BRANCH   1  30
ATOM     30  C   UNL     1      -1.175  13.156  19.787  0.00  0.00    +0.000 C 
BRANCH  30  35
ATOM     31  C   UNL     1      -6.147  13.137  22.858  0.00  0.00    +0.000 C 
ATOM     32  C   UNL     1      -4.888  13.190  22.044  0.00  0.00    +0.000 A 
ATOM     33  C   UNL     1      -4.826  12.599  20.779  0.00  0.00    +0.000 A 
ATOM     34  C   UNL     1      -3.635  12.614  20.049  0.00  0.00    +0.000 A 
ATOM     35  C   UNL     1      -2.476  13.216  20.563  0.00  0.00    +0.000 A 
ATOM     36  C   UNL     1      -2.551  13.833  21.819  0.00  0.00    +0.000 A 
ATOM     37  C   UNL     1      -3.743  13.814  22.552  0.00  0.00    +0.000 A 
ENDBRANCH  30  35
ENDBRANCH   1  30
TORSDOF 9
ENDMDL
MODEL 9
REMARK VINA RESULT:      -7.4      1.242      1.650
REMARK  Name = 
REMARK  10 active torsions:
REMARK  status: ('A' for Active; 'I' for Inactive)
REMARK    1  A    between atoms: C_1  and  C_2
REMARK    2  A    between atoms: C_5  and  C_6
REMARK    3  A    between atoms: C_6  and  N_7
REMARK    4  A    between atoms: C_13  and  C_14
REMARK    5  A    between atoms: N_16  and  C_17
REMARK    6  A    between atoms: C_17  and  C_18
REMARK    7  A    between atoms: C_18  and  C_19
REMARK    8  A    between atoms: N_21  and  C_22
REMARK    9  A    between atoms: C_22  and  C_23
REMARK   10  A    between atoms: C_23  and  N_24
REMARK                            x       y       z     vdW  Elec       q    Type
REMARK                         _______ _______ _______ _____ _____    ______ ____
ROOT
ATOM      1  N   UNL     1       0.777  10.844  20.096  0.00  0.00    +0.000 N 
ATOM      2  C   UNL     1       0.516  10.582  18.685  0.00  0.00    +0.000 C 
ATOM      3  C   UNL     1       1.805  10.296  17.923  0.00  0.00    +0.000 C 
ATOM      4  C   UNL     1       2.520   8.988  18.270  0.00  0.00    +0.000 C 
ATOM      5  N   UNL     1       1.912   8.139  19.274  0.00  0.00    +0.000 N 
ATOM      6  N   UNL     1       1.990   6.792  19.118  0.00  0.00    +0.000 NA
ATOM      7  C   UNL     1       1.530   6.304  20.290  0.00  0.00    +0.000 A 
ATOM      8  C   UNL     1       1.156   7.351  21.157  0.00  0.00    +0.000 A 
ATOM      9  C   UNL     1       1.396   8.528  20.479  0.00  0.00    +0.000 A 
ATOM     10  C   UNL     1       1.197   9.861  20.987  0.00  0.00    +0.000 C 
ATOM     11  O   UNL     1       1.362  10.105  22.182  0.00  0.00    +0.000 OA
ENDROOT
BRANCH   7  12
ATOM     12  C   UNL     1       1.455   4.872  20.610  0.00  0.00    +0.000 C 
ATOM     13  O   UNL     1       0.511   4.172  20.262  0.00  0.00    +0.000 OA
ATOM     14  N   UNL     1       2.526   4.388  21.333  0.00  0.00    +0.000 N 
ATOM     15  H   UNL     1       3.261   5.052  21.545  0.00  0.00    +0.000 HD
BRANCH  14  16
ATOM     16  C   UNL     1       2.586   3.005  21.747  0.00  0.00    +0.000 C 
BRANCH  16  17
ATOM     17  C   UNL     1       2.536   2.050  20.566  0.00  0.00    +0.000 C 
BRANCH  17  18
ATOM     18  C   UNL     1       3.676   2.390  19.649  0.00  0.00    +0.000 C 
ATOM     19  O   UNL     1       4.822   2.458  20.080  0.00  0.00    +0.000 OA
ATOM     20  N   UNL     1       3.315   2.652  18.342  0.00  0.00    +0.000 N 
ATOM     21  H   UNL     1       2.333   2.784  18.140  0.00  0.00    +0.000 HD
BRANCH  20  22
ATOM     22  C   UNL     1       4.258   3.122  17.327  0.00  0.00    +0.000 C 
BRANCH  22  23
ATOM     23  C   UNL     1       4.260   4.650  17.128  0.00  0.00    +0.000 C 
BRANCH  23  24
ATOM     24  N   UNL     1       5.009   5.188  15.974  0.00  0.00    +0.000 NA
ATOM     25  C   UNL     1       6.286   4.427  15.846  0.00  0.00    +0.000 C 
ATOM     26  C   UNL     1       7.310   4.715  16.968  0.00  0.00    +0.000 C 
ATOM     27  O   UNL     1       7.600   6.116  17.060  0.00  0.00    +0.000 OA
ATOM     28  C   UNL     1       6.402   6.876  17.267  0.00  0.00    +0.000 C 
ATOM     29  C   UNL     1       5.378   6.615  16.146  0.00  0.00    +0.000 C 
ENDBRANCH  23  24
ENDBRANCH  22  23
ENDBRANCH  20  22
ENDBRANCH  17  18
ENDBRANCH  16  17
ENDBRANCH  14  16
ENDBRANCH   7  12
BRANCH   1  30
ATOM     30  C   UNL     1       0.387  12.142  20.645  0.00  0.00    +0.000 C 
BRANCH  30  35
ATOM     31  C   UNL     1       3.095  16.537  17.906  0.00  0.00    +0.000 C 
ATOM     32  C   UNL     1       2.402  15.439  18.657  0.00  0.00    +0.000 A 
ATOM     33  C   UNL     1       3.134  14.448  19.316  0.00  0.00    +0.000 A 
ATOM     34  C   UNL     1       2.478  13.404  19.975  0.00  0.00    +0.000 A 
ATOM     35  C   UNL     1       1.077  13.322  19.990  0.00  0.00    +0.000 A 
ATOM     36  C   UNL     1       0.346  14.335  19.352  0.00  0.00    +0.000 A 
ATOM     37  C   UNL     1       1.004  15.377  18.689  0.00  0.00    +0.000 A 
ENDBRANCH  30  35
ENDBRANCH   1  30
TORSDOF 9
ENDMDL
