MODEL 1
REMARK VINA RESULT:      -7.5      0.000      0.000
REMARK  Name = 
REMARK  7 active torsions:
REMARK  status: ('A' for Active; 'I' for Inactive)
REMARK    1  A    between atoms: C_2  and  C_3
REMARK    2  A    between atoms: C_3  and  C_4
REMARK    3  A    between atoms: C_4  and  N_5
REMARK    4  A    between atoms: N_5  and  C_6
REMARK    5  A    between atoms: C_6  and  C_7
REMARK    6  A    between atoms: C_11  and  C_13
REMARK    7  A    between atoms: C_13  and  C_14
REMARK                            x       y       z     vdW  Elec       q    Type
REMARK                         _______ _______ _______ _____ _____    ______ ____
ROOT
ATOM      1  N   UNL     1       5.832   5.340  17.126  0.00  0.00    +0.000 N 
ATOM      2  C   UNL     1       4.808   4.997  18.019  0.00  0.00    +0.000 C 
ATOM      3  O   UNL     1       4.398   5.800  18.864  0.00  0.00    +0.000 OA
ENDROOT
BRANCH   1   4
ATOM      4  C   UNL     1       6.384   6.701  17.250  0.00  0.00    +0.000 C 
BRANCH   4   5
ATOM      5  C   UNL     1       7.745   6.789  17.948  0.00  0.00    +0.000 C 
BRANCH   5   7
ATOM      6  N   UNL     1       7.837   5.355  20.143  0.00  0.00    +0.000 NA
ATOM      7  C   UNL     1       7.807   5.983  19.170  0.00  0.00    +0.000 C 
ENDBRANCH   5   7
ENDBRANCH   4   5
ENDBRANCH   1   4
BRANCH   1   8
ATOM      8  C   UNL     1       6.404   4.339  16.184  0.00  0.00    +0.000 C 
BRANCH   8   9
ATOM      9  C   UNL     1       6.395   4.464  14.648  0.00  0.00    +0.000 C 
ATOM     10  F   UNL     1       6.451   3.295  13.988  0.00  0.00    +0.000 F 
ATOM     11  F   UNL     1       5.284   5.119  14.238  0.00  0.00    +0.000 F 
ATOM     12  F   UNL     1       7.458   5.202  14.241  0.00  0.00    +0.000 F 
ENDBRANCH   8   9
ENDBRANCH   1   8
BRANCH   2  13
ATOM     13  C   UNL     1       4.231   3.582  17.974  0.00  0.00    +0.000 C 
BRANCH  13  14
ATOM     14  C   UNL     1       3.264   3.278  19.102  0.00  0.00    +0.000 A 
ATOM     15  C   UNL     1       3.743   2.714  20.301  0.00  0.00    +0.000 A 
ATOM     16  C   UNL     1       2.878   2.437  21.360  0.00  0.00    +0.000 A 
ATOM     17  C   UNL     1       1.532   2.745  21.242  0.00  0.00    +0.000 A 
ATOM     18  F   UNL     1       0.704   2.488  22.263  0.00  0.00    +0.000 F 
ATOM     19  C   UNL     1       1.031   3.327  20.087  0.00  0.00    +0.000 A 
ATOM     20  C   UNL     1       1.894   3.598  19.023  0.00  0.00    +0.000 A 
ATOM     21 CL   UNL     1       1.206   4.335  17.617  0.00  0.00    +0.000 Cl
ENDBRANCH  13  14
ENDBRANCH   2  13
TORSDOF 7
ENDMDL
MODEL 2
REMARK VINA RESULT:      -7.4      1.262      1.389
REMARK  Name = 
REMARK  7 active torsions:
REMARK  status: ('A' for Active; 'I' for Inactive)
REMARK    1  A    between atoms: C_2  and  C_3
REMARK    2  A    between atoms: C_3  and  C_4
REMARK    3  A    between atoms: C_4  and  N_5
REMARK    4  A    between atoms: N_5  and  C_6
REMARK    5  A    between atoms: C_6  and  C_7
REMARK    6  A    between atoms: C_11  and  C_13
REMARK    7  A    between atoms: C_13  and  C_14
REMARK                            x       y       z     vdW  Elec       q    Type
REMARK                         _______ _______ _______ _____ _____    ______ ____
ROOT
ATOM      1  N   UNL     1       6.659   5.156  17.758  0.00  0.00    +0.000 N 
ATOM      2  C   UNL     1       5.552   4.875  18.568  0.00  0.00    +0.000 C 
ATOM      3  O   UNL     1       5.335   5.516  19.602  0.00  0.00    +0.000 OA
ENDROOT
BRANCH   1   4
ATOM      4  C   UNL     1       7.541   6.250  18.204  0.00  0.00    +0.000 C 
BRANCH   4   5
ATOM      5  C   UNL     1       7.478   7.523  17.354  0.00  0.00    +0.000 C 
BRANCH   5   7
ATOM      6  N   UNL     1       8.664   9.573  18.482  0.00  0.00    +0.000 NA
ATOM      7  C   UNL     1       8.135   8.664  17.995  0.00  0.00    +0.000 C 
ENDBRANCH   5   7
ENDBRANCH   4   5
ENDBRANCH   1   4
BRANCH   1   8
ATOM      8  C   UNL     1       6.985   4.313  16.574  0.00  0.00    +0.000 C 
BRANCH   8   9
ATOM      9  C   UNL     1       6.530   4.603  15.131  0.00  0.00    +0.000 C 
ATOM     10  F   UNL     1       6.166   3.518  14.426  0.00  0.00    +0.000 F 
ATOM     11  F   UNL     1       5.487   5.465  15.132  0.00  0.00    +0.000 F 
ATOM     12  F   UNL     1       7.534   5.204  14.444  0.00  0.00    +0.000 F 
ENDBRANCH   8   9
ENDBRANCH   1   8
BRANCH   2  13
ATOM     13  C   UNL     1       4.630   3.718  18.186  0.00  0.00    +0.000 C 
BRANCH  13  14
ATOM     14  C   UNL     1       3.572   3.406  19.227  0.00  0.00    +0.000 A 
ATOM     15  C   UNL     1       3.907   2.627  20.353  0.00  0.00    +0.000 A 
ATOM     16  C   UNL     1       2.957   2.337  21.332  0.00  0.00    +0.000 A 
ATOM     17  C   UNL     1       1.673   2.844  21.213  0.00  0.00    +0.000 A 
ATOM     18  F   UNL     1       0.765   2.573  22.159  0.00  0.00    +0.000 F 
ATOM     19  C   UNL     1       1.316   3.637  20.132  0.00  0.00    +0.000 A 
ATOM     20  C   UNL     1       2.263   3.922  19.146  0.00  0.00    +0.000 A 
ATOM     21 CL   UNL     1       1.756   4.927  17.832  0.00  0.00    +0.000 Cl
ENDBRANCH  13  14
ENDBRANCH   2  13
TORSDOF 7
ENDMDL
MODEL 3
REMARK VINA RESULT:      -7.1      1.066      1.432
REMARK  Name = 
REMARK  7 active torsions:
REMARK  status: ('A' for Active; 'I' for Inactive)
REMARK    1  A    between atoms: C_2  and  C_3
REMARK    2  A    between atoms: C_3  and  C_4
REMARK    3  A    between atoms: C_4  and  N_5
REMARK    4  A    between atoms: N_5  and  C_6
REMARK    5  A    between atoms: C_6  and  C_7
REMARK    6  A    between atoms: C_11  and  C_13
REMARK    7  A    between atoms: C_13  and  C_14
REMARK                            x       y       z     vdW  Elec       q    Type
REMARK                         _______ _______ _______ _____ _____    ______ ____
ROOT
ATOM      1  N   UNL     1       5.755   5.303  17.155  0.00  0.00    +0.000 N 
ATOM      2  C   UNL     1       4.836   4.926  18.141  0.00  0.00    +0.000 C 
ATOM      3  O   UNL     1       4.459   5.724  19.006  0.00  0.00    +0.000 OA
ENDROOT
BRANCH   1   4
ATOM      4  C   UNL     1       6.241   6.694  17.205  0.00  0.00    +0.000 C 
BRANCH   4   5
ATOM      5  C   UNL     1       7.609   6.880  17.870  0.00  0.00    +0.000 C 
BRANCH   5   7
ATOM      6  N   UNL     1       8.307   9.404  18.032  0.00  0.00    +0.000 NA
ATOM      7  C   UNL     1       8.010   8.287  17.955  0.00  0.00    +0.000 C 
ENDBRANCH   5   7
ENDBRANCH   4   5
ENDBRANCH   1   4
BRANCH   1   8
ATOM      8  C   UNL     1       6.296   4.313  16.182  0.00  0.00    +0.000 C 
BRANCH   8   9
ATOM      9  C   UNL     1       6.281   4.480  14.650  0.00  0.00    +0.000 C 
ATOM     10  F   UNL     1       5.231   5.167  14.168  0.00  0.00    +0.000 F 
ATOM     11  F   UNL     1       7.409   5.103  14.236  0.00  0.00    +0.000 F 
ATOM     12  F   UNL     1       6.266   3.261  14.055  0.00  0.00    +0.000 F 
ENDBRANCH   8   9
ENDBRANCH   1   8
BRANCH   2  13
ATOM     13  C   UNL     1       4.335   3.482  18.173  0.00  0.00    +0.000 C 
BRANCH  13  14
ATOM     14  C   UNL     1       3.327   3.206  19.272  0.00  0.00    +0.000 A 
ATOM     15  C   UNL     1       3.754   2.626  20.483  0.00  0.00    +0.000 A 
ATOM     16  C   UNL     1       2.850   2.374  21.515  0.00  0.00    +0.000 A 
ATOM     17  C   UNL     1       1.518   2.723  21.360  0.00  0.00    +0.000 A 
ATOM     18  F   UNL     1       0.654   2.490  22.356  0.00  0.00    +0.000 F 
ATOM     19  C   UNL     1       1.069   3.321  20.192  0.00  0.00    +0.000 A 
ATOM     20  C   UNL     1       1.970   3.567  19.154  0.00  0.00    +0.000 A 
ATOM     21 CL   UNL     1       1.346   4.327  17.731  0.00  0.00    +0.000 Cl
ENDBRANCH  13  14
ENDBRANCH   2  13
TORSDOF 7
ENDMDL
MODEL 4
REMARK VINA RESULT:      -7.1      3.392      5.779
REMARK  Name = 
REMARK  7 active torsions:
REMARK  status: ('A' for Active; 'I' for Inactive)
REMARK    1  A    between atoms: C_2  and  C_3
REMARK    2  A    between atoms: C_3  and  C_4
REMARK    3  A    between atoms: C_4  and  N_5
REMARK    4  A    between atoms: N_5  and  C_6
REMARK    5  A    between atoms: C_6  and  C_7
REMARK    6  A    between atoms: C_11  and  C_13
REMARK    7  A    between atoms: C_13  and  C_14
REMARK                            x       y       z     vdW  Elec       q    Type
REMARK                         _______ _______ _______ _____ _____    ______ ____
ROOT
ATOM      1  N   UNL     1       2.131   4.287  18.253  0.00  0.00    +0.000 N 
ATOM      2  C   UNL     1       3.145   3.382  17.915  0.00  0.00    +0.000 C 
ATOM      3  O   UNL     1       3.247   2.291  18.485  0.00  0.00    +0.000 OA
ENDROOT
BRANCH   1   4
ATOM      4  C   UNL     1       1.200   3.865  19.315  0.00  0.00    +0.000 C 
BRANCH   4   5
ATOM      5  C   UNL     1       1.550   4.363  20.722  0.00  0.00    +0.000 C 
BRANCH   5   7
ATOM      6  N   UNL     1       2.536   2.458  22.232  0.00  0.00    +0.000 NA
ATOM      7  C   UNL     1       2.101   3.307  21.575  0.00  0.00    +0.000 C 
ENDBRANCH   5   7
ENDBRANCH   4   5
ENDBRANCH   1   4
BRANCH   1   8
ATOM      8  C   UNL     1       2.074   5.647  17.648  0.00  0.00    +0.000 C 
BRANCH   8   9
ATOM      9  C   UNL     1       2.686   6.917  18.270  0.00  0.00    +0.000 C 
ATOM     10  F   UNL     1       3.148   6.764  19.523  0.00  0.00    +0.000 F 
ATOM     11  F   UNL     1       3.706   7.370  17.504  0.00  0.00    +0.000 F 
ATOM     12  F   UNL     1       1.756   7.904  18.308  0.00  0.00    +0.000 F 
ENDBRANCH   8   9
ENDBRANCH   1   8
BRANCH   2  13
ATOM     13  C   UNL     1       4.173   3.784  16.858  0.00  0.00    +0.000 C 
BRANCH  13  14
ATOM     14  C   UNL     1       5.308   4.634  17.396  0.00  0.00    +0.000 A 
ATOM     15  C   UNL     1       5.573   4.651  18.780  0.00  0.00    +0.000 A 
ATOM     16  C   UNL     1       6.619   5.413  19.301  0.00  0.00    +0.000 A 
ATOM     17  C   UNL     1       7.428   6.142  18.444  0.00  0.00    +0.000 A 
ATOM     18  F   UNL     1       8.438   6.865  18.944  0.00  0.00    +0.000 F 
ATOM     19  C   UNL     1       7.213   6.126  17.073  0.00  0.00    +0.000 A 
ATOM     20  C   UNL     1       6.161   5.370  16.550  0.00  0.00    +0.000 A 
ATOM     21 CL   UNL     1       5.957   5.384  14.833  0.00  0.00    +0.000 Cl
ENDBRANCH  13  14
ENDBRANCH   2  13
TORSDOF 7
ENDMDL
MODEL 5
REMARK VINA RESULT:      -7.1      3.285      6.323
REMARK  Name = 
REMARK  7 active torsions:
REMARK  status: ('A' for Active; 'I' for Inactive)
REMARK    1  A    between atoms: C_2  and  C_3
REMARK    2  A    between atoms: C_3  and  C_4
REMARK    3  A    between atoms: C_4  and  N_5
REMARK    4  A    between atoms: N_5  and  C_6
REMARK    5  A    between atoms: C_6  and  C_7
REMARK    6  A    between atoms: C_11  and  C_13
REMARK    7  A    between atoms: C_13  and  C_14
REMARK                            x       y       z     vdW  Elec       q    Type
REMARK                         _______ _______ _______ _____ _____    ______ ____
ROOT
ATOM      1  N   UNL     1       2.660   4.257  19.001  0.00  0.00    +0.000 N 
ATOM      2  C   UNL     1       3.755   3.435  18.709  0.00  0.00    +0.000 C 
ATOM      3  O   UNL     1       3.608   2.233  18.463  0.00  0.00    +0.000 OA
ENDROOT
BRANCH   1   4
ATOM      4  C   UNL     1       1.334   3.613  18.997  0.00  0.00    +0.000 C 
BRANCH   4   5
ATOM      5  C   UNL     1       0.676   3.472  20.374  0.00  0.00    +0.000 C 
BRANCH   5   7
ATOM      6  N   UNL     1       2.345   2.566  22.184  0.00  0.00    +0.000 NA
ATOM      7  C   UNL     1       1.598   2.965  21.392  0.00  0.00    +0.000 C 
ENDBRANCH   5   7
ENDBRANCH   4   5
ENDBRANCH   1   4
BRANCH   1   8
ATOM      8  C   UNL     1       2.846   5.678  19.408  0.00  0.00    +0.000 C 
BRANCH   8   9
ATOM      9  C   UNL     1       2.749   6.888  18.459  0.00  0.00    +0.000 C 
ATOM     10  F   UNL     1       2.439   8.050  19.059  0.00  0.00    +0.000 F 
ATOM     11  F   UNL     1       3.918   7.061  17.799  0.00  0.00    +0.000 F 
ATOM     12  F   UNL     1       1.799   6.660  17.519  0.00  0.00    +0.000 F 
ENDBRANCH   8   9
ENDBRANCH   1   8
BRANCH   2  13
ATOM     13  C   UNL     1       5.161   4.033  18.749  0.00  0.00    +0.000 C 
BRANCH  13  14
ATOM     14  C   UNL     1       5.740   4.334  17.379  0.00  0.00    +0.000 A 
ATOM     15  C   UNL     1       5.012   3.991  16.222  0.00  0.00    +0.000 A 
ATOM     16  C   UNL     1       5.514   4.268  14.951  0.00  0.00    +0.000 A 
ATOM     17  C   UNL     1       6.733   4.916  14.822  0.00  0.00    +0.000 A 
ATOM     18  F   UNL     1       7.209   5.191  13.602  0.00  0.00    +0.000 F 
ATOM     19  C   UNL     1       7.462   5.294  15.940  0.00  0.00    +0.000 A 
ATOM     20  C   UNL     1       6.965   5.009  17.214  0.00  0.00    +0.000 A 
ATOM     21 CL   UNL     1       7.919   5.519  18.565  0.00  0.00    +0.000 Cl
ENDBRANCH  13  14
ENDBRANCH   2  13
TORSDOF 7
ENDMDL
MODEL 6
REMARK VINA RESULT:      -7.1      1.299      1.698
REMARK  Name = 
REMARK  7 active torsions:
REMARK  status: ('A' for Active; 'I' for Inactive)
REMARK    1  A    between atoms: C_2  and  C_3
REMARK    2  A    between atoms: C_3  and  C_4
REMARK    3  A    between atoms: C_4  and  N_5
REMARK    4  A    between atoms: N_5  and  C_6
REMARK    5  A    between atoms: C_6  and  C_7
REMARK    6  A    between atoms: C_11  and  C_13
REMARK    7  A    between atoms: C_13  and  C_14
REMARK                            x       y       z     vdW  Elec       q    Type
REMARK                         _______ _______ _______ _____ _____    ______ ____
ROOT
ATOM      1  N   UNL     1       5.328   6.266  16.907  0.00  0.00    +0.000 N 
ATOM      2  C   UNL     1       4.402   5.836  17.866  0.00  0.00    +0.000 C 
ATOM      3  O   UNL     1       4.423   6.276  19.020  0.00  0.00    +0.000 OA
ENDROOT
BRANCH   1   4
ATOM      4  C   UNL     1       6.318   7.265  17.349  0.00  0.00    +0.000 C 
BRANCH   4   5
ATOM      5  C   UNL     1       7.701   6.701  17.693  0.00  0.00    +0.000 C 
BRANCH   5   7
ATOM      6  N   UNL     1       7.742   5.405  19.974  0.00  0.00    +0.000 NA
ATOM      7  C   UNL     1       7.719   5.987  18.972  0.00  0.00    +0.000 C 
ENDBRANCH   5   7
ENDBRANCH   4   5
ENDBRANCH   1   4
BRANCH   1   8
ATOM      8  C   UNL     1       5.376   5.655  15.549  0.00  0.00    +0.000 C 
BRANCH   8   9
ATOM      9  C   UNL     1       6.356   4.550  15.111  0.00  0.00    +0.000 C 
ATOM     10  F   UNL     1       7.450   4.991  14.468  0.00  0.00    +0.000 F 
ATOM     11  F   UNL     1       6.766   3.835  16.185  0.00  0.00    +0.000 F 
ATOM     12  F   UNL     1       5.728   3.682  14.279  0.00  0.00    +0.000 F 
ENDBRANCH   8   9
ENDBRANCH   1   8
BRANCH   2  13
ATOM     13  C   UNL     1       3.384   4.763  17.482  0.00  0.00    +0.000 C 
BRANCH  13  14
ATOM     14  C   UNL     1       2.685   4.128  18.669  0.00  0.00    +0.000 A 
ATOM     15  C   UNL     1       1.875   4.918  19.509  0.00  0.00    +0.000 A 
ATOM     16  C   UNL     1       1.210   4.356  20.599  0.00  0.00    +0.000 A 
ATOM     17  C   UNL     1       1.324   2.997  20.845  0.00  0.00    +0.000 A 
ATOM     18  F   UNL     1       0.677   2.458  21.885  0.00  0.00    +0.000 F 
ATOM     19  C   UNL     1       2.090   2.185  20.022  0.00  0.00    +0.000 A 
ATOM     20  C   UNL     1       2.764   2.746  18.935  0.00  0.00    +0.000 A 
ATOM     21 CL   UNL     1       3.691   1.675  17.943  0.00  0.00    +0.000 Cl
ENDBRANCH  13  14
ENDBRANCH   2  13
TORSDOF 7
ENDMDL
MODEL 7
REMARK VINA RESULT:      -7.1      1.932      2.327
REMARK  Name = 
REMARK  7 active torsions:
REMARK  status: ('A' for Active; 'I' for Inactive)
REMARK    1  A    between atoms: C_2  and  C_3
REMARK    2  A    between atoms: C_3  and  C_4
REMARK    3  A    between atoms: C_4  and  N_5
REMARK    4  A    between atoms: N_5  and  C_6
REMARK    5  A    between atoms: C_6  and  C_7
REMARK    6  A    between atoms: C_11  and  C_13
REMARK    7  A    between atoms: C_13  and  C_14
REMARK                            x       y       z     vdW  Elec       q    Type
REMARK                         _______ _______ _______ _____ _____    ______ ____
ROOT
ATOM      1  N   UNL     1       6.919   5.373  17.614  0.00  0.00    +0.000 N 
ATOM      2  C   UNL     1       5.828   4.856  18.323  0.00  0.00    +0.000 C 
ATOM      3  O   UNL     1       5.476   5.342  19.403  0.00  0.00    +0.000 OA
ENDROOT
BRANCH   1   4
ATOM      4  C   UNL     1       7.617   6.519  18.224  0.00  0.00    +0.000 C 
BRANCH   4   5
ATOM      5  C   UNL     1       7.552   7.822  17.419  0.00  0.00    +0.000 C 
BRANCH   5   7
ATOM      6  N   UNL     1       8.791   9.815  18.592  0.00  0.00    +0.000 NA
ATOM      7  C   UNL     1       8.254   8.927  18.075  0.00  0.00    +0.000 C 
ENDBRANCH   5   7
ENDBRANCH   4   5
ENDBRANCH   1   4
BRANCH   1   8
ATOM      8  C   UNL     1       7.413   4.719  16.370  0.00  0.00    +0.000 C 
BRANCH   8   9
ATOM      9  C   UNL     1       6.730   4.810  14.992  0.00  0.00    +0.000 C 
ATOM     10  F   UNL     1       6.187   3.661  14.555  0.00  0.00    +0.000 F 
ATOM     11  F   UNL     1       5.754   5.747  15.014  0.00  0.00    +0.000 F 
ATOM     12  F   UNL     1       7.631   5.205  14.058  0.00  0.00    +0.000 F 
ENDBRANCH   8   9
ENDBRANCH   1   8
BRANCH   2  13
ATOM     13  C   UNL     1       5.096   3.634  17.767  0.00  0.00    +0.000 C 
BRANCH  13  14
ATOM     14  C   UNL     1       3.700   3.446  18.331  0.00  0.00    +0.000 A 
ATOM     15  C   UNL     1       2.593   3.996  17.655  0.00  0.00    +0.000 A 
ATOM     16  C   UNL     1       1.298   3.826  18.143  0.00  0.00    +0.000 A 
ATOM     17  C   UNL     1       1.092   3.083  19.295  0.00  0.00    +0.000 A 
ATOM     18  F   UNL     1      -0.153   2.912  19.757  0.00  0.00    +0.000 F 
ATOM     19  C   UNL     1       2.156   2.504  19.970  0.00  0.00    +0.000 A 
ATOM     20  C   UNL     1       3.455   2.679  19.487  0.00  0.00    +0.000 A 
ATOM     21 CL   UNL     1       4.734   1.919  20.370  0.00  0.00    +0.000 Cl
ENDBRANCH  13  14
ENDBRANCH   2  13
TORSDOF 7
ENDMDL
MODEL 8
REMARK VINA RESULT:      -7.1      1.628      1.995
REMARK  Name = 
REMARK  7 active torsions:
REMARK  status: ('A' for Active; 'I' for Inactive)
REMARK    1  A    between atoms: C_2  and  C_3
REMARK    2  A    between atoms: C_3  and  C_4
REMARK    3  A    between atoms: C_4  and  N_5
REMARK    4  A    between atoms: N_5  and  C_6
REMARK    5  A    between atoms: C_6  and  C_7
REMARK    6  A    between atoms: C_11  and  C_13
REMARK    7  A    between atoms: C_13  and  C_14
REMARK                            x       y       z     vdW  Elec       q    Type
REMARK                         _______ _______ _______ _____ _____    ______ ____
ROOT
ATOM      1  N   UNL     1       5.322   5.858  17.038  0.00  0.00    +0.000 N 
ATOM      2  C   UNL     1       4.016   5.716  17.521  0.00  0.00    +0.000 C 
ATOM      3  O   UNL     1       3.433   6.650  18.081  0.00  0.00    +0.000 OA
ENDROOT
BRANCH   1   4
ATOM      4  C   UNL     1       5.956   7.175  17.232  0.00  0.00    +0.000 C 
BRANCH   4   5
ATOM      5  C   UNL     1       7.463   7.137  17.506  0.00  0.00    +0.000 C 
BRANCH   5   7
ATOM      6  N   UNL     1       8.445   9.484  18.148  0.00  0.00    +0.000 NA
ATOM      7  C   UNL     1       8.004   8.448  17.875  0.00  0.00    +0.000 C 
ENDBRANCH   5   7
ENDBRANCH   4   5
ENDBRANCH   1   4
BRANCH   1   8
ATOM      8  C   UNL     1       6.066   4.702  16.465  0.00  0.00    +0.000 C 
BRANCH   8   9
ATOM      9  C   UNL     1       6.268   4.439  14.960  0.00  0.00    +0.000 C 
ATOM     10  F   UNL     1       6.276   3.142  14.611  0.00  0.00    +0.000 F 
ATOM     11  F   UNL     1       5.299   5.055  14.242  0.00  0.00    +0.000 F 
ATOM     12  F   UNL     1       7.450   4.968  14.555  0.00  0.00    +0.000 F 
ENDBRANCH   8   9
ENDBRANCH   1   8
BRANCH   2  13
ATOM     13  C   UNL     1       3.325   4.358  17.395  0.00  0.00    +0.000 C 
BRANCH  13  14
ATOM     14  C   UNL     1       2.710   3.860  18.690  0.00  0.00    +0.000 A 
ATOM     15  C   UNL     1       1.310   3.886  18.854  0.00  0.00    +0.000 A 
ATOM     16  C   UNL     1       0.718   3.422  20.028  0.00  0.00    +0.000 A 
ATOM     17  C   UNL     1       1.512   2.902  21.038  0.00  0.00    +0.000 A 
ATOM     18  F   UNL     1       0.941   2.448  22.160  0.00  0.00    +0.000 F 
ATOM     19  C   UNL     1       2.891   2.836  20.898  0.00  0.00    +0.000 A 
ATOM     20  C   UNL     1       3.487   3.308  19.727  0.00  0.00    +0.000 A 
ATOM     21 CL   UNL     1       5.209   3.184  19.613  0.00  0.00    +0.000 Cl
ENDBRANCH  13  14
ENDBRANCH   2  13
TORSDOF 7
ENDMDL
MODEL 9
REMARK VINA RESULT:      -7.0      1.231      1.422
REMARK  Name = 
REMARK  7 active torsions:
REMARK  status: ('A' for Active; 'I' for Inactive)
REMARK    1  A    between atoms: C_2  and  C_3
REMARK    2  A    between atoms: C_3  and  C_4
REMARK    3  A    between atoms: C_4  and  N_5
REMARK    4  A    between atoms: N_5  and  C_6
REMARK    5  A    between atoms: C_6  and  C_7
REMARK    6  A    between atoms: C_11  and  C_13
REMARK    7  A    between atoms: C_13  and  C_14
REMARK                            x       y       z     vdW  Elec       q    Type
REMARK                         _______ _______ _______ _____ _____    ______ ____
ROOT
ATOM      1  N   UNL     1       5.228   5.921  17.272  0.00  0.00    +0.000 N 
ATOM      2  C   UNL     1       3.904   6.162  17.661  0.00  0.00    +0.000 C 
ATOM      3  O   UNL     1       3.579   7.220  18.209  0.00  0.00    +0.000 OA
ENDROOT
BRANCH   1   4
ATOM      4  C   UNL     1       6.200   6.994  17.548  0.00  0.00    +0.000 C 
BRANCH   4   5
ATOM      5  C   UNL     1       7.617   6.517  17.882  0.00  0.00    +0.000 C 
BRANCH   5   7
ATOM      6  N   UNL     1       7.745   5.350  20.228  0.00  0.00    +0.000 NA
ATOM      7  C   UNL     1       7.701   5.865  19.191  0.00  0.00    +0.000 C 
ENDBRANCH   5   7
ENDBRANCH   4   5
ENDBRANCH   1   4
BRANCH   1   8
ATOM      8  C   UNL     1       5.644   4.603  16.716  0.00  0.00    +0.000 C 
BRANCH   8   9
ATOM      9  C   UNL     1       6.086   4.358  15.260  0.00  0.00    +0.000 C 
ATOM     10  F   UNL     1       6.036   3.074  14.865  0.00  0.00    +0.000 F 
ATOM     11  F   UNL     1       5.322   5.083  14.410  0.00  0.00    +0.000 F 
ATOM     12  F   UNL     1       7.365   4.777  15.092  0.00  0.00    +0.000 F 
ENDBRANCH   8   9
ENDBRANCH   1   8
BRANCH   2  13
ATOM     13  C   UNL     1       2.860   5.066  17.449  0.00  0.00    +0.000 C 
BRANCH  13  14
ATOM     14  C   UNL     1       2.433   4.369  18.727  0.00  0.00    +0.000 A 
ATOM     15  C   UNL     1       2.026   5.134  19.838  0.00  0.00    +0.000 A 
ATOM     16  C   UNL     1       1.616   4.518  21.021  0.00  0.00    +0.000 A 
ATOM     17  C   UNL     1       1.581   3.135  21.097  0.00  0.00    +0.000 A 
ATOM     18  F   UNL     1       1.177   2.546  22.229  0.00  0.00    +0.000 F 
ATOM     19  C   UNL     1       1.948   2.351  20.013  0.00  0.00    +0.000 A 
ATOM     20  C   UNL     1       2.367   2.965  18.830  0.00  0.00    +0.000 A 
ATOM     21 CL   UNL     1       2.798   1.929  17.514  0.00  0.00    +0.000 Cl
ENDBRANCH  13  14
ENDBRANCH   2  13
TORSDOF 7
ENDMDL
