MODEL 1
REMARK VINA RESULT:      -8.4      0.000      0.000
REMARK  Name = 
REMARK  7 active torsions:
REMARK  status: ('A' for Active; 'I' for Inactive)
REMARK    1  A    between atoms: C_1  and  C_2
REMARK    2  A    between atoms: C_3  and  N_4
REMARK    3  A    between atoms: N_7  and  C_8
REMARK    4  A    between atoms: C_9  and  C_10
REMARK    5  A    between atoms: C_16  and  C_17
REMARK    6  A    between atoms: C_16  and  C_18
REMARK    7  A    between atoms: N_21  and  C_22
REMARK                            x       y       z     vdW  Elec       q    Type
REMARK                         _______ _______ _______ _____ _____    ______ ____
ROOT
ATOM      1  N   UNL     1       7.191   5.031  17.738  0.00  0.00    +0.000 N 
ATOM      2  C   UNL     1       6.208   5.206  18.685  0.00  0.00    +0.000 C 
ATOM      3  O   UNL     1       6.514   5.281  19.871  0.00  0.00    +0.000 OA
ATOM      4  N   UNL     1       4.935   5.362  18.210  0.00  0.00    +0.000 N 
ATOM      5  H   UNL     1       8.128   5.026  18.113  0.00  0.00    +0.000 HD
ATOM      6  H   UNL     1       4.795   5.241  17.212  0.00  0.00    +0.000 HD
ENDROOT
BRANCH   1   9
ATOM      7  C   UNL     1       5.462   2.871  16.036  0.00  0.00    +0.000 C 
ATOM      8  C   UNL     1       6.279   4.046  15.662  0.00  0.00    +0.000 A 
ATOM      9  C   UNL     1       7.024   4.963  16.376  0.00  0.00    +0.000 A 
ATOM     10  N   UNL     1       7.638   5.826  15.507  0.00  0.00    +0.000 NA
ATOM     11  N   UNL     1       7.308   5.485  14.275  0.00  0.00    +0.000 NA
ATOM     12  N   UNL     1       6.504   4.414  14.359  0.00  0.00    +0.000 N 
ATOM     13  C   UNL     1       6.045   3.776  13.153  0.00  0.00    +0.000 C 
ENDBRANCH   1   9
BRANCH   4  14
ATOM     14  C   UNL     1       3.810   5.781  18.989  0.00  0.00    +0.000 C 
ATOM     15  C   UNL     1       2.650   6.451  18.263  0.00  0.00    +0.000 C 
ATOM     16  C   UNL     1       2.461   5.108  18.957  0.00  0.00    +0.000 C 
ATOM     17  C   UNL     1       2.298   3.877  18.101  0.00  0.00    +0.000 C 
ATOM     18  C   UNL     1       1.693   5.040  20.254  0.00  0.00    +0.000 C 
BRANCH  15  19
ATOM     19  C   UNL     1       2.030   7.730  18.786  0.00  0.00    +0.000 A 
ATOM     20  C   UNL     1       1.726   7.918  20.144  0.00  0.00    +0.000 A 
ATOM     21  C   UNL     1       1.173   9.112  20.616  0.00  0.00    +0.000 A 
ATOM     22  C   UNL     1       0.930  10.161  19.735  0.00  0.00    +0.000 A 
ATOM     23  C   UNL     1       1.241  10.013  18.387  0.00  0.00    +0.000 A 
ATOM     24  C   UNL     1       1.784   8.812  17.921  0.00  0.00    +0.000 A 
ENDBRANCH  15  19
ENDBRANCH   4  14
TORSDOF 3
ENDMDL
MODEL 2
REMARK VINA RESULT:      -8.3      0.107      1.028
REMARK  Name = 
REMARK  7 active torsions:
REMARK  status: ('A' for Active; 'I' for Inactive)
REMARK    1  A    between atoms: C_1  and  C_2
REMARK    2  A    between atoms: C_3  and  N_4
REMARK    3  A    between atoms: N_7  and  C_8
REMARK    4  A    between atoms: C_9  and  C_10
REMARK    5  A    between atoms: C_16  and  C_17
REMARK    6  A    between atoms: C_16  and  C_18
REMARK    7  A    between atoms: N_21  and  C_22
REMARK                            x       y       z     vdW  Elec       q    Type
REMARK                         _______ _______ _______ _____ _____    ______ ____
ROOT
ATOM      1  N   UNL     1       7.199   4.970  17.751  0.00  0.00    +0.000 N 
ATOM      2  C   UNL     1       6.229   5.186  18.702  0.00  0.00    +0.000 C 
ATOM      3  O   UNL     1       6.542   5.237  19.888  0.00  0.00    +0.000 OA
ATOM      4  N   UNL     1       4.964   5.409  18.234  0.00  0.00    +0.000 N 
ATOM      5  H   UNL     1       8.137   4.916  18.122  0.00  0.00    +0.000 HD
ATOM      6  H   UNL     1       4.815   5.303  17.235  0.00  0.00    +0.000 HD
ENDROOT
BRANCH   1   9
ATOM      7  C   UNL     1       5.430   2.856  16.032  0.00  0.00    +0.000 C 
ATOM      8  C   UNL     1       6.262   4.023  15.668  0.00  0.00    +0.000 A 
ATOM      9  C   UNL     1       7.025   4.920  16.389  0.00  0.00    +0.000 A 
ATOM     10  N   UNL     1       7.648   5.785  15.527  0.00  0.00    +0.000 NA
ATOM     11  N   UNL     1       7.306   5.463  14.293  0.00  0.00    +0.000 NA
ATOM     12  N   UNL     1       6.486   4.403  14.368  0.00  0.00    +0.000 N 
ATOM     13  C   UNL     1       6.012   3.786  13.157  0.00  0.00    +0.000 C 
ENDBRANCH   1   9
BRANCH   4  14
ATOM     14  C   UNL     1       3.864   5.877  19.019  0.00  0.00    +0.000 C 
ATOM     15  C   UNL     1       2.685   6.509  18.290  0.00  0.00    +0.000 C 
ATOM     16  C   UNL     1       2.513   5.210  19.067  0.00  0.00    +0.000 C 
ATOM     17  C   UNL     1       2.321   3.932  18.289  0.00  0.00    +0.000 C 
ATOM     18  C   UNL     1       1.784   5.221  20.388  0.00  0.00    +0.000 C 
BRANCH  15  19
ATOM     19  C   UNL     1       2.084   7.820  18.756  0.00  0.00    +0.000 A 
ATOM     20  C   UNL     1       1.875   8.902  17.885  0.00  0.00    +0.000 A 
ATOM     21  C   UNL     1       1.301  10.099  18.325  0.00  0.00    +0.000 A 
ATOM     22  C   UNL     1       0.901  10.233  19.651  0.00  0.00    +0.000 A 
ATOM     23  C   UNL     1       1.076   9.170  20.532  0.00  0.00    +0.000 A 
ATOM     24  C   UNL     1       1.661   7.980  20.087  0.00  0.00    +0.000 A 
ENDBRANCH  15  19
ENDBRANCH   4  14
TORSDOF 3
ENDMDL
MODEL 3
REMARK VINA RESULT:      -8.2      3.456      7.586
REMARK  Name = 
REMARK  7 active torsions:
REMARK  status: ('A' for Active; 'I' for Inactive)
REMARK    1  A    between atoms: C_1  and  C_2
REMARK    2  A    between atoms: C_3  and  N_4
REMARK    3  A    between atoms: N_7  and  C_8
REMARK    4  A    between atoms: C_9  and  C_10
REMARK    5  A    between atoms: C_16  and  C_17
REMARK    6  A    between atoms: C_16  and  C_18
REMARK    7  A    between atoms: N_21  and  C_22
REMARK                            x       y       z     vdW  Elec       q    Type
REMARK                         _______ _______ _______ _____ _____    ______ ____
ROOT
ATOM      1  N   UNL     1       1.454   9.692  19.010  0.00  0.00    +0.000 N 
ATOM      2  C   UNL     1       1.918   8.642  18.252  0.00  0.00    +0.000 C 
ATOM      3  O   UNL     1       2.372   8.856  17.132  0.00  0.00    +0.000 OA
ATOM      4  N   UNL     1       1.904   7.414  18.851  0.00  0.00    +0.000 N 
ATOM      5  H   UNL     1       1.577  10.598  18.581  0.00  0.00    +0.000 HD
ATOM      6  H   UNL     1       1.467   7.349  19.766  0.00  0.00    +0.000 HD
ENDROOT
BRANCH   1   9
ATOM      7  C   UNL     1      -1.029  11.367  20.268  0.00  0.00    +0.000 C 
ATOM      8  C   UNL     1      -0.112  10.340  20.809  0.00  0.00    +0.000 A 
ATOM      9  C   UNL     1       0.950   9.631  20.287  0.00  0.00    +0.000 A 
ATOM     10  N   UNL     1       1.492   8.836  21.264  0.00  0.00    +0.000 NA
ATOM     11  N   UNL     1       0.810   9.021  22.379  0.00  0.00    +0.000 NA
ATOM     12  N   UNL     1      -0.145   9.928  22.119  0.00  0.00    +0.000 N 
ATOM     13  C   UNL     1      -1.001  10.382  23.183  0.00  0.00    +0.000 C 
ENDBRANCH   1   9
BRANCH   4  14
ATOM     14  C   UNL     1       2.544   6.240  18.341  0.00  0.00    +0.000 C 
ATOM     15  C   UNL     1       3.955   5.930  18.824  0.00  0.00    +0.000 C 
ATOM     16  C   UNL     1       2.798   4.995  19.153  0.00  0.00    +0.000 C 
ATOM     17  C   UNL     1       2.293   4.953  20.573  0.00  0.00    +0.000 C 
ATOM     18  C   UNL     1       2.684   3.670  18.438  0.00  0.00    +0.000 C 
BRANCH  15  19
ATOM     19  C   UNL     1       5.053   5.554  17.850  0.00  0.00    +0.000 A 
ATOM     20  C   UNL     1       6.234   4.911  18.260  0.00  0.00    +0.000 A 
ATOM     21  C   UNL     1       7.230   4.551  17.347  0.00  0.00    +0.000 A 
ATOM     22  C   UNL     1       7.056   4.810  15.991  0.00  0.00    +0.000 A 
ATOM     23  C   UNL     1       5.889   5.426  15.553  0.00  0.00    +0.000 A 
ATOM     24  C   UNL     1       4.901   5.792  16.473  0.00  0.00    +0.000 A 
ENDBRANCH  15  19
ENDBRANCH   4  14
TORSDOF 3
ENDMDL
MODEL 4
REMARK VINA RESULT:      -8.1      3.534      7.683
REMARK  Name = 
REMARK  7 active torsions:
REMARK  status: ('A' for Active; 'I' for Inactive)
REMARK    1  A    between atoms: C_1  and  C_2
REMARK    2  A    between atoms: C_3  and  N_4
REMARK    3  A    between atoms: N_7  and  C_8
REMARK    4  A    between atoms: C_9  and  C_10
REMARK    5  A    between atoms: C_16  and  C_17
REMARK    6  A    between atoms: C_16  and  C_18
REMARK    7  A    between atoms: N_21  and  C_22
REMARK                            x       y       z     vdW  Elec       q    Type
REMARK                         _______ _______ _______ _____ _____    ______ ____
ROOT
ATOM      1  N   UNL     1       1.418   9.866  19.047  0.00  0.00    +0.000 N 
ATOM      2  C   UNL     1       1.856   8.817  18.272  0.00  0.00    +0.000 C 
ATOM      3  O   UNL     1       2.328   9.038  17.161  0.00  0.00    +0.000 OA
ATOM      4  N   UNL     1       1.799   7.578  18.848  0.00  0.00    +0.000 N 
ATOM      5  H   UNL     1       1.573  10.776  18.636  0.00  0.00    +0.000 HD
ATOM      6  H   UNL     1       1.352   7.510  19.757  0.00  0.00    +0.000 HD
ENDROOT
BRANCH   1   9
ATOM      7  C   UNL     1      -1.116  11.489  20.271  0.00  0.00    +0.000 C 
ATOM      8  C   UNL     1      -0.183  10.483  20.826  0.00  0.00    +0.000 A 
ATOM      9  C   UNL     1       0.901   9.796  20.318  0.00  0.00    +0.000 A 
ATOM     10  N   UNL     1       1.448   9.016  21.302  0.00  0.00    +0.000 NA
ATOM     11  N   UNL     1       0.749   9.188  22.409  0.00  0.00    +0.000 NA
ATOM     12  N   UNL     1      -0.222  10.072  22.136  0.00  0.00    +0.000 N 
ATOM     13  C   UNL     1      -1.100  10.510  23.188  0.00  0.00    +0.000 C 
ENDBRANCH   1   9
BRANCH   4  14
ATOM     14  C   UNL     1       2.407   6.395  18.320  0.00  0.00    +0.000 C 
ATOM     15  C   UNL     1       3.763   5.980  18.879  0.00  0.00    +0.000 C 
ATOM     16  C   UNL     1       2.536   5.100  19.081  0.00  0.00    +0.000 C 
ATOM     17  C   UNL     1       1.933   5.019  20.461  0.00  0.00    +0.000 C 
ATOM     18  C   UNL     1       2.398   3.820  18.293  0.00  0.00    +0.000 C 
BRANCH  15  19
ATOM     19  C   UNL     1       4.903   5.588  17.962  0.00  0.00    +0.000 A 
ATOM     20  C   UNL     1       4.883   5.854  16.582  0.00  0.00    +0.000 A 
ATOM     21  C   UNL     1       5.952   5.504  15.751  0.00  0.00    +0.000 A 
ATOM     22  C   UNL     1       7.081   4.895  16.290  0.00  0.00    +0.000 A 
ATOM     23  C   UNL     1       7.138   4.638  17.656  0.00  0.00    +0.000 A 
ATOM     24  C   UNL     1       6.061   4.981  18.479  0.00  0.00    +0.000 A 
ENDBRANCH  15  19
ENDBRANCH   4  14
TORSDOF 3
ENDMDL
MODEL 5
REMARK VINA RESULT:      -8.1      2.234      7.064
REMARK  Name = 
REMARK  7 active torsions:
REMARK  status: ('A' for Active; 'I' for Inactive)
REMARK    1  A    between atoms: C_1  and  C_2
REMARK    2  A    between atoms: C_3  and  N_4
REMARK    3  A    between atoms: N_7  and  C_8
REMARK    4  A    between atoms: C_9  and  C_10
REMARK    5  A    between atoms: C_16  and  C_17
REMARK    6  A    between atoms: C_16  and  C_18
REMARK    7  A    between atoms: N_21  and  C_22
REMARK                            x       y       z     vdW  Elec       q    Type
REMARK                         _______ _______ _______ _____ _____    ______ ____
ROOT
ATOM      1  N   UNL     1       2.592   6.317  19.448  0.00  0.00    +0.000 N 
ATOM      2  C   UNL     1       3.639   5.518  19.050  0.00  0.00    +0.000 C 
ATOM      3  O   UNL     1       3.781   4.408  19.555  0.00  0.00    +0.000 OA
ATOM      4  N   UNL     1       4.420   6.006  18.040  0.00  0.00    +0.000 N 
ATOM      5  H   UNL     1       1.973   5.884  20.118  0.00  0.00    +0.000 HD
ATOM      6  H   UNL     1       4.233   6.953  17.727  0.00  0.00    +0.000 HD
ENDROOT
BRANCH   1   9
ATOM      7  C   UNL     1       1.061   8.735  20.985  0.00  0.00    +0.000 C 
ATOM      8  C   UNL     1       1.629   8.587  19.627  0.00  0.00    +0.000 A 
ATOM      9  C   UNL     1       2.272   7.562  18.962  0.00  0.00    +0.000 A 
ATOM     10  N   UNL     1       2.538   7.950  17.675  0.00  0.00    +0.000 NA
ATOM     11  N   UNL     1       2.085   9.178  17.506  0.00  0.00    +0.000 NA
ATOM     12  N   UNL     1       1.530   9.563  18.666  0.00  0.00    +0.000 N 
ATOM     13  C   UNL     1       0.882  10.845  18.753  0.00  0.00    +0.000 C 
ENDBRANCH   1   9
BRANCH   4  14
ATOM     14  C   UNL     1       5.406   5.255  17.324  0.00  0.00    +0.000 C 
ATOM     15  C   UNL     1       6.048   5.904  16.104  0.00  0.00    +0.000 C 
ATOM     16  C   UNL     1       6.881   5.568  17.335  0.00  0.00    +0.000 C 
ATOM     17  C   UNL     1       7.362   6.702  18.204  0.00  0.00    +0.000 C 
ATOM     18  C   UNL     1       7.834   4.399  17.295  0.00  0.00    +0.000 C 
BRANCH  15  19
ATOM     19  C   UNL     1       6.190   5.151  14.797  0.00  0.00    +0.000 A 
ATOM     20  C   UNL     1       7.342   5.241  13.999  0.00  0.00    +0.000 A 
ATOM     21  C   UNL     1       7.467   4.524  12.805  0.00  0.00    +0.000 A 
ATOM     22  C   UNL     1       6.442   3.679  12.390  0.00  0.00    +0.000 A 
ATOM     23  C   UNL     1       5.297   3.553  13.171  0.00  0.00    +0.000 A 
ATOM     24  C   UNL     1       5.175   4.281  14.359  0.00  0.00    +0.000 A 
ENDBRANCH  15  19
ENDBRANCH   4  14
TORSDOF 3
ENDMDL
MODEL 6
REMARK VINA RESULT:      -8.0      2.270      7.011
REMARK  Name = 
REMARK  7 active torsions:
REMARK  status: ('A' for Active; 'I' for Inactive)
REMARK    1  A    between atoms: C_1  and  C_2
REMARK    2  A    between atoms: C_3  and  N_4
REMARK    3  A    between atoms: N_7  and  C_8
REMARK    4  A    between atoms: C_9  and  C_10
REMARK    5  A    between atoms: C_16  and  C_17
REMARK    6  A    between atoms: C_16  and  C_18
REMARK    7  A    between atoms: N_21  and  C_22
REMARK                            x       y       z     vdW  Elec       q    Type
REMARK                         _______ _______ _______ _____ _____    ______ ____
ROOT
ATOM      1  N   UNL     1       2.692   6.101  19.788  0.00  0.00    +0.000 N 
ATOM      2  C   UNL     1       3.760   5.350  19.353  0.00  0.00    +0.000 C 
ATOM      3  O   UNL     1       3.975   4.252  19.857  0.00  0.00    +0.000 OA
ATOM      4  N   UNL     1       4.477   5.869  18.311  0.00  0.00    +0.000 N 
ATOM      5  H   UNL     1       2.122   5.643  20.484  0.00  0.00    +0.000 HD
ATOM      6  H   UNL     1       4.232   6.804  18.001  0.00  0.00    +0.000 HD
ENDROOT
BRANCH   1   9
ATOM      7  C   UNL     1       1.192   8.490  21.399  0.00  0.00    +0.000 C 
ATOM      8  C   UNL     1       1.665   8.339  20.005  0.00  0.00    +0.000 A 
ATOM      9  C   UNL     1       2.294   7.326  19.310  0.00  0.00    +0.000 A 
ATOM     10  N   UNL     1       2.451   7.701  18.001  0.00  0.00    +0.000 NA
ATOM     11  N   UNL     1       1.944   8.911  17.849  0.00  0.00    +0.000 NA
ATOM     12  N   UNL     1       1.462   9.295  19.041  0.00  0.00    +0.000 N 
ATOM     13  C   UNL     1       0.777  10.556  19.157  0.00  0.00    +0.000 C 
ENDBRANCH   1   9
BRANCH   4  14
ATOM     14  C   UNL     1       5.469   5.162  17.560  0.00  0.00    +0.000 C 
ATOM     15  C   UNL     1       6.050   5.844  16.327  0.00  0.00    +0.000 C 
ATOM     16  C   UNL     1       6.930   5.531  17.530  0.00  0.00    +0.000 C 
ATOM     17  C   UNL     1       7.394   6.677  18.395  0.00  0.00    +0.000 C 
ATOM     18  C   UNL     1       7.926   4.400  17.452  0.00  0.00    +0.000 C 
BRANCH  15  19
ATOM     19  C   UNL     1       6.181   5.107  15.010  0.00  0.00    +0.000 A 
ATOM     20  C   UNL     1       5.186   4.238  14.532  0.00  0.00    +0.000 A 
ATOM     21  C   UNL     1       5.312   3.581  13.305  0.00  0.00    +0.000 A 
ATOM     22  C   UNL     1       6.436   3.795  12.513  0.00  0.00    +0.000 A 
ATOM     23  C   UNL     1       7.429   4.665  12.950  0.00  0.00    +0.000 A 
ATOM     24  C   UNL     1       7.301   5.312  14.184  0.00  0.00    +0.000 A 
ENDBRANCH  15  19
ENDBRANCH   4  14
TORSDOF 3
ENDMDL
MODEL 7
REMARK VINA RESULT:      -7.9      3.677      6.235
REMARK  Name = 
REMARK  7 active torsions:
REMARK  status: ('A' for Active; 'I' for Inactive)
REMARK    1  A    between atoms: C_1  and  C_2
REMARK    2  A    between atoms: C_3  and  N_4
REMARK    3  A    between atoms: N_7  and  C_8
REMARK    4  A    between atoms: C_9  and  C_10
REMARK    5  A    between atoms: C_16  and  C_17
REMARK    6  A    between atoms: C_16  and  C_18
REMARK    7  A    between atoms: N_21  and  C_22
REMARK                            x       y       z     vdW  Elec       q    Type
REMARK                         _______ _______ _______ _____ _____    ______ ____
ROOT
ATOM      1  N   UNL     1       2.913   7.144  18.126  0.00  0.00    +0.000 N 
ATOM      2  C   UNL     1       2.435   8.410  17.882  0.00  0.00    +0.000 C 
ATOM      3  O   UNL     1       2.967   9.105  17.021  0.00  0.00    +0.000 OA
ATOM      4  N   UNL     1       1.323   8.781  18.585  0.00  0.00    +0.000 N 
ATOM      5  H   UNL     1       3.667   6.862  17.516  0.00  0.00    +0.000 HD
ATOM      6  H   UNL     1       0.992   8.139  19.300  0.00  0.00    +0.000 HD
ENDROOT
BRANCH   1   9
ATOM      7  C   UNL     1       2.145   4.032  17.600  0.00  0.00    +0.000 C 
ATOM      8  C   UNL     1       2.099   4.907  18.792  0.00  0.00    +0.000 A 
ATOM      9  C   UNL     1       2.414   6.230  19.023  0.00  0.00    +0.000 A 
ATOM     10  N   UNL     1       2.119   6.548  20.323  0.00  0.00    +0.000 NA
ATOM     11  N   UNL     1       1.631   5.474  20.916  0.00  0.00    +0.000 NA
ATOM     12  N   UNL     1       1.606   4.491  20.004  0.00  0.00    +0.000 N 
ATOM     13  C   UNL     1       1.045   3.212  20.354  0.00  0.00    +0.000 C 
ENDBRANCH   1   9
BRANCH   4  14
ATOM     14  C   UNL     1       0.533   9.945  18.326  0.00  0.00    +0.000 C 
ATOM     15  C   UNL     1      -0.900   9.965  18.845  0.00  0.00    +0.000 C 
ATOM     16  C   UNL     1       0.134  10.949  19.378  0.00  0.00    +0.000 C 
ATOM     17  C   UNL     1       0.650  10.754  20.781  0.00  0.00    +0.000 C 
ATOM     18  C   UNL     1       0.070  12.398  18.960  0.00  0.00    +0.000 C 
BRANCH  15  19
ATOM     19  C   UNL     1      -2.051  10.396  17.958  0.00  0.00    +0.000 A 
ATOM     20  C   UNL     1      -2.174   9.968  16.626  0.00  0.00    +0.000 A 
ATOM     21  C   UNL     1      -3.253  10.357  15.826  0.00  0.00    +0.000 A 
ATOM     22  C   UNL     1      -4.250  11.173  16.352  0.00  0.00    +0.000 A 
ATOM     23  C   UNL     1      -4.166  11.595  17.674  0.00  0.00    +0.000 A 
ATOM     24  C   UNL     1      -3.079  11.211  18.466  0.00  0.00    +0.000 A 
ENDBRANCH  15  19
ENDBRANCH   4  14
TORSDOF 3
ENDMDL
MODEL 8
REMARK VINA RESULT:      -7.8      3.694      6.198
REMARK  Name = 
REMARK  7 active torsions:
REMARK  status: ('A' for Active; 'I' for Inactive)
REMARK    1  A    between atoms: C_1  and  C_2
REMARK    2  A    between atoms: C_3  and  N_4
REMARK    3  A    between atoms: N_7  and  C_8
REMARK    4  A    between atoms: C_9  and  C_10
REMARK    5  A    between atoms: C_16  and  C_17
REMARK    6  A    between atoms: C_16  and  C_18
REMARK    7  A    between atoms: N_21  and  C_22
REMARK                            x       y       z     vdW  Elec       q    Type
REMARK                         _______ _______ _______ _____ _____    ______ ____
ROOT
ATOM      1  N   UNL     1       2.880   7.111  18.124  0.00  0.00    +0.000 N 
ATOM      2  C   UNL     1       2.402   8.377  17.879  0.00  0.00    +0.000 C 
ATOM      3  O   UNL     1       2.935   9.071  17.018  0.00  0.00    +0.000 OA
ATOM      4  N   UNL     1       1.291   8.749  18.582  0.00  0.00    +0.000 N 
ATOM      5  H   UNL     1       3.634   6.829  17.515  0.00  0.00    +0.000 HD
ATOM      6  H   UNL     1       0.959   8.108  19.297  0.00  0.00    +0.000 HD
ENDROOT
BRANCH   1   9
ATOM      7  C   UNL     1       2.083   4.007  17.592  0.00  0.00    +0.000 C 
ATOM      8  C   UNL     1       2.054   4.878  18.788  0.00  0.00    +0.000 A 
ATOM      9  C   UNL     1       2.381   6.198  19.021  0.00  0.00    +0.000 A 
ATOM     10  N   UNL     1       2.099   6.513  20.325  0.00  0.00    +0.000 NA
ATOM     11  N   UNL     1       1.607   5.441  20.918  0.00  0.00    +0.000 NA
ATOM     12  N   UNL     1       1.566   4.461  20.002  0.00  0.00    +0.000 N 
ATOM     13  C   UNL     1       0.999   3.186  20.352  0.00  0.00    +0.000 C 
ENDBRANCH   1   9
BRANCH   4  14
ATOM     14  C   UNL     1       0.501   9.913  18.322  0.00  0.00    +0.000 C 
ATOM     15  C   UNL     1      -0.923   9.945  18.864  0.00  0.00    +0.000 C 
ATOM     16  C   UNL     1       0.123  10.931  19.368  0.00  0.00    +0.000 C 
ATOM     17  C   UNL     1       0.663  10.751  20.765  0.00  0.00    +0.000 C 
ATOM     18  C   UNL     1       0.058  12.375  18.934  0.00  0.00    +0.000 C 
BRANCH  15  19
ATOM     19  C   UNL     1      -2.087  10.370  17.992  0.00  0.00    +0.000 A 
ATOM     20  C   UNL     1      -3.096  11.231  18.453  0.00  0.00    +0.000 A 
ATOM     21  C   UNL     1      -4.153  11.631  17.630  0.00  0.00    +0.000 A 
ATOM     22  C   UNL     1      -4.214  11.190  16.312  0.00  0.00    +0.000 A 
ATOM     23  C   UNL     1      -3.217  10.353  15.821  0.00  0.00    +0.000 A 
ATOM     24  C   UNL     1      -2.168   9.949  16.653  0.00  0.00    +0.000 A 
ENDBRANCH  15  19
ENDBRANCH   4  14
TORSDOF 3
ENDMDL
MODEL 9
REMARK VINA RESULT:      -7.8      1.333      2.080
REMARK  Name = 
REMARK  7 active torsions:
REMARK  status: ('A' for Active; 'I' for Inactive)
REMARK    1  A    between atoms: C_1  and  C_2
REMARK    2  A    between atoms: C_3  and  N_4
REMARK    3  A    between atoms: N_7  and  C_8
REMARK    4  A    between atoms: C_9  and  C_10
REMARK    5  A    between atoms: C_16  and  C_17
REMARK    6  A    between atoms: C_16  and  C_18
REMARK    7  A    between atoms: N_21  and  C_22
REMARK                            x       y       z     vdW  Elec       q    Type
REMARK                         _______ _______ _______ _____ _____    ______ ____
ROOT
ATOM      1  N   UNL     1       7.352   5.852  15.994  0.00  0.00    +0.000 N 
ATOM      2  C   UNL     1       6.690   6.156  17.161  0.00  0.00    +0.000 C 
ATOM      3  O   UNL     1       7.159   6.995  17.925  0.00  0.00    +0.000 OA
ATOM      4  N   UNL     1       5.486   5.538  17.350  0.00  0.00    +0.000 N 
ATOM      5  H   UNL     1       8.183   6.403  15.835  0.00  0.00    +0.000 HD
ATOM      6  H   UNL     1       5.216   4.832  16.671  0.00  0.00    +0.000 HD
ENDROOT
BRANCH   1   9
ATOM      7  C   UNL     1       8.266   5.750  12.879  0.00  0.00    +0.000 C 
ATOM      8  C   UNL     1       7.351   4.929  13.701  0.00  0.00    +0.000 A 
ATOM      9  C   UNL     1       6.949   4.970  15.021  0.00  0.00    +0.000 A 
ATOM     10  N   UNL     1       6.020   3.987  15.245  0.00  0.00    +0.000 NA
ATOM     11  N   UNL     1       5.824   3.332  14.116  0.00  0.00    +0.000 NA
ATOM     12  N   UNL     1       6.608   3.896  13.185  0.00  0.00    +0.000 N 
ATOM     13  C   UNL     1       6.544   3.428  11.825  0.00  0.00    +0.000 C 
ENDBRANCH   1   9
BRANCH   4  14
ATOM     14  C   UNL     1       4.535   5.876  18.364  0.00  0.00    +0.000 C 
ATOM     15  C   UNL     1       3.128   6.262  17.923  0.00  0.00    +0.000 C 
ATOM     16  C   UNL     1       3.365   5.006  18.752  0.00  0.00    +0.000 C 
ATOM     17  C   UNL     1       3.220   3.665  18.077  0.00  0.00    +0.000 C 
ATOM     18  C   UNL     1       2.972   4.988  20.208  0.00  0.00    +0.000 C 
BRANCH  15  19
ATOM     19  C   UNL     1       2.437   7.487  18.484  0.00  0.00    +0.000 A 
ATOM     20  C   UNL     1       2.145   8.613  17.695  0.00  0.00    +0.000 A 
ATOM     21  C   UNL     1       1.488   9.729  18.222  0.00  0.00    +0.000 A 
ATOM     22  C   UNL     1       1.088   9.736  19.555  0.00  0.00    +0.000 A 
ATOM     23  C   UNL     1       1.345   8.628  20.355  0.00  0.00    +0.000 A 
ATOM     24  C   UNL     1       2.012   7.519  19.824  0.00  0.00    +0.000 A 
ENDBRANCH  15  19
ENDBRANCH   4  14
TORSDOF 3
ENDMDL
