MODEL 1
REMARK VINA RESULT:      -7.3      0.000      0.000
REMARK  Name = 
REMARK  7 active torsions:
REMARK  status: ('A' for Active; 'I' for Inactive)
REMARK    1  A    between atoms: C_1  and  O_2
REMARK    2  A    between atoms: O_2  and  C_3
REMARK    3  A    between atoms: C_3  and  C_4
REMARK    4  A    between atoms: C_4  and  N_5
REMARK    5  A    between atoms: N_8  and  C_9
REMARK    6  A    between atoms: C_9  and  C_10
REMARK    7  A    between atoms: C_12  and  C_13
REMARK                            x       y       z     vdW  Elec       q    Type
REMARK                         _______ _______ _______ _____ _____    ______ ____
ROOT
ATOM      1  C   UNL     1       2.476   5.323  19.388  0.00  0.00    +0.000 C 
ATOM      2  C   UNL     1       2.079   4.736  18.015  0.00  0.00    +0.000 C 
ATOM      3  C   UNL     1       2.008   3.218  17.946  0.00  0.00    +0.000 C 
ATOM      4  C   UNL     1       1.276   2.572  19.121  0.00  0.00    +0.000 C 
ATOM      5  C   UNL     1       1.471   3.204  20.502  0.00  0.00    +0.000 C 
ATOM      6  C   UNL     1       1.581   4.725  20.501  0.00  0.00    +0.000 C 
ENDROOT
BRANCH   1  10
ATOM      7  N   UNL     1       6.189   5.130  19.350  0.00  0.00    +0.000 N 
ATOM      8  C   UNL     1       4.972   5.568  18.906  0.00  0.00    +0.000 C 
ATOM      9  O   UNL     1       4.892   6.204  17.865  0.00  0.00    +0.000 OA
ATOM     10  N   UNL     1       3.925   5.179  19.683  0.00  0.00    +0.000 N 
ATOM     11  H   UNL     1       6.324   5.091  20.350  0.00  0.00    +0.000 HD
ATOM     12  H   UNL     1       4.152   4.541  20.437  0.00  0.00    +0.000 HD
BRANCH   7  13
ATOM     13  C   UNL     1       7.371   5.458  18.555  0.00  0.00    +0.000 C 
BRANCH  13  14
ATOM     14  C   UNL     1       7.518   4.573  17.315  0.00  0.00    +0.000 C 
BRANCH  14  16
ATOM     15  C   UNL     1       7.030   4.713  15.014  0.00  0.00    +0.000 C 
ATOM     16  O   UNL     1       7.518   5.410  16.153  0.00  0.00    +0.000 OA
ENDBRANCH  14  16
ENDBRANCH  13  14
ENDBRANCH   7  13
ENDBRANCH   1  10
BRANCH   1  17
ATOM     17  C   UNL     1       2.202   6.827  19.316  0.00  0.00    +0.000 A 
ATOM     18  N   UNL     1       2.182   7.647  18.281  0.00  0.00    +0.000 NA
ATOM     19  C   UNL     1       1.768   8.825  18.860  0.00  0.00    +0.000 A 
ATOM     20  C   UNL     1       1.511  10.061  18.090  0.00  0.00    +0.000 C 
ATOM     21  N   UNL     1       1.566   8.768  20.180  0.00  0.00    +0.000 NA
ATOM     22  O   UNL     1       1.859   7.445  20.490  0.00  0.00    +0.000 OA
ENDBRANCH   1  17
TORSDOF 5
ENDMDL
MODEL 2
REMARK VINA RESULT:      -7.3      0.966      1.256
REMARK  Name = 
REMARK  7 active torsions:
REMARK  status: ('A' for Active; 'I' for Inactive)
REMARK    1  A    between atoms: C_1  and  O_2
REMARK    2  A    between atoms: O_2  and  C_3
REMARK    3  A    between atoms: C_3  and  C_4
REMARK    4  A    between atoms: C_4  and  N_5
REMARK    5  A    between atoms: N_8  and  C_9
REMARK    6  A    between atoms: C_9  and  C_10
REMARK    7  A    between atoms: C_12  and  C_13
REMARK                            x       y       z     vdW  Elec       q    Type
REMARK                         _______ _______ _______ _____ _____    ______ ____
ROOT
ATOM      1  C   UNL     1       2.342   5.221  19.381  0.00  0.00    +0.000 C 
ATOM      2  C   UNL     1       1.906   4.657  18.010  0.00  0.00    +0.000 C 
ATOM      3  C   UNL     1       1.780   3.144  17.932  0.00  0.00    +0.000 C 
ATOM      4  C   UNL     1       1.041   2.516  19.113  0.00  0.00    +0.000 C 
ATOM      5  C   UNL     1       1.277   3.130  20.495  0.00  0.00    +0.000 C 
ATOM      6  C   UNL     1       1.441   4.647  20.502  0.00  0.00    +0.000 C 
ENDROOT
BRANCH   1  10
ATOM      7  N   UNL     1       6.034   4.792  19.274  0.00  0.00    +0.000 N 
ATOM      8  C   UNL     1       4.831   5.249  18.810  0.00  0.00    +0.000 C 
ATOM      9  O   UNL     1       4.756   5.758  17.701  0.00  0.00    +0.000 OA
ATOM     10  N   UNL     1       3.789   5.022  19.656  0.00  0.00    +0.000 N 
ATOM     11  H   UNL     1       6.199   4.866  20.268  0.00  0.00    +0.000 HD
ATOM     12  H   UNL     1       4.003   4.468  20.475  0.00  0.00    +0.000 HD
BRANCH   7  13
ATOM     13  C   UNL     1       7.207   4.947  18.415  0.00  0.00    +0.000 C 
BRANCH  13  14
ATOM     14  C   UNL     1       7.937   6.274  18.641  0.00  0.00    +0.000 C 
BRANCH  14  16
ATOM     15  C   UNL     1       7.737   8.408  17.661  0.00  0.00    +0.000 C 
ATOM     16  O   UNL     1       7.918   7.019  17.418  0.00  0.00    +0.000 OA
ENDBRANCH  14  16
ENDBRANCH  13  14
ENDBRANCH   7  13
ENDBRANCH   1  10
BRANCH   1  17
ATOM     17  C   UNL     1       2.121   6.734  19.323  0.00  0.00    +0.000 A 
ATOM     18  N   UNL     1       2.190   7.572  18.305  0.00  0.00    +0.000 NA
ATOM     19  C   UNL     1       1.779   8.753  18.881  0.00  0.00    +0.000 A 
ATOM     20  C   UNL     1       1.609  10.010  18.121  0.00  0.00    +0.000 C 
ATOM     21  N   UNL     1       1.495   8.679  20.185  0.00  0.00    +0.000 NA
ATOM     22  O   UNL     1       1.727   7.342  20.486  0.00  0.00    +0.000 OA
ENDBRANCH   1  17
TORSDOF 5
ENDMDL
MODEL 3
REMARK VINA RESULT:      -7.2      2.185      5.722
REMARK  Name = 
REMARK  7 active torsions:
REMARK  status: ('A' for Active; 'I' for Inactive)
REMARK    1  A    between atoms: C_1  and  O_2
REMARK    2  A    between atoms: O_2  and  C_3
REMARK    3  A    between atoms: C_3  and  C_4
REMARK    4  A    between atoms: C_4  and  N_5
REMARK    5  A    between atoms: N_8  and  C_9
REMARK    6  A    between atoms: C_9  and  C_10
REMARK    7  A    between atoms: C_12  and  C_13
REMARK                            x       y       z     vdW  Elec       q    Type
REMARK                         _______ _______ _______ _____ _____    ______ ____
ROOT
ATOM      1  C   UNL     1       4.093   4.594  18.857  0.00  0.00    +0.000 C 
ATOM      2  C   UNL     1       4.461   3.185  19.372  0.00  0.00    +0.000 C 
ATOM      3  C   UNL     1       3.324   2.175  19.393  0.00  0.00    +0.000 C 
ATOM      4  C   UNL     1       2.479   2.159  18.120  0.00  0.00    +0.000 C 
ATOM      5  C   UNL     1       2.212   3.503  17.437  0.00  0.00    +0.000 C 
ATOM      6  C   UNL     1       3.374   4.490  17.490  0.00  0.00    +0.000 C 
ENDROOT
BRANCH   1  10
ATOM      7  N   UNL     1       2.150   7.134  20.755  0.00  0.00    +0.000 N 
ATOM      8  C   UNL     1       2.591   6.515  19.618  0.00  0.00    +0.000 C 
ATOM      9  O   UNL     1       2.364   7.011  18.523  0.00  0.00    +0.000 OA
ATOM     10  N   UNL     1       3.320   5.389  19.847  0.00  0.00    +0.000 N 
ATOM     11  H   UNL     1       1.880   6.538  21.525  0.00  0.00    +0.000 HD
ATOM     12  H   UNL     1       3.528   5.193  20.818  0.00  0.00    +0.000 HD
BRANCH   7  13
ATOM     13  C   UNL     1       1.396   8.379  20.613  0.00  0.00    +0.000 C 
BRANCH  13  14
ATOM     14  C   UNL     1       0.953   8.962  21.957  0.00  0.00    +0.000 C 
BRANCH  14  16
ATOM     15  C   UNL     1      -0.690  10.322  22.958  0.00  0.00    +0.000 C 
ATOM     16  O   UNL     1      -0.161   9.833  21.733  0.00  0.00    +0.000 OA
ENDBRANCH  14  16
ENDBRANCH  13  14
ENDBRANCH   7  13
ENDBRANCH   1  10
BRANCH   1  17
ATOM     17  C   UNL     1       5.411   5.341  18.645  0.00  0.00    +0.000 A 
ATOM     18  N   UNL     1       5.721   6.315  17.809  0.00  0.00    +0.000 NA
ATOM     19  C   UNL     1       7.009   6.618  18.190  0.00  0.00    +0.000 A 
ATOM     20  C   UNL     1       7.793   7.719  17.592  0.00  0.00    +0.000 C 
ATOM     21  N   UNL     1       7.497   5.869  19.183  0.00  0.00    +0.000 NA
ATOM     22  O   UNL     1       6.443   5.014  19.486  0.00  0.00    +0.000 OA
ENDBRANCH   1  17
TORSDOF 5
ENDMDL
MODEL 4
REMARK VINA RESULT:      -7.2      2.758      6.820
REMARK  Name = 
REMARK  7 active torsions:
REMARK  status: ('A' for Active; 'I' for Inactive)
REMARK    1  A    between atoms: C_1  and  O_2
REMARK    2  A    between atoms: O_2  and  C_3
REMARK    3  A    between atoms: C_3  and  C_4
REMARK    4  A    between atoms: C_4  and  N_5
REMARK    5  A    between atoms: N_8  and  C_9
REMARK    6  A    between atoms: C_9  and  C_10
REMARK    7  A    between atoms: C_12  and  C_13
REMARK                            x       y       z     vdW  Elec       q    Type
REMARK                         _______ _______ _______ _____ _____    ______ ____
ROOT
ATOM      1  C   UNL     1       6.539   5.542  16.567  0.00  0.00    +0.000 C 
ATOM      2  C   UNL     1       7.196   6.935  16.448  0.00  0.00    +0.000 C 
ATOM      3  C   UNL     1       7.506   7.630  17.764  0.00  0.00    +0.000 C 
ATOM      4  C   UNL     1       8.167   6.730  18.807  0.00  0.00    +0.000 C 
ATOM      5  C   UNL     1       7.700   5.273  18.874  0.00  0.00    +0.000 C 
ATOM      6  C   UNL     1       7.360   4.646  17.526  0.00  0.00    +0.000 C 
ENDROOT
BRANCH   1  10
ATOM      7  N   UNL     1       3.004   4.915  17.535  0.00  0.00    +0.000 N 
ATOM      8  C   UNL     1       4.338   4.618  17.476  0.00  0.00    +0.000 C 
ATOM      9  O   UNL     1       4.738   3.521  17.836  0.00  0.00    +0.000 OA
ATOM     10  N   UNL     1       5.102   5.610  16.942  0.00  0.00    +0.000 N 
ATOM     11  H   UNL     1       2.757   5.873  17.739  0.00  0.00    +0.000 HD
ATOM     12  H   UNL     1       4.594   6.402  16.570  0.00  0.00    +0.000 HD
BRANCH   7  13
ATOM     13  C   UNL     1       2.094   3.893  18.051  0.00  0.00    +0.000 C 
BRANCH  13  14
ATOM     14  C   UNL     1       1.505   4.257  19.417  0.00  0.00    +0.000 C 
BRANCH  14  16
ATOM     15  C   UNL     1       1.516   2.850  21.307  0.00  0.00    +0.000 C 
ATOM     16  O   UNL     1       0.970   3.070  20.014  0.00  0.00    +0.000 OA
ENDBRANCH  14  16
ENDBRANCH  13  14
ENDBRANCH   7  13
ENDBRANCH   1  10
BRANCH   1  17
ATOM     17  C   UNL     1       6.587   4.914  15.172  0.00  0.00    +0.000 A 
ATOM     18  N   UNL     1       5.773   4.053  14.591  0.00  0.00    +0.000 NA
ATOM     19  C   UNL     1       6.299   3.978  13.320  0.00  0.00    +0.000 A 
ATOM     20  C   UNL     1       5.687   3.183  12.235  0.00  0.00    +0.000 C 
ATOM     21  N   UNL     1       7.390   4.721  13.114  0.00  0.00    +0.000 NA
ATOM     22  O   UNL     1       7.592   5.340  14.343  0.00  0.00    +0.000 OA
ENDBRANCH   1  17
TORSDOF 5
ENDMDL
MODEL 5
REMARK VINA RESULT:      -7.2      2.893      5.380
REMARK  Name = 
REMARK  7 active torsions:
REMARK  status: ('A' for Active; 'I' for Inactive)
REMARK    1  A    between atoms: C_1  and  O_2
REMARK    2  A    between atoms: O_2  and  C_3
REMARK    3  A    between atoms: C_3  and  C_4
REMARK    4  A    between atoms: C_4  and  N_5
REMARK    5  A    between atoms: N_8  and  C_9
REMARK    6  A    between atoms: C_9  and  C_10
REMARK    7  A    between atoms: C_12  and  C_13
REMARK                            x       y       z     vdW  Elec       q    Type
REMARK                         _______ _______ _______ _____ _____    ______ ____
ROOT
ATOM      1  C   UNL     1       5.670   5.149  17.462  0.00  0.00    +0.000 C 
ATOM      2  C   UNL     1       6.392   4.849  18.795  0.00  0.00    +0.000 C 
ATOM      3  C   UNL     1       7.788   5.436  18.933  0.00  0.00    +0.000 C 
ATOM      4  C   UNL     1       7.899   6.895  18.492  0.00  0.00    +0.000 C 
ATOM      5  C   UNL     1       7.072   7.327  17.278  0.00  0.00    +0.000 C 
ATOM      6  C   UNL     1       5.700   6.669  17.171  0.00  0.00    +0.000 C 
ENDROOT
BRANCH   1  10
ATOM      7  N   UNL     1       6.531   3.627  14.181  0.00  0.00    +0.000 N 
ATOM      8  C   UNL     1       6.148   4.650  15.004  0.00  0.00    +0.000 C 
ATOM      9  O   UNL     1       5.761   5.708  14.527  0.00  0.00    +0.000 OA
ATOM     10  N   UNL     1       6.190   4.341  16.328  0.00  0.00    +0.000 N 
ATOM     11  H   UNL     1       7.276   3.030  14.510  0.00  0.00    +0.000 HD
ATOM     12  H   UNL     1       6.405   3.376  16.546  0.00  0.00    +0.000 HD
BRANCH   7  13
ATOM     13  C   UNL     1       6.475   3.848  12.736  0.00  0.00    +0.000 C 
BRANCH  13  14
ATOM     14  C   UNL     1       5.512   2.892  12.026  0.00  0.00    +0.000 C 
BRANCH  14  16
ATOM     15  C   UNL     1       3.567   3.134  10.719  0.00  0.00    +0.000 C 
ATOM     16  O   UNL     1       4.238   3.535  11.906  0.00  0.00    +0.000 OA
ENDBRANCH  14  16
ENDBRANCH  13  14
ENDBRANCH   7  13
ENDBRANCH   1  10
BRANCH   1  17
ATOM     17  C   UNL     1       4.210   4.730  17.652  0.00  0.00    +0.000 A 
ATOM     18  N   UNL     1       3.683   3.545  17.898  0.00  0.00    +0.000 NA
ATOM     19  C   UNL     1       2.352   3.856  18.068  0.00  0.00    +0.000 A 
ATOM     20  C   UNL     1       1.329   2.858  18.444  0.00  0.00    +0.000 C 
ATOM     21  N   UNL     1       2.048   5.148  17.913  0.00  0.00    +0.000 NA
ATOM     22  O   UNL     1       3.277   5.733  17.630  0.00  0.00    +0.000 OA
ENDBRANCH   1  17
TORSDOF 5
ENDMDL
MODEL 6
REMARK VINA RESULT:      -7.1      1.041      1.239
REMARK  Name = 
REMARK  7 active torsions:
REMARK  status: ('A' for Active; 'I' for Inactive)
REMARK    1  A    between atoms: C_1  and  O_2
REMARK    2  A    between atoms: O_2  and  C_3
REMARK    3  A    between atoms: C_3  and  C_4
REMARK    4  A    between atoms: C_4  and  N_5
REMARK    5  A    between atoms: N_8  and  C_9
REMARK    6  A    between atoms: C_9  and  C_10
REMARK    7  A    between atoms: C_12  and  C_13
REMARK                            x       y       z     vdW  Elec       q    Type
REMARK                         _______ _______ _______ _____ _____    ______ ____
ROOT
ATOM      1  C   UNL     1       2.348   5.319  19.725  0.00  0.00    +0.000 C 
ATOM      2  C   UNL     1       1.861   4.909  18.316  0.00  0.00    +0.000 C 
ATOM      3  C   UNL     1       1.991   3.432  17.981  0.00  0.00    +0.000 C 
ATOM      4  C   UNL     1       1.514   2.494  19.089  0.00  0.00    +0.000 C 
ATOM      5  C   UNL     1       1.798   2.914  20.534  0.00  0.00    +0.000 C 
ATOM      6  C   UNL     1       1.696   4.413  20.797  0.00  0.00    +0.000 C 
ENDROOT
BRANCH   1  10
ATOM      7  N   UNL     1       6.028   5.422  19.205  0.00  0.00    +0.000 N 
ATOM      8  C   UNL     1       4.726   5.654  18.856  0.00  0.00    +0.000 C 
ATOM      9  O   UNL     1       4.454   6.041  17.729  0.00  0.00    +0.000 OA
ATOM     10  N   UNL     1       3.829   5.359  19.836  0.00  0.00    +0.000 N 
ATOM     11  H   UNL     1       6.286   5.612  20.163  0.00  0.00    +0.000 HD
ATOM     12  H   UNL     1       4.213   4.920  20.664  0.00  0.00    +0.000 HD
BRANCH   7  13
ATOM     13  C   UNL     1       7.063   5.665  18.201  0.00  0.00    +0.000 C 
BRANCH  13  14
ATOM     14  C   UNL     1       7.604   4.374  17.581  0.00  0.00    +0.000 C 
BRANCH  14  16
ATOM     15  C   UNL     1       6.679   4.649  15.431  0.00  0.00    +0.000 C 
ATOM     16  O   UNL     1       7.877   4.612  16.195  0.00  0.00    +0.000 OA
ENDBRANCH  14  16
ENDBRANCH  13  14
ENDBRANCH   7  13
ENDBRANCH   1  10
BRANCH   1  17
ATOM     17  C   UNL     1       1.863   6.752  19.955  0.00  0.00    +0.000 A 
ATOM     18  N   UNL     1       1.376   7.329  21.038  0.00  0.00    +0.000 NA
ATOM     19  C   UNL     1       1.241   8.636  20.628  0.00  0.00    +0.000 A 
ATOM     20  C   UNL     1       0.792   9.725  21.521  0.00  0.00    +0.000 C 
ATOM     21  N   UNL     1       1.593   8.871  19.360  0.00  0.00    +0.000 NA
ATOM     22  O   UNL     1       2.000   7.622  18.905  0.00  0.00    +0.000 OA
ENDBRANCH   1  17
TORSDOF 5
ENDMDL
MODEL 7
REMARK VINA RESULT:      -7.1      1.107      1.190
REMARK  Name = 
REMARK  7 active torsions:
REMARK  status: ('A' for Active; 'I' for Inactive)
REMARK    1  A    between atoms: C_1  and  O_2
REMARK    2  A    between atoms: O_2  and  C_3
REMARK    3  A    between atoms: C_3  and  C_4
REMARK    4  A    between atoms: C_4  and  N_5
REMARK    5  A    between atoms: N_8  and  C_9
REMARK    6  A    between atoms: C_9  and  C_10
REMARK    7  A    between atoms: C_12  and  C_13
REMARK                            x       y       z     vdW  Elec       q    Type
REMARK                         _______ _______ _______ _____ _____    ______ ____
ROOT
ATOM      1  C   UNL     1       2.549   5.007  19.625  0.00  0.00    +0.000 C 
ATOM      2  C   UNL     1       1.537   4.267  18.721  0.00  0.00    +0.000 C 
ATOM      3  C   UNL     1       1.421   2.769  18.955  0.00  0.00    +0.000 C 
ATOM      4  C   UNL     1       1.330   2.370  20.427  0.00  0.00    +0.000 C 
ATOM      5  C   UNL     1       2.169   3.173  21.424  0.00  0.00    +0.000 C 
ATOM      6  C   UNL     1       2.286   4.662  21.111  0.00  0.00    +0.000 C 
ENDROOT
BRANCH   1  10
ATOM      7  N   UNL     1       5.760   4.214  17.927  0.00  0.00    +0.000 N 
ATOM      8  C   UNL     1       4.450   4.607  17.968  0.00  0.00    +0.000 C 
ATOM      9  O   UNL     1       3.815   4.730  16.931  0.00  0.00    +0.000 OA
ATOM     10  N   UNL     1       3.961   4.771  19.227  0.00  0.00    +0.000 N 
ATOM     11  H   UNL     1       6.374   4.593  18.633  0.00  0.00    +0.000 HD
ATOM     12  H   UNL     1       4.583   4.498  19.978  0.00  0.00    +0.000 HD
BRANCH   7  13
ATOM     13  C   UNL     1       6.363   3.966  16.618  0.00  0.00    +0.000 C 
BRANCH  13  14
ATOM     14  C   UNL     1       7.464   4.972  16.271  0.00  0.00    +0.000 C 
BRANCH  14  16
ATOM     15  C   UNL     1       6.472   4.407  14.210  0.00  0.00    +0.000 C 
ATOM     16  O   UNL     1       7.389   5.268  14.872  0.00  0.00    +0.000 OA
ENDBRANCH  14  16
ENDBRANCH  13  14
ENDBRANCH   7  13
ENDBRANCH   1  10
BRANCH   1  17
ATOM     17  C   UNL     1       2.295   6.504  19.433  0.00  0.00    +0.000 A 
ATOM     18  N   UNL     1       2.450   7.270  18.370  0.00  0.00    +0.000 NA
ATOM     19  C   UNL     1       1.948   8.474  18.811  0.00  0.00    +0.000 A 
ATOM     20  C   UNL     1       1.826   9.668  17.948  0.00  0.00    +0.000 C 
ATOM     21  N   UNL     1       1.526   8.481  20.079  0.00  0.00    +0.000 NA
ATOM     22  O   UNL     1       1.761   7.177  20.501  0.00  0.00    +0.000 OA
ENDBRANCH   1  17
TORSDOF 5
ENDMDL
MODEL 8
REMARK VINA RESULT:      -7.0      3.680      6.185
REMARK  Name = 
REMARK  7 active torsions:
REMARK  status: ('A' for Active; 'I' for Inactive)
REMARK    1  A    between atoms: C_1  and  O_2
REMARK    2  A    between atoms: O_2  and  C_3
REMARK    3  A    between atoms: C_3  and  C_4
REMARK    4  A    between atoms: C_4  and  N_5
REMARK    5  A    between atoms: N_8  and  C_9
REMARK    6  A    between atoms: C_9  and  C_10
REMARK    7  A    between atoms: C_12  and  C_13
REMARK                            x       y       z     vdW  Elec       q    Type
REMARK                         _______ _______ _______ _____ _____    ______ ____
ROOT
ATOM      1  C   UNL     1       5.914   5.895  16.896  0.00  0.00    +0.000 C 
ATOM      2  C   UNL     1       6.422   4.950  18.008  0.00  0.00    +0.000 C 
ATOM      3  C   UNL     1       5.847   5.197  19.394  0.00  0.00    +0.000 C 
ATOM      4  C   UNL     1       4.334   5.407  19.415  0.00  0.00    +0.000 C 
ATOM      5  C   UNL     1       3.717   6.184  18.249  0.00  0.00    +0.000 C 
ATOM      6  C   UNL     1       4.366   5.928  16.893  0.00  0.00    +0.000 C 
ENDROOT
BRANCH   1  10
ATOM      7  N   UNL     1       7.744   9.015  17.757  0.00  0.00    +0.000 N 
ATOM      8  C   UNL     1       7.540   7.662  17.765  0.00  0.00    +0.000 C 
ATOM      9  O   UNL     1       8.219   6.945  18.485  0.00  0.00    +0.000 OA
ATOM     10  N   UNL     1       6.513   7.253  16.972  0.00  0.00    +0.000 N 
ATOM     11  H   UNL     1       7.595   9.495  16.881  0.00  0.00    +0.000 HD
ATOM     12  H   UNL     1       5.966   7.992  16.546  0.00  0.00    +0.000 HD
BRANCH   7  13
ATOM     13  C   UNL     1       8.797   9.557  18.615  0.00  0.00    +0.000 C 
BRANCH  13  14
ATOM     14  C   UNL     1       9.272  10.942  18.169  0.00  0.00    +0.000 C 
BRANCH  14  16
ATOM     15  C   UNL     1       9.377  10.968  20.523  0.00  0.00    +0.000 C 
ATOM     16  O   UNL     1       9.644  11.693  19.330  0.00  0.00    +0.000 OA
ENDBRANCH  14  16
ENDBRANCH  13  14
ENDBRANCH   7  13
ENDBRANCH   1  10
BRANCH   1  17
ATOM     17  C   UNL     1       6.379   5.296  15.567  0.00  0.00    +0.000 A 
ATOM     18  N   UNL     1       5.784   4.440  14.757  0.00  0.00    +0.000 NA
ATOM     19  C   UNL     1       6.661   4.396  13.696  0.00  0.00    +0.000 A 
ATOM     20  C   UNL     1       6.406   3.618  12.465  0.00  0.00    +0.000 C 
ATOM     21  N   UNL     1       7.755   5.151  13.833  0.00  0.00    +0.000 NA
ATOM     22  O   UNL     1       7.577   5.747  15.077  0.00  0.00    +0.000 OA
ENDBRANCH   1  17
TORSDOF 5
ENDMDL
MODEL 9
REMARK VINA RESULT:      -7.0      1.801      5.503
REMARK  Name = 
REMARK  7 active torsions:
REMARK  status: ('A' for Active; 'I' for Inactive)
REMARK    1  A    between atoms: C_1  and  O_2
REMARK    2  A    between atoms: O_2  and  C_3
REMARK    3  A    between atoms: C_3  and  C_4
REMARK    4  A    between atoms: C_4  and  N_5
REMARK    5  A    between atoms: N_8  and  C_9
REMARK    6  A    between atoms: C_9  and  C_10
REMARK    7  A    between atoms: C_12  and  C_13
REMARK                            x       y       z     vdW  Elec       q    Type
REMARK                         _______ _______ _______ _____ _____    ______ ____
ROOT
ATOM      1  C   UNL     1       3.236   4.658  19.269  0.00  0.00    +0.000 C 
ATOM      2  C   UNL     1       3.404   3.223  19.819  0.00  0.00    +0.000 C 
ATOM      3  C   UNL     1       2.132   2.392  19.883  0.00  0.00    +0.000 C 
ATOM      4  C   UNL     1       1.272   2.466  18.623  0.00  0.00    +0.000 C 
ATOM      5  C   UNL     1       1.192   3.817  17.906  0.00  0.00    +0.000 C 
ATOM      6  C   UNL     1       2.487   4.624  17.915  0.00  0.00    +0.000 C 
ENDROOT
BRANCH   1  10
ATOM      7  N   UNL     1       1.823   7.527  21.165  0.00  0.00    +0.000 N 
ATOM      8  C   UNL     1       2.186   6.858  20.028  0.00  0.00    +0.000 C 
ATOM      9  O   UNL     1       2.166   7.430  18.948  0.00  0.00    +0.000 OA
ATOM     10  N   UNL     1       2.605   5.583  20.247  0.00  0.00    +0.000 N 
ATOM     11  H   UNL     1       1.363   6.989  21.885  0.00  0.00    +0.000 HD
ATOM     12  H   UNL     1       2.689   5.309  21.218  0.00  0.00    +0.000 HD
BRANCH   7  13
ATOM     13  C   UNL     1       1.402   8.922  21.038  0.00  0.00    +0.000 C 
BRANCH  13  14
ATOM     14  C   UNL     1      -0.108   9.105  21.214  0.00  0.00    +0.000 C 
BRANCH  14  16
ATOM     15  C   UNL     1       0.419  10.587  19.459  0.00  0.00    +0.000 C 
ATOM     16  O   UNL     1      -0.611   9.842  20.094  0.00  0.00    +0.000 OA
ENDBRANCH  14  16
ENDBRANCH  13  14
ENDBRANCH   7  13
ENDBRANCH   1  10
BRANCH   1  17
ATOM     17  C   UNL     1       4.646   5.198  19.018  0.00  0.00    +0.000 A 
ATOM     18  N   UNL     1       5.769   5.006  19.685  0.00  0.00    +0.000 NA
ATOM     19  C   UNL     1       6.685   5.663  18.894  0.00  0.00    +0.000 A 
ATOM     20  C   UNL     1       8.136   5.679  19.176  0.00  0.00    +0.000 C 
ATOM     21  N   UNL     1       6.175   6.258  17.811  0.00  0.00    +0.000 NA
ATOM     22  O   UNL     1       4.820   5.958  17.891  0.00  0.00    +0.000 OA
ENDBRANCH   1  17
TORSDOF 5
ENDMDL
