MODEL 1
REMARK VINA RESULT:      -8.1      0.000      0.000
REMARK  Name = 
REMARK  8 active torsions:
REMARK  status: ('A' for Active; 'I' for Inactive)
REMARK    1  A    between atoms: C_1  and  C_2
REMARK    2  A    between atoms: C_2  and  C_3
REMARK    3  A    between atoms: C_7  and  C_8
REMARK    4  A    between atoms: C_11  and  C_12
REMARK    5  A    between atoms: N_17  and  C_18
REMARK    6  A    between atoms: C_18  and  C_19
REMARK    7  A    between atoms: C_25  and  C_26
REMARK    8  A    between atoms: C_27  and  C_28
REMARK                            x       y       z     vdW  Elec       q    Type
REMARK                         _______ _______ _______ _____ _____    ______ ____
ROOT
ATOM      1  C   UNL     1       2.770   2.362  19.497  0.00  0.00    +0.000 A 
ATOM      2  N   UNL     1       1.830   1.944  20.386  0.00  0.00    +0.000 NA
ATOM      3  C   UNL     1       1.076   2.881  20.978  0.00  0.00    +0.000 A 
ATOM      4  C   UNL     1       1.240   4.234  20.757  0.00  0.00    +0.000 A 
ATOM      5  C   UNL     1       2.176   4.686  19.806  0.00  0.00    +0.000 A 
ATOM      6  C   UNL     1       2.943   3.708  19.132  0.00  0.00    +0.000 A 
ENDROOT
BRANCH   5   7
ATOM      7  C   UNL     1       2.232   6.131  19.485  0.00  0.00    +0.000 A 
ATOM      8  C   UNL     1       1.945   7.055  20.496  0.00  0.00    +0.000 A 
ATOM      9  C   UNL     1       1.789   8.406  20.214  0.00  0.00    +0.000 A 
ATOM     10  C   UNL     1       2.002   8.908  18.931  0.00  0.00    +0.000 A 
ATOM     11  C   UNL     1       2.340   8.008  17.923  0.00  0.00    +0.000 A 
ATOM     12  F   UNL     1       2.510   8.409  16.654  0.00  0.00    +0.000 F 
ATOM     13  C   UNL     1       2.472   6.641  18.196  0.00  0.00    +0.000 A 
BRANCH  10  14
ATOM     14  C   UNL     1       1.703  10.329  18.615  0.00  0.00    +0.000 C 
ATOM     15  O   UNL     1       2.528  10.954  17.952  0.00  0.00    +0.000 OA
ATOM     16  N   UNL     1       0.474  10.884  18.970  0.00  0.00    +0.000 N 
ATOM     17  C   UNL     1       0.034  12.111  18.299  0.00  0.00    +0.000 C 
ATOM     18  C   UNL     1      -1.395  11.943  17.723  0.00  0.00    +0.000 C 
ATOM     19  N   UNL     1      -2.405  11.401  18.674  0.00  0.00    +0.000 NA
ATOM     20  C   UNL     1      -1.860  10.173  19.292  0.00  0.00    +0.000 C 
ATOM     21  C   UNL     1      -0.486  10.386  19.963  0.00  0.00    +0.000 C 
BRANCH  19  22
ATOM     22  C   UNL     1      -2.794  12.422  19.660  0.00  0.00    +0.000 C 
ATOM     23  C   UNL     1      -4.295  12.463  19.931  0.00  0.00    +0.000 C 
ENDBRANCH  19  22
ENDBRANCH  10  14
ENDBRANCH   5   7
BRANCH   1  25
ATOM     24  C   UNL     1       4.816   1.126  20.099  0.00  0.00    +0.000 C 
ATOM     25  C   UNL     1       3.724   1.283  19.049  0.00  0.00    +0.000 C 
ENDBRANCH   1  25
BRANCH   6  26
ATOM     26  C   UNL     1       3.841   4.054  18.060  0.00  0.00    +0.000 C 
ATOM     27  C   UNL     1       4.612   4.348  17.181  0.00  0.00    +0.000 C 
BRANCH  27  28
ATOM     28  C   UNL     1       5.534   4.690  16.144  0.00  0.00    +0.000 A 
ATOM     29  C   UNL     1       5.342   4.273  14.828  0.00  0.00    +0.000 A 
ATOM     30  C   UNL     1       6.283   4.627  13.858  0.00  0.00    +0.000 A 
ATOM     31  C   UNL     1       7.390   5.375  14.228  0.00  0.00    +0.000 A 
ATOM     32  N   UNL     1       8.339   5.760  13.284  0.00  0.00    +0.000 N 
ATOM     33  N   UNL     1       7.590   5.801  15.485  0.00  0.00    +0.000 NA
ATOM     34  C   UNL     1       6.661   5.451  16.415  0.00  0.00    +0.000 A 
ATOM     35  H   UNL     1       8.690   4.970  12.757  0.00  0.00    +0.000 HD
ATOM     36  H   UNL     1       9.076   6.246  13.789  0.00  0.00    +0.000 HD
ENDBRANCH  27  28
ENDBRANCH   6  26
TORSDOF 6
ENDMDL
MODEL 2
REMARK VINA RESULT:      -7.9      1.007      1.120
REMARK  Name = 
REMARK  8 active torsions:
REMARK  status: ('A' for Active; 'I' for Inactive)
REMARK    1  A    between atoms: C_1  and  C_2
REMARK    2  A    between atoms: C_2  and  C_3
REMARK    3  A    between atoms: C_7  and  C_8
REMARK    4  A    between atoms: C_11  and  C_12
REMARK    5  A    between atoms: N_17  and  C_18
REMARK    6  A    between atoms: C_18  and  C_19
REMARK    7  A    between atoms: C_25  and  C_26
REMARK    8  A    between atoms: C_27  and  C_28
REMARK                            x       y       z     vdW  Elec       q    Type
REMARK                         _______ _______ _______ _____ _____    ______ ____
ROOT
ATOM      1  C   UNL     1       3.108   2.431  19.996  0.00  0.00    +0.000 A 
ATOM      2  N   UNL     1       2.209   2.006  20.924  0.00  0.00    +0.000 NA
ATOM      3  C   UNL     1       1.403   2.925  21.474  0.00  0.00    +0.000 A 
ATOM      4  C   UNL     1       1.475   4.271  21.172  0.00  0.00    +0.000 A 
ATOM      5  C   UNL     1       2.366   4.726  20.180  0.00  0.00    +0.000 A 
ATOM      6  C   UNL     1       3.187   3.761  19.551  0.00  0.00    +0.000 A 
ENDROOT
BRANCH   5   7
ATOM      7  C   UNL     1       2.322   6.150  19.774  0.00  0.00    +0.000 A 
ATOM      8  C   UNL     1       1.742   7.079  20.646  0.00  0.00    +0.000 A 
ATOM      9  C   UNL     1       1.494   8.385  20.245  0.00  0.00    +0.000 A 
ATOM     10  C   UNL     1       1.897   8.848  18.993  0.00  0.00    +0.000 A 
ATOM     11  C   UNL     1       2.522   7.950  18.132  0.00  0.00    +0.000 A 
ATOM     12  F   UNL     1       2.891   8.308  16.894  0.00  0.00    +0.000 F 
ATOM     13  C   UNL     1       2.750   6.624  18.522  0.00  0.00    +0.000 A 
BRANCH  10  14
ATOM     14  C   UNL     1       1.508  10.205  18.528  0.00  0.00    +0.000 C 
ATOM     15  O   UNL     1       1.697  10.480  17.344  0.00  0.00    +0.000 OA
ATOM     16  N   UNL     1       0.850  11.082  19.389  0.00  0.00    +0.000 N 
ATOM     17  C   UNL     1       0.113  12.212  18.816  0.00  0.00    +0.000 C 
ATOM     18  C   UNL     1      -1.339  12.255  19.356  0.00  0.00    +0.000 C 
ATOM     19  N   UNL     1      -1.472  12.159  20.837  0.00  0.00    +0.000 NA
ATOM     20  C   UNL     1      -0.692  10.994  21.306  0.00  0.00    +0.000 C 
ATOM     21  C   UNL     1       0.785  11.026  20.855  0.00  0.00    +0.000 C 
BRANCH  19  22
ATOM     22  C   UNL     1      -1.069  13.421  21.479  0.00  0.00    +0.000 C 
ATOM     23  C   UNL     1      -1.983  14.594  21.135  0.00  0.00    +0.000 C 
ENDBRANCH  19  22
ENDBRANCH  10  14
ENDBRANCH   5   7
BRANCH   1  25
ATOM     24  C   UNL     1       5.143   1.242  20.718  0.00  0.00    +0.000 C 
ATOM     25  C   UNL     1       4.125   1.392  19.596  0.00  0.00    +0.000 C 
ENDBRANCH   1  25
BRANCH   6  26
ATOM     26  C   UNL     1       4.045   4.101  18.446  0.00  0.00    +0.000 C 
ATOM     27  C   UNL     1       4.766   4.360  17.515  0.00  0.00    +0.000 C 
BRANCH  27  28
ATOM     28  C   UNL     1       5.615   4.659  16.404  0.00  0.00    +0.000 A 
ATOM     29  C   UNL     1       5.408   4.086  15.150  0.00  0.00    +0.000 A 
ATOM     30  C   UNL     1       6.278   4.406  14.105  0.00  0.00    +0.000 A 
ATOM     31  C   UNL     1       7.330   5.277  14.341  0.00  0.00    +0.000 A 
ATOM     32  N   UNL     1       8.206   5.632  13.317  0.00  0.00    +0.000 N 
ATOM     33  N   UNL     1       7.543   5.852  15.534  0.00  0.00    +0.000 NA
ATOM     34  C   UNL     1       6.683   5.533  16.539  0.00  0.00    +0.000 A 
ATOM     35  H   UNL     1       8.603   4.819  12.860  0.00  0.00    +0.000 HD
ATOM     36  H   UNL     1       8.919   6.227  13.731  0.00  0.00    +0.000 HD
ENDBRANCH  27  28
ENDBRANCH   6  26
TORSDOF 6
ENDMDL
MODEL 3
REMARK VINA RESULT:      -7.7      2.761      9.208
REMARK  Name = 
REMARK  8 active torsions:
REMARK  status: ('A' for Active; 'I' for Inactive)
REMARK    1  A    between atoms: C_1  and  C_2
REMARK    2  A    between atoms: C_2  and  C_3
REMARK    3  A    between atoms: C_7  and  C_8
REMARK    4  A    between atoms: C_11  and  C_12
REMARK    5  A    between atoms: N_17  and  C_18
REMARK    6  A    between atoms: C_18  and  C_19
REMARK    7  A    between atoms: C_25  and  C_26
REMARK    8  A    between atoms: C_27  and  C_28
REMARK                            x       y       z     vdW  Elec       q    Type
REMARK                         _______ _______ _______ _____ _____    ______ ____
ROOT
ATOM      1  C   UNL     1      -2.260  12.441  21.035  0.00  0.00    +0.000 A 
ATOM      2  N   UNL     1      -1.829  12.859  22.255  0.00  0.00    +0.000 NA
ATOM      3  C   UNL     1      -0.754  12.251  22.775  0.00  0.00    +0.000 A 
ATOM      4  C   UNL     1      -0.102  11.205  22.152  0.00  0.00    +0.000 A 
ATOM      5  C   UNL     1      -0.504  10.788  20.867  0.00  0.00    +0.000 A 
ATOM      6  C   UNL     1      -1.603  11.455  20.280  0.00  0.00    +0.000 A 
ENDROOT
BRANCH   5   7
ATOM      7  C   UNL     1       0.301   9.763  20.162  0.00  0.00    +0.000 A 
ATOM      8  C   UNL     1       0.706   8.624  20.868  0.00  0.00    +0.000 A 
ATOM      9  C   UNL     1       1.618   7.728  20.327  0.00  0.00    +0.000 A 
ATOM     10  C   UNL     1       2.097   7.877  19.025  0.00  0.00    +0.000 A 
ATOM     11  C   UNL     1       1.663   8.978  18.290  0.00  0.00    +0.000 A 
ATOM     12  F   UNL     1       2.119   9.216  17.052  0.00  0.00    +0.000 F 
ATOM     13  C   UNL     1       0.764   9.899  18.841  0.00  0.00    +0.000 A 
BRANCH  10  14
ATOM     14  C   UNL     1       3.170   6.990  18.508  0.00  0.00    +0.000 C 
ATOM     15  O   UNL     1       4.243   7.509  18.201  0.00  0.00    +0.000 OA
ATOM     16  N   UNL     1       2.991   5.608  18.484  0.00  0.00    +0.000 N 
ATOM     17  C   UNL     1       4.171   4.745  18.381  0.00  0.00    +0.000 C 
ATOM     18  C   UNL     1       4.169   3.671  19.499  0.00  0.00    +0.000 C 
ATOM     19  N   UNL     1       2.897   2.910  19.648  0.00  0.00    +0.000 NA
ATOM     20  C   UNL     1       1.779   3.872  19.740  0.00  0.00    +0.000 C 
ATOM     21  C   UNL     1       1.728   4.863  18.556  0.00  0.00    +0.000 C 
BRANCH  19  22
ATOM     22  C   UNL     1       2.739   1.940  18.552  0.00  0.00    +0.000 C 
ATOM     23  C   UNL     1       3.963   1.053  18.346  0.00  0.00    +0.000 C 
ENDBRANCH  19  22
ENDBRANCH  10  14
ENDBRANCH   5   7
BRANCH   1  25
ATOM     24  C   UNL     1      -4.366  13.414  21.872  0.00  0.00    +0.000 C 
ATOM     25  C   UNL     1      -3.597  13.007  20.622  0.00  0.00    +0.000 C 
ENDBRANCH   1  25
BRANCH   6  26
ATOM     26  C   UNL     1      -2.019  11.187  18.928  0.00  0.00    +0.000 C 
ATOM     27  C   UNL     1      -2.363  10.937  17.800  0.00  0.00    +0.000 C 
BRANCH  27  28
ATOM     28  C   UNL     1      -2.779  10.631  16.467  0.00  0.00    +0.000 A 
ATOM     29  C   UNL     1      -2.188   9.603  15.734  0.00  0.00    +0.000 A 
ATOM     30  C   UNL     1      -2.627   9.358  14.431  0.00  0.00    +0.000 A 
ATOM     31  C   UNL     1      -3.631  10.148  13.894  0.00  0.00    +0.000 A 
ATOM     32  N   UNL     1      -4.105   9.920  12.604  0.00  0.00    +0.000 N 
ATOM     33  N   UNL     1      -4.226  11.134  14.583  0.00  0.00    +0.000 NA
ATOM     34  C   UNL     1      -3.789  11.355  15.852  0.00  0.00    +0.000 A 
ATOM     35  H   UNL     1      -3.356   9.907  11.922  0.00  0.00    +0.000 HD
ATOM     36  H   UNL     1      -4.790  10.646  12.409  0.00  0.00    +0.000 HD
ENDBRANCH  27  28
ENDBRANCH   6  26
TORSDOF 6
ENDMDL
MODEL 4
REMARK VINA RESULT:      -7.7      3.028      4.164
REMARK  Name = 
REMARK  8 active torsions:
REMARK  status: ('A' for Active; 'I' for Inactive)
REMARK    1  A    between atoms: C_1  and  C_2
REMARK    2  A    between atoms: C_2  and  C_3
REMARK    3  A    between atoms: C_7  and  C_8
REMARK    4  A    between atoms: C_11  and  C_12
REMARK    5  A    between atoms: N_17  and  C_18
REMARK    6  A    between atoms: C_18  and  C_19
REMARK    7  A    between atoms: C_25  and  C_26
REMARK    8  A    between atoms: C_27  and  C_28
REMARK                            x       y       z     vdW  Elec       q    Type
REMARK                         _______ _______ _______ _____ _____    ______ ____
ROOT
ATOM      1  C   UNL     1       5.497   4.660  16.682  0.00  0.00    +0.000 A 
ATOM      2  N   UNL     1       4.689   3.624  16.331  0.00  0.00    +0.000 NA
ATOM      3  C   UNL     1       3.401   3.691  16.694  0.00  0.00    +0.000 A 
ATOM      4  C   UNL     1       2.877   4.732  17.434  0.00  0.00    +0.000 A 
ATOM      5  C   UNL     1       3.685   5.838  17.768  0.00  0.00    +0.000 A 
ATOM      6  C   UNL     1       5.034   5.809  17.346  0.00  0.00    +0.000 A 
ENDROOT
BRANCH   5   7
ATOM      7  C   UNL     1       3.063   7.004  18.437  0.00  0.00    +0.000 A 
ATOM      8  C   UNL     1       2.578   6.851  19.741  0.00  0.00    +0.000 A 
ATOM      9  C   UNL     1       1.815   7.841  20.346  0.00  0.00    +0.000 A 
ATOM     10  C   UNL     1       1.579   9.063  19.715  0.00  0.00    +0.000 A 
ATOM     11  C   UNL     1       2.099   9.251  18.437  0.00  0.00    +0.000 A 
ATOM     12  F   UNL     1       1.871  10.378  17.747  0.00  0.00    +0.000 F 
ATOM     13  C   UNL     1       2.847   8.245  17.811  0.00  0.00    +0.000 A 
BRANCH  10  14
ATOM     14  C   UNL     1       0.653  10.057  20.316  0.00  0.00    +0.000 C 
ATOM     15  O   UNL     1       1.034  10.663  21.316  0.00  0.00    +0.000 OA
ATOM     16  N   UNL     1      -0.555  10.361  19.690  0.00  0.00    +0.000 N 
ATOM     17  C   UNL     1      -1.239  11.608  20.043  0.00  0.00    +0.000 C 
ATOM     18  C   UNL     1      -1.581  12.429  18.774  0.00  0.00    +0.000 C 
ATOM     19  N   UNL     1      -2.268  11.671  17.691  0.00  0.00    +0.000 NA
ATOM     20  C   UNL     1      -1.500  10.438  17.418  0.00  0.00    +0.000 C 
ATOM     21  C   UNL     1      -1.267   9.572  18.676  0.00  0.00    +0.000 C 
BRANCH  19  22
ATOM     22  C   UNL     1      -3.672  11.411  18.047  0.00  0.00    +0.000 C 
ATOM     23  C   UNL     1      -4.616  11.432  16.847  0.00  0.00    +0.000 C 
ENDBRANCH  19  22
ENDBRANCH  10  14
ENDBRANCH   5   7
BRANCH   1  25
ATOM     24  C   UNL     1       7.277   4.670  14.977  0.00  0.00    +0.000 C 
ATOM     25  C   UNL     1       6.965   4.411  16.444  0.00  0.00    +0.000 C 
ENDBRANCH   1  25
BRANCH   6  26
ATOM     26  C   UNL     1       5.911   6.936  17.532  0.00  0.00    +0.000 C 
ATOM     27  C   UNL     1       6.660   7.864  17.704  0.00  0.00    +0.000 C 
BRANCH  27  28
ATOM     28  C   UNL     1       7.558   8.959  17.906  0.00  0.00    +0.000 A 
ATOM     29  C   UNL     1       8.683   8.841  18.720  0.00  0.00    +0.000 A 
ATOM     30  C   UNL     1       9.518   9.948  18.890  0.00  0.00    +0.000 A 
ATOM     31  C   UNL     1       9.203  11.139  18.254  0.00  0.00    +0.000 A 
ATOM     32  N   UNL     1      10.023  12.257  18.387  0.00  0.00    +0.000 N 
ATOM     33  N   UNL     1       8.134  11.274  17.454  0.00  0.00    +0.000 NA
ATOM     34  C   UNL     1       7.336  10.184  17.296  0.00  0.00    +0.000 A 
ATOM     35  H   UNL     1      10.193  12.487  19.359  0.00  0.00    +0.000 HD
ATOM     36  H   UNL     1       9.569  13.017  17.885  0.00  0.00    +0.000 HD
ENDBRANCH  27  28
ENDBRANCH   6  26
TORSDOF 6
ENDMDL
MODEL 5
REMARK VINA RESULT:      -7.7      3.625      9.204
REMARK  Name = 
REMARK  8 active torsions:
REMARK  status: ('A' for Active; 'I' for Inactive)
REMARK    1  A    between atoms: C_1  and  C_2
REMARK    2  A    between atoms: C_2  and  C_3
REMARK    3  A    between atoms: C_7  and  C_8
REMARK    4  A    between atoms: C_11  and  C_12
REMARK    5  A    between atoms: N_17  and  C_18
REMARK    6  A    between atoms: C_18  and  C_19
REMARK    7  A    between atoms: C_25  and  C_26
REMARK    8  A    between atoms: C_27  and  C_28
REMARK                            x       y       z     vdW  Elec       q    Type
REMARK                         _______ _______ _______ _____ _____    ______ ____
ROOT
ATOM      1  C   UNL     1      -0.796  13.980  22.767  0.00  0.00    +0.000 A 
ATOM      2  N   UNL     1      -1.835  13.649  23.580  0.00  0.00    +0.000 NA
ATOM      3  C   UNL     1      -2.293  12.390  23.520  0.00  0.00    +0.000 A 
ATOM      4  C   UNL     1      -1.788  11.443  22.651  0.00  0.00    +0.000 A 
ATOM      5  C   UNL     1      -0.682  11.752  21.834  0.00  0.00    +0.000 A 
ATOM      6  C   UNL     1      -0.152  13.060  21.924  0.00  0.00    +0.000 A 
ENDROOT
BRANCH   5   7
ATOM      7  C   UNL     1      -0.071  10.677  21.018  0.00  0.00    +0.000 A 
ATOM      8  C   UNL     1       0.821   9.791  21.633  0.00  0.00    +0.000 A 
ATOM      9  C   UNL     1       1.572   8.892  20.887  0.00  0.00    +0.000 A 
ATOM     10  C   UNL     1       1.400   8.772  19.508  0.00  0.00    +0.000 A 
ATOM     11  C   UNL     1       0.478   9.612  18.888  0.00  0.00    +0.000 A 
ATOM     12  F   UNL     1       0.296   9.590  17.559  0.00  0.00    +0.000 F 
ATOM     13  C   UNL     1      -0.262  10.539  19.631  0.00  0.00    +0.000 A 
BRANCH  10  14
ATOM     14  C   UNL     1       2.301   7.904  18.707  0.00  0.00    +0.000 C 
ATOM     15  O   UNL     1       3.051   8.449  17.899  0.00  0.00    +0.000 OA
ATOM     16  N   UNL     1       2.361   6.533  18.954  0.00  0.00    +0.000 N 
ATOM     17  C   UNL     1       3.523   5.780  18.474  0.00  0.00    +0.000 C 
ATOM     18  C   UNL     1       4.157   4.951  19.620  0.00  0.00    +0.000 C 
ATOM     19  N   UNL     1       3.204   4.119  20.407  0.00  0.00    +0.000 NA
ATOM     20  C   UNL     1       2.077   4.973  20.837  0.00  0.00    +0.000 C 
ATOM     21  C   UNL     1       1.382   5.703  19.667  0.00  0.00    +0.000 C 
BRANCH  19  22
ATOM     22  C   UNL     1       2.776   2.943  19.632  0.00  0.00    +0.000 C 
ATOM     23  C   UNL     1       3.938   2.072  19.161  0.00  0.00    +0.000 C 
ENDBRANCH  19  22
ENDBRANCH  10  14
ENDBRANCH   5   7
BRANCH   1  25
ATOM     24  C   UNL     1      -1.599  16.166  21.959  0.00  0.00    +0.000 C 
ATOM     25  C   UNL     1      -0.490  15.456  22.723  0.00  0.00    +0.000 C 
ENDBRANCH   1  25
BRANCH   6  26
ATOM     26  C   UNL     1       1.046  13.441  21.223  0.00  0.00    +0.000 C 
ATOM     27  C   UNL     1       2.041  13.786  20.635  0.00  0.00    +0.000 C 
BRANCH  27  28
ATOM     28  C   UNL     1       3.222  14.205  19.946  0.00  0.00    +0.000 A 
ATOM     29  C   UNL     1       3.320  14.139  18.558  0.00  0.00    +0.000 A 
ATOM     30  C   UNL     1       4.504  14.550  17.939  0.00  0.00    +0.000 A 
ATOM     31  C   UNL     1       5.555  15.003  18.721  0.00  0.00    +0.000 A 
ATOM     32  N   UNL     1       6.743  15.437  18.138  0.00  0.00    +0.000 N 
ATOM     33  N   UNL     1       5.480  15.089  20.058  0.00  0.00    +0.000 NA
ATOM     34  C   UNL     1       4.319  14.690  20.642  0.00  0.00    +0.000 A 
ATOM     35  H   UNL     1       7.131  14.744  17.509  0.00  0.00    +0.000 HD
ATOM     36  H   UNL     1       7.378  15.667  18.898  0.00  0.00    +0.000 HD
ENDBRANCH  27  28
ENDBRANCH   6  26
TORSDOF 6
ENDMDL
MODEL 6
REMARK VINA RESULT:      -7.7      7.705     10.388
REMARK  Name = 
REMARK  8 active torsions:
REMARK  status: ('A' for Active; 'I' for Inactive)
REMARK    1  A    between atoms: C_1  and  C_2
REMARK    2  A    between atoms: C_2  and  C_3
REMARK    3  A    between atoms: C_7  and  C_8
REMARK    4  A    between atoms: C_11  and  C_12
REMARK    5  A    between atoms: N_17  and  C_18
REMARK    6  A    between atoms: C_18  and  C_19
REMARK    7  A    between atoms: C_25  and  C_26
REMARK    8  A    between atoms: C_27  and  C_28
REMARK                            x       y       z     vdW  Elec       q    Type
REMARK                         _______ _______ _______ _____ _____    ______ ____
ROOT
ATOM      1  C   UNL     1      10.914  13.871  19.274  0.00  0.00    +0.000 A 
ATOM      2  N   UNL     1      11.681  14.393  18.280  0.00  0.00    +0.000 NA
ATOM      3  C   UNL     1      11.092  15.230  17.415  0.00  0.00    +0.000 A 
ATOM      4  C   UNL     1       9.749  15.548  17.467  0.00  0.00    +0.000 A 
ATOM      5  C   UNL     1       8.947  15.056  18.516  0.00  0.00    +0.000 A 
ATOM      6  C   UNL     1       9.565  14.213  19.468  0.00  0.00    +0.000 A 
ENDROOT
BRANCH   5   7
ATOM      7  C   UNL     1       7.546  15.526  18.629  0.00  0.00    +0.000 A 
ATOM      8  C   UNL     1       7.218  16.418  19.658  0.00  0.00    +0.000 A 
ATOM      9  C   UNL     1       5.897  16.740  19.936  0.00  0.00    +0.000 A 
ATOM     10  C   UNL     1       4.851  16.263  19.146  0.00  0.00    +0.000 A 
ATOM     11  C   UNL     1       5.166  15.415  18.086  0.00  0.00    +0.000 A 
ATOM     12  F   UNL     1       4.211  14.875  17.315  0.00  0.00    +0.000 F 
ATOM     13  C   UNL     1       6.495  15.065  17.818  0.00  0.00    +0.000 A 
BRANCH  10  14
ATOM     14  C   UNL     1       3.438  16.507  19.534  0.00  0.00    +0.000 C 
ATOM     15  O   UNL     1       3.004  17.652  19.423  0.00  0.00    +0.000 OA
ATOM     16  N   UNL     1       2.616  15.442  19.901  0.00  0.00    +0.000 N 
ATOM     17  C   UNL     1       1.163  15.629  19.866  0.00  0.00    +0.000 C 
ATOM     18  C   UNL     1       0.481  14.504  19.047  0.00  0.00    +0.000 C 
ATOM     19  N   UNL     1       0.885  13.117  19.412  0.00  0.00    +0.000 NA
ATOM     20  C   UNL     1       2.361  13.042  19.419  0.00  0.00    +0.000 C 
ATOM     21  C   UNL     1       3.021  14.098  20.332  0.00  0.00    +0.000 C 
BRANCH  19  22
ATOM     22  C   UNL     1       0.278  12.717  20.692  0.00  0.00    +0.000 C 
ATOM     23  C   UNL     1      -1.180  12.285  20.563  0.00  0.00    +0.000 C 
ENDBRANCH  19  22
ENDBRANCH  10  14
ENDBRANCH   5   7
BRANCH   1  25
ATOM     24  C   UNL     1      11.615  11.509  19.209  0.00  0.00    +0.000 C 
ATOM     25  C   UNL     1      11.581  12.770  20.061  0.00  0.00    +0.000 C 
ENDBRANCH   1  25
BRANCH   6  26
ATOM     26  C   UNL     1       8.867  13.754  20.641  0.00  0.00    +0.000 C 
ATOM     27  C   UNL     1       8.259  13.371  21.609  0.00  0.00    +0.000 C 
BRANCH  27  28
ATOM     28  C   UNL     1       7.533  12.910  22.751  0.00  0.00    +0.000 A 
ATOM     29  C   UNL     1       8.044  11.926  23.595  0.00  0.00    +0.000 A 
ATOM     30  C   UNL     1       7.283  11.506  24.689  0.00  0.00    +0.000 A 
ATOM     31  C   UNL     1       6.035  12.070  24.903  0.00  0.00    +0.000 A 
ATOM     32  N   UNL     1       5.258  11.688  25.994  0.00  0.00    +0.000 N 
ATOM     33  N   UNL     1       5.527  13.029  24.115  0.00  0.00    +0.000 NA
ATOM     34  C   UNL     1       6.284  13.429  23.057  0.00  0.00    +0.000 A 
ATOM     35  H   UNL     1       5.129  10.684  26.033  0.00  0.00    +0.000 HD
ATOM     36  H   UNL     1       4.375  12.186  25.916  0.00  0.00    +0.000 HD
ENDBRANCH  27  28
ENDBRANCH   6  26
TORSDOF 6
ENDMDL
MODEL 7
REMARK VINA RESULT:      -7.6      8.597     10.514
REMARK  Name = 
REMARK  8 active torsions:
REMARK  status: ('A' for Active; 'I' for Inactive)
REMARK    1  A    between atoms: C_1  and  C_2
REMARK    2  A    between atoms: C_2  and  C_3
REMARK    3  A    between atoms: C_7  and  C_8
REMARK    4  A    between atoms: C_11  and  C_12
REMARK    5  A    between atoms: N_17  and  C_18
REMARK    6  A    between atoms: C_18  and  C_19
REMARK    7  A    between atoms: C_25  and  C_26
REMARK    8  A    between atoms: C_27  and  C_28
REMARK                            x       y       z     vdW  Elec       q    Type
REMARK                         _______ _______ _______ _____ _____    ______ ____
ROOT
ATOM      1  C   UNL     1      10.727  13.867  19.312  0.00  0.00    +0.000 A 
ATOM      2  N   UNL     1      11.470  14.402  18.306  0.00  0.00    +0.000 NA
ATOM      3  C   UNL     1      10.841  15.188  17.421  0.00  0.00    +0.000 A 
ATOM      4  C   UNL     1       9.484  15.440  17.464  0.00  0.00    +0.000 A 
ATOM      5  C   UNL     1       8.705  14.934  18.524  0.00  0.00    +0.000 A 
ATOM      6  C   UNL     1       9.363  14.146  19.497  0.00  0.00    +0.000 A 
ENDROOT
BRANCH   5   7
ATOM      7  C   UNL     1       7.283  15.336  18.625  0.00  0.00    +0.000 A 
ATOM      8  C   UNL     1       6.324  14.591  17.929  0.00  0.00    +0.000 A 
ATOM      9  C   UNL     1       5.010  15.029  17.824  0.00  0.00    +0.000 A 
ATOM     10  C   UNL     1       4.573  16.178  18.483  0.00  0.00    +0.000 A 
ATOM     11  C   UNL     1       5.505  16.903  19.222  0.00  0.00    +0.000 A 
ATOM     12  F   UNL     1       5.171  18.046  19.841  0.00  0.00    +0.000 F 
ATOM     13  C   UNL     1       6.837  16.480  19.310  0.00  0.00    +0.000 A 
BRANCH  10  14
ATOM     14  C   UNL     1       3.204  16.706  18.255  0.00  0.00    +0.000 C 
ATOM     15  O   UNL     1       3.009  17.372  17.238  0.00  0.00    +0.000 OA
ATOM     16  N   UNL     1       2.162  16.358  19.113  0.00  0.00    +0.000 N 
ATOM     17  C   UNL     1       0.781  16.526  18.652  0.00  0.00    +0.000 C 
ATOM     18  C   UNL     1      -0.027  15.216  18.838  0.00  0.00    +0.000 C 
ATOM     19  N   UNL     1       0.068  14.596  20.188  0.00  0.00    +0.000 NA
ATOM     20  C   UNL     1       1.496  14.476  20.553  0.00  0.00    +0.000 C 
ATOM     21  C   UNL     1       2.261  15.815  20.474  0.00  0.00    +0.000 C 
BRANCH  19  22
ATOM     22  C   UNL     1      -0.718  15.360  21.170  0.00  0.00    +0.000 C 
ATOM     23  C   UNL     1      -0.728  14.731  22.561  0.00  0.00    +0.000 C 
ENDBRANCH  19  22
ENDBRANCH  10  14
ENDBRANCH   5   7
BRANCH   1  25
ATOM     24  C   UNL     1      12.097  11.822  19.177  0.00  0.00    +0.000 C 
ATOM     25  C   UNL     1      11.447  12.819  20.125  0.00  0.00    +0.000 C 
ENDBRANCH   1  25
BRANCH   6  26
ATOM     26  C   UNL     1       8.686  13.680  20.679  0.00  0.00    +0.000 C 
ATOM     27  C   UNL     1       8.143  13.286  21.681  0.00  0.00    +0.000 C 
BRANCH  27  28
ATOM     28  C   UNL     1       7.506  12.826  22.875  0.00  0.00    +0.000 A 
ATOM     29  C   UNL     1       6.486  13.552  23.486  0.00  0.00    +0.000 A 
ATOM     30  C   UNL     1       5.909  13.059  24.659  0.00  0.00    +0.000 A 
ATOM     31  C   UNL     1       6.371  11.866  25.193  0.00  0.00    +0.000 A 
ATOM     32  N   UNL     1       5.806  11.337  26.351  0.00  0.00    +0.000 N 
ATOM     33  N   UNL     1       7.341  11.141  24.616  0.00  0.00    +0.000 NA
ATOM     34  C   UNL     1       7.888  11.634  23.472  0.00  0.00    +0.000 A 
ATOM     35  H   UNL     1       5.801  12.007  27.110  0.00  0.00    +0.000 HD
ATOM     36  H   UNL     1       6.335  10.499  26.580  0.00  0.00    +0.000 HD
ENDBRANCH  27  28
ENDBRANCH   6  26
TORSDOF 6
ENDMDL
MODEL 8
REMARK VINA RESULT:      -7.3      8.376     10.554
REMARK  Name = 
REMARK  8 active torsions:
REMARK  status: ('A' for Active; 'I' for Inactive)
REMARK    1  A    between atoms: C_1  and  C_2
REMARK    2  A    between atoms: C_2  and  C_3
REMARK    3  A    between atoms: C_7  and  C_8
REMARK    4  A    between atoms: C_11  and  C_12
REMARK    5  A    between atoms: N_17  and  C_18
REMARK    6  A    between atoms: C_18  and  C_19
REMARK    7  A    between atoms: C_25  and  C_26
REMARK    8  A    between atoms: C_27  and  C_28
REMARK                            x       y       z     vdW  Elec       q    Type
REMARK                         _______ _______ _______ _____ _____    ______ ____
ROOT
ATOM      1  C   UNL     1      -4.355  11.117  18.001  0.00  0.00    +0.000 A 
ATOM      2  N   UNL     1      -5.600  10.839  17.528  0.00  0.00    +0.000 NA
ATOM      3  C   UNL     1      -6.645  11.340  18.202  0.00  0.00    +0.000 A 
ATOM      4  C   UNL     1      -6.512  12.080  19.361  0.00  0.00    +0.000 A 
ATOM      5  C   UNL     1      -5.231  12.418  19.841  0.00  0.00    +0.000 A 
ATOM      6  C   UNL     1      -4.117  11.943  19.112  0.00  0.00    +0.000 A 
ENDROOT
BRANCH   5   7
ATOM      7  C   UNL     1      -5.119  13.330  21.002  0.00  0.00    +0.000 A 
ATOM      8  C   UNL     1      -5.280  14.705  20.794  0.00  0.00    +0.000 A 
ATOM      9  C   UNL     1      -4.995  15.623  21.796  0.00  0.00    +0.000 A 
ATOM     10  C   UNL     1      -4.625  15.209  23.076  0.00  0.00    +0.000 A 
ATOM     11  C   UNL     1      -4.509  13.842  23.314  0.00  0.00    +0.000 A 
ATOM     12  F   UNL     1      -4.108  13.370  24.503  0.00  0.00    +0.000 F 
ATOM     13  C   UNL     1      -4.770  12.912  22.299  0.00  0.00    +0.000 A 
BRANCH  10  14
ATOM     14  C   UNL     1      -4.194  16.200  24.096  0.00  0.00    +0.000 C 
ATOM     15  O   UNL     1      -5.044  16.618  24.882  0.00  0.00    +0.000 OA
ATOM     16  N   UNL     1      -2.849  16.546  24.216  0.00  0.00    +0.000 N 
ATOM     17  C   UNL     1      -2.391  17.172  25.460  0.00  0.00    +0.000 C 
ATOM     18  C   UNL     1      -1.165  16.419  26.037  0.00  0.00    +0.000 C 
ATOM     19  N   UNL     1      -0.062  16.162  25.069  0.00  0.00    +0.000 NA
ATOM     20  C   UNL     1      -0.634  15.536  23.858  0.00  0.00    +0.000 C 
ATOM     21  C   UNL     1      -1.779  16.358  23.229  0.00  0.00    +0.000 C 
BRANCH  19  22
ATOM     22  C   UNL     1       0.681  17.400  24.785  0.00  0.00    +0.000 C 
ATOM     23  C   UNL     1       1.799  17.215  23.761  0.00  0.00    +0.000 C 
ENDBRANCH  19  22
ENDBRANCH  10  14
ENDBRANCH   5   7
BRANCH   1  25
ATOM     24  C   UNL     1      -3.072  10.855  15.911  0.00  0.00    +0.000 C 
ATOM     25  C   UNL     1      -3.250  10.337  17.332  0.00  0.00    +0.000 C 
ENDBRANCH   1  25
BRANCH   6  26
ATOM     26  C   UNL     1      -2.771  12.328  19.448  0.00  0.00    +0.000 C 
ATOM     27  C   UNL     1      -1.642  12.664  19.706  0.00  0.00    +0.000 C 
BRANCH  27  28
ATOM     28  C   UNL     1      -0.307  13.074  20.010  0.00  0.00    +0.000 A 
ATOM     29  C   UNL     1       0.321  14.101  19.306  0.00  0.00    +0.000 A 
ATOM     30  C   UNL     1       1.632  14.450  19.639  0.00  0.00    +0.000 A 
ATOM     31  C   UNL     1       2.281  13.762  20.652  0.00  0.00    +0.000 A 
ATOM     32  N   UNL     1       3.582  14.096  21.022  0.00  0.00    +0.000 N 
ATOM     33  N   UNL     1       1.694  12.781  21.354  0.00  0.00    +0.000 NA
ATOM     34  C   UNL     1       0.416  12.457  21.019  0.00  0.00    +0.000 A 
ATOM     35  H   UNL     1       4.211  14.098  20.229  0.00  0.00    +0.000 HD
ATOM     36  H   UNL     1       3.865  13.430  21.737  0.00  0.00    +0.000 HD
ENDBRANCH  27  28
ENDBRANCH   6  26
TORSDOF 6
ENDMDL
MODEL 9
REMARK VINA RESULT:      -7.2      2.715     10.463
REMARK  Name = 
REMARK  8 active torsions:
REMARK  status: ('A' for Active; 'I' for Inactive)
REMARK    1  A    between atoms: C_1  and  C_2
REMARK    2  A    between atoms: C_2  and  C_3
REMARK    3  A    between atoms: C_7  and  C_8
REMARK    4  A    between atoms: C_11  and  C_12
REMARK    5  A    between atoms: N_17  and  C_18
REMARK    6  A    between atoms: C_18  and  C_19
REMARK    7  A    between atoms: C_25  and  C_26
REMARK    8  A    between atoms: C_27  and  C_28
REMARK                            x       y       z     vdW  Elec       q    Type
REMARK                         _______ _______ _______ _____ _____    ______ ____
ROOT
ATOM      1  C   UNL     1       0.510  14.882  18.855  0.00  0.00    +0.000 A 
ATOM      2  N   UNL     1       1.744  15.409  18.630  0.00  0.00    +0.000 NA
ATOM      3  C   UNL     1       2.794  14.577  18.691  0.00  0.00    +0.000 A 
ATOM      4  C   UNL     1       2.680  13.239  19.009  0.00  0.00    +0.000 A 
ATOM      5  C   UNL     1       1.408  12.663  19.200  0.00  0.00    +0.000 A 
ATOM      6  C   UNL     1       0.285  13.515  19.086  0.00  0.00    +0.000 A 
ENDROOT
BRANCH   5   7
ATOM      7  C   UNL     1       1.306  11.199  19.398  0.00  0.00    +0.000 A 
ATOM      8  C   UNL     1       1.296  10.697  20.705  0.00  0.00    +0.000 A 
ATOM      9  C   UNL     1       1.399   9.335  20.954  0.00  0.00    +0.000 A 
ATOM     10  C   UNL     1       1.424   8.407  19.913  0.00  0.00    +0.000 A 
ATOM     11  C   UNL     1       1.383   8.888  18.607  0.00  0.00    +0.000 A 
ATOM     12  F   UNL     1       1.456   8.060  17.554  0.00  0.00    +0.000 F 
ATOM     13  C   UNL     1       1.306  10.262  18.350  0.00  0.00    +0.000 A 
BRANCH  10  14
ATOM     14  C   UNL     1       1.669   6.968  20.189  0.00  0.00    +0.000 C 
ATOM     15  O   UNL     1       0.855   6.374  20.894  0.00  0.00    +0.000 OA
ATOM     16  N   UNL     1       2.728   6.303  19.572  0.00  0.00    +0.000 N 
ATOM     17  C   UNL     1       2.704   4.839  19.514  0.00  0.00    +0.000 C 
ATOM     18  C   UNL     1       2.921   4.340  18.063  0.00  0.00    +0.000 C 
ATOM     19  N   UNL     1       4.087   4.935  17.352  0.00  0.00    +0.000 NA
ATOM     20  C   UNL     1       4.013   6.406  17.475  0.00  0.00    +0.000 C 
ATOM     21  C   UNL     1       3.913   6.893  18.937  0.00  0.00    +0.000 C 
BRANCH  19  22
ATOM     22  C   UNL     1       5.349   4.374  17.861  0.00  0.00    +0.000 C 
ATOM     23  C   UNL     1       6.526   4.571  16.909  0.00  0.00    +0.000 C 
ENDBRANCH  19  22
ENDBRANCH  10  14
ENDBRANCH   5   7
BRANCH   1  25
ATOM     24  C   UNL     1      -0.017  17.283  18.672  0.00  0.00    +0.000 C 
ATOM     25  C   UNL     1      -0.586  15.908  18.996  0.00  0.00    +0.000 C 
ENDBRANCH   1  25
BRANCH   6  26
ATOM     26  C   UNL     1      -1.061  13.006  19.146  0.00  0.00    +0.000 C 
ATOM     27  C   UNL     1      -2.193  12.593  19.173  0.00  0.00    +0.000 C 
BRANCH  27  28
ATOM     28  C   UNL     1      -3.535  12.101  19.194  0.00  0.00    +0.000 A 
ATOM     29  C   UNL     1      -4.015  11.244  18.205  0.00  0.00    +0.000 A 
ATOM     30  C   UNL     1      -5.339  10.804  18.271  0.00  0.00    +0.000 A 
ATOM     31  C   UNL     1      -6.147  11.237  19.310  0.00  0.00    +0.000 A 
ATOM     32  N   UNL     1      -7.467  10.805  19.417  0.00  0.00    +0.000 N 
ATOM     33  N   UNL     1      -5.705  12.050  20.282  0.00  0.00    +0.000 NA
ATOM     34  C   UNL     1      -4.412  12.464  20.205  0.00  0.00    +0.000 A 
ATOM     35  H   UNL     1      -7.987  10.966  18.563  0.00  0.00    +0.000 HD
ATOM     36  H   UNL     1      -7.873  11.290  20.213  0.00  0.00    +0.000 HD
ENDBRANCH  27  28
ENDBRANCH   6  26
TORSDOF 6
ENDMDL
