MODEL 1
REMARK VINA RESULT:      -7.6      0.000      0.000
REMARK  Name = 
REMARK  8 active torsions:
REMARK  status: ('A' for Active; 'I' for Inactive)
REMARK    1  A    between atoms: C_1  and  C_2
REMARK    2  A    between atoms: N_10  and  C_11
REMARK    3  A    between atoms: C_11  and  C_12
REMARK    4  A    between atoms: C_11  and  C_17
REMARK    5  A    between atoms: C_12  and  C_13
REMARK    6  A    between atoms: C_13  and  C_14
REMARK    7  A    between atoms: C_13  and  C_15
REMARK    8  A    between atoms: C_13  and  C_16
REMARK                            x       y       z     vdW  Elec       q    Type
REMARK                         _______ _______ _______ _____ _____    ______ ____
ROOT
ATOM      1  C   UNL     1       7.448   5.573  19.857  0.00  0.00    +0.000 C 
ATOM      2  C   UNL     1       7.362   4.974  18.507  0.00  0.00    +0.000 A 
ATOM      3  N   UNL     1       8.478   4.579  17.875  0.00  0.00    +0.000 NA
ATOM      4  O   UNL     1       8.060   4.144  16.625  0.00  0.00    +0.000 OA
ATOM      5  C   UNL     1       6.707   4.279  16.515  0.00  0.00    +0.000 A 
ATOM      6  N   UNL     1       6.013   3.979  15.411  0.00  0.00    +0.000 NA
ATOM      7  C   UNL     1       4.711   4.224  15.579  0.00  0.00    +0.000 A 
ATOM      8  N   UNL     1       4.090   4.671  16.697  0.00  0.00    +0.000 NA
ATOM      9  C   UNL     1       4.824   4.941  17.802  0.00  0.00    +0.000 A 
ATOM     10  N   UNL     1       4.221   5.358  18.969  0.00  0.00    +0.000 N 
ATOM     11  C   UNL     1       6.212   4.769  17.707  0.00  0.00    +0.000 A 
ATOM     12  H   UNL     1       4.772   5.345  19.813  0.00  0.00    +0.000 HD
ENDROOT
BRANCH  10  13
ATOM     13  C   UNL     1       2.775   5.415  19.122  0.00  0.00    +0.000 C 
BRANCH  13  14
ATOM     14  C   UNL     1       2.326   6.871  19.216  0.00  0.00    +0.000 A 
ATOM     15  C   UNL     1       1.773   7.435  20.376  0.00  0.00    +0.000 A 
ATOM     16  C   UNL     1       1.313   8.753  20.367  0.00  0.00    +0.000 A 
ATOM     17  C   UNL     1       1.412   9.470  19.187  0.00  0.00    +0.000 A 
ATOM     18  N   UNL     1       1.934   8.970  18.048  0.00  0.00    +0.000 NA
ATOM     19  C   UNL     1       2.382   7.690  18.090  0.00  0.00    +0.000 A 
ENDBRANCH  13  14
BRANCH  13  20
ATOM     20  C   UNL     1       2.333   4.699  20.430  0.00  0.00    +0.000 C 
BRANCH  20  21
ATOM     21  C   UNL     1       1.872   3.209  20.387  0.00  0.00    +0.000 C 
ATOM     22  C   UNL     1       0.709   2.986  19.405  0.00  0.00    +0.000 C 
ATOM     23  C   UNL     1       3.078   2.367  19.902  0.00  0.00    +0.000 C 
ATOM     24  C   UNL     1       1.456   2.695  21.773  0.00  0.00    +0.000 C 
ENDBRANCH  20  21
ENDBRANCH  13  20
ENDBRANCH  10  13
TORSDOF 4
ENDMDL
MODEL 2
REMARK VINA RESULT:      -7.6      0.582      1.003
REMARK  Name = 
REMARK  8 active torsions:
REMARK  status: ('A' for Active; 'I' for Inactive)
REMARK    1  A    between atoms: C_1  and  C_2
REMARK    2  A    between atoms: N_10  and  C_11
REMARK    3  A    between atoms: C_11  and  C_12
REMARK    4  A    between atoms: C_11  and  C_17
REMARK    5  A    between atoms: C_12  and  C_13
REMARK    6  A    between atoms: C_13  and  C_14
REMARK    7  A    between atoms: C_13  and  C_15
REMARK    8  A    between atoms: C_13  and  C_16
REMARK                            x       y       z     vdW  Elec       q    Type
REMARK                         _______ _______ _______ _____ _____    ______ ____
ROOT
ATOM      1  C   UNL     1       7.400   5.675  19.818  0.00  0.00    +0.000 C 
ATOM      2  C   UNL     1       7.346   5.023  18.492  0.00  0.00    +0.000 A 
ATOM      3  N   UNL     1       8.478   4.625  17.891  0.00  0.00    +0.000 NA
ATOM      4  O   UNL     1       8.088   4.134  16.654  0.00  0.00    +0.000 OA
ATOM      5  C   UNL     1       6.734   4.238  16.519  0.00  0.00    +0.000 A 
ATOM      6  N   UNL     1       6.063   3.882  15.418  0.00  0.00    +0.000 NA
ATOM      7  C   UNL     1       4.754   4.109  15.558  0.00  0.00    +0.000 A 
ATOM      8  N   UNL     1       4.108   4.587  16.648  0.00  0.00    +0.000 NA
ATOM      9  C   UNL     1       4.820   4.913  17.752  0.00  0.00    +0.000 A 
ATOM     10  N   UNL     1       4.191   5.365  18.893  0.00  0.00    +0.000 N 
ATOM     11  C   UNL     1       6.212   4.765  17.684  0.00  0.00    +0.000 A 
ATOM     12  H   UNL     1       4.730   5.394  19.745  0.00  0.00    +0.000 HD
ENDROOT
BRANCH  10  13
ATOM     13  C   UNL     1       2.743   5.400  19.023  0.00  0.00    +0.000 C 
BRANCH  13  14
ATOM     14  C   UNL     1       2.265   6.850  19.053  0.00  0.00    +0.000 A 
ATOM     15  C   UNL     1       2.368   7.719  17.957  0.00  0.00    +0.000 A 
ATOM     16  C   UNL     1       1.980   9.054  18.079  0.00  0.00    +0.000 A 
ATOM     17  C   UNL     1       1.506   9.486  19.306  0.00  0.00    +0.000 A 
ATOM     18  N   UNL     1       1.391   8.688  20.387  0.00  0.00    +0.000 NA
ATOM     19  C   UNL     1       1.766   7.392  20.235  0.00  0.00    +0.000 A 
ENDBRANCH  13  14
BRANCH  13  20
ATOM     20  C   UNL     1       2.294   4.726  20.351  0.00  0.00    +0.000 C 
BRANCH  20  21
ATOM     21  C   UNL     1       1.897   3.218  20.367  0.00  0.00    +0.000 C 
ATOM     22  C   UNL     1       0.783   2.897  19.355  0.00  0.00    +0.000 C 
ATOM     23  C   UNL     1       3.154   2.406  19.970  0.00  0.00    +0.000 C 
ATOM     24  C   UNL     1       1.448   2.755  21.761  0.00  0.00    +0.000 C 
ENDBRANCH  20  21
ENDBRANCH  13  20
ENDBRANCH  10  13
TORSDOF 4
ENDMDL
MODEL 3
REMARK VINA RESULT:      -7.3      1.286      1.308
REMARK  Name = 
REMARK  8 active torsions:
REMARK  status: ('A' for Active; 'I' for Inactive)
REMARK    1  A    between atoms: C_1  and  C_2
REMARK    2  A    between atoms: N_10  and  C_11
REMARK    3  A    between atoms: C_11  and  C_12
REMARK    4  A    between atoms: C_11  and  C_17
REMARK    5  A    between atoms: C_12  and  C_13
REMARK    6  A    between atoms: C_13  and  C_14
REMARK    7  A    between atoms: C_13  and  C_15
REMARK    8  A    between atoms: C_13  and  C_16
REMARK                            x       y       z     vdW  Elec       q    Type
REMARK                         _______ _______ _______ _____ _____    ______ ____
ROOT
ATOM      1  C   UNL     1       6.753   8.002  17.669  0.00  0.00    +0.000 C 
ATOM      2  C   UNL     1       6.790   6.700  16.969  0.00  0.00    +0.000 A 
ATOM      3  N   UNL     1       7.858   6.364  16.229  0.00  0.00    +0.000 NA
ATOM      4  O   UNL     1       7.542   5.138  15.659  0.00  0.00    +0.000 OA
ATOM      5  C   UNL     1       6.297   4.748  16.058  0.00  0.00    +0.000 A 
ATOM      6  N   UNL     1       5.697   3.625  15.645  0.00  0.00    +0.000 NA
ATOM      7  C   UNL     1       4.480   3.505  16.182  0.00  0.00    +0.000 A 
ATOM      8  N   UNL     1       3.878   4.335  17.067  0.00  0.00    +0.000 NA
ATOM      9  C   UNL     1       4.528   5.449  17.479  0.00  0.00    +0.000 A 
ATOM     10  N   UNL     1       3.962   6.296  18.409  0.00  0.00    +0.000 N 
ATOM     11  C   UNL     1       5.792   5.695  16.928  0.00  0.00    +0.000 A 
ATOM     12  H   UNL     1       4.558   6.987  18.838  0.00  0.00    +0.000 HD
ENDROOT
BRANCH  10  13
ATOM     13  C   UNL     1       2.712   5.987  19.086  0.00  0.00    +0.000 C 
BRANCH  13  14
ATOM     14  C   UNL     1       2.067   7.276  19.587  0.00  0.00    +0.000 A 
ATOM     15  C   UNL     1       1.505   7.412  20.865  0.00  0.00    +0.000 A 
ATOM     16  C   UNL     1       0.864   8.597  21.229  0.00  0.00    +0.000 A 
ATOM     17  C   UNL     1       0.795   9.615  20.294  0.00  0.00    +0.000 A 
ATOM     18  N   UNL     1       1.319   9.530  19.055  0.00  0.00    +0.000 NA
ATOM     19  C   UNL     1       1.945   8.370  18.732  0.00  0.00    +0.000 A 
ENDBRANCH  13  14
BRANCH  13  20
ATOM     20  C   UNL     1       2.967   5.075  20.319  0.00  0.00    +0.000 C 
BRANCH  20  21
ATOM     21  C   UNL     1       2.367   3.636  20.365  0.00  0.00    +0.000 C 
ATOM     22  C   UNL     1       1.209   3.455  19.368  0.00  0.00    +0.000 C 
ATOM     23  C   UNL     1       3.497   2.652  19.972  0.00  0.00    +0.000 C 
ATOM     24  C   UNL     1       1.874   3.262  21.771  0.00  0.00    +0.000 C 
ENDBRANCH  20  21
ENDBRANCH  13  20
ENDBRANCH  10  13
TORSDOF 4
ENDMDL
MODEL 4
REMARK VINA RESULT:      -7.2      1.435      4.326
REMARK  Name = 
REMARK  8 active torsions:
REMARK  status: ('A' for Active; 'I' for Inactive)
REMARK    1  A    between atoms: C_1  and  C_2
REMARK    2  A    between atoms: N_10  and  C_11
REMARK    3  A    between atoms: C_11  and  C_12
REMARK    4  A    between atoms: C_11  and  C_17
REMARK    5  A    between atoms: C_12  and  C_13
REMARK    6  A    between atoms: C_13  and  C_14
REMARK    7  A    between atoms: C_13  and  C_15
REMARK    8  A    between atoms: C_13  and  C_16
REMARK                            x       y       z     vdW  Elec       q    Type
REMARK                         _______ _______ _______ _____ _____    ______ ____
ROOT
ATOM      1  C   UNL     1       5.198   5.213  14.486  0.00  0.00    +0.000 C 
ATOM      2  C   UNL     1       6.237   5.091  15.532  0.00  0.00    +0.000 A 
ATOM      3  N   UNL     1       7.500   4.790  15.193  0.00  0.00    +0.000 NA
ATOM      4  O   UNL     1       8.188   4.677  16.393  0.00  0.00    +0.000 OA
ATOM      5  C   UNL     1       7.341   4.911  17.437  0.00  0.00    +0.000 A 
ATOM      6  N   UNL     1       7.702   4.838  18.723  0.00  0.00    +0.000 NA
ATOM      7  C   UNL     1       6.669   5.099  19.529  0.00  0.00    +0.000 A 
ATOM      8  N   UNL     1       5.408   5.443  19.174  0.00  0.00    +0.000 NA
ATOM      9  C   UNL     1       5.088   5.530  17.861  0.00  0.00    +0.000 A 
ATOM     10  N   UNL     1       3.826   5.918  17.464  0.00  0.00    +0.000 N 
ATOM     11  C   UNL     1       6.092   5.219  16.935  0.00  0.00    +0.000 A 
ATOM     12  H   UNL     1       3.695   6.169  16.496  0.00  0.00    +0.000 HD
ENDROOT
BRANCH  10  13
ATOM     13  C   UNL     1       2.816   6.369  18.408  0.00  0.00    +0.000 C 
BRANCH  13  14
ATOM     14  C   UNL     1       2.013   5.172  18.913  0.00  0.00    +0.000 A 
ATOM     15  C   UNL     1       1.748   4.938  20.271  0.00  0.00    +0.000 A 
ATOM     16  C   UNL     1       1.073   3.782  20.666  0.00  0.00    +0.000 A 
ATOM     17  C   UNL     1       0.689   2.884  19.686  0.00  0.00    +0.000 A 
ATOM     18  N   UNL     1       0.924   3.065  18.371  0.00  0.00    +0.000 NA
ATOM     19  C   UNL     1       1.573   4.202  18.015  0.00  0.00    +0.000 A 
ENDBRANCH  13  14
BRANCH  13  20
ATOM     20  C   UNL     1       1.822   7.349  17.722  0.00  0.00    +0.000 C 
BRANCH  20  21
ATOM     21  C   UNL     1       1.582   8.768  18.325  0.00  0.00    +0.000 C 
ATOM     22  C   UNL     1       0.222   9.355  17.911  0.00  0.00    +0.000 C 
ATOM     23  C   UNL     1       1.594   8.622  19.867  0.00  0.00    +0.000 C 
ATOM     24  C   UNL     1       2.690   9.756  17.929  0.00  0.00    +0.000 C 
ENDBRANCH  20  21
ENDBRANCH  13  20
ENDBRANCH  10  13
TORSDOF 4
ENDMDL
MODEL 5
REMARK VINA RESULT:      -7.1      1.426      1.877
REMARK  Name = 
REMARK  8 active torsions:
REMARK  status: ('A' for Active; 'I' for Inactive)
REMARK    1  A    between atoms: C_1  and  C_2
REMARK    2  A    between atoms: N_10  and  C_11
REMARK    3  A    between atoms: C_11  and  C_12
REMARK    4  A    between atoms: C_11  and  C_17
REMARK    5  A    between atoms: C_12  and  C_13
REMARK    6  A    between atoms: C_13  and  C_14
REMARK    7  A    between atoms: C_13  and  C_15
REMARK    8  A    between atoms: C_13  and  C_16
REMARK                            x       y       z     vdW  Elec       q    Type
REMARK                         _______ _______ _______ _____ _____    ______ ____
ROOT
ATOM      1  C   UNL     1       6.756   8.016  17.644  0.00  0.00    +0.000 C 
ATOM      2  C   UNL     1       6.802   6.717  16.939  0.00  0.00    +0.000 A 
ATOM      3  N   UNL     1       7.880   6.383  16.213  0.00  0.00    +0.000 NA
ATOM      4  O   UNL     1       7.571   5.161  15.632  0.00  0.00    +0.000 OA
ATOM      5  C   UNL     1       6.320   4.771  16.011  0.00  0.00    +0.000 A 
ATOM      6  N   UNL     1       5.725   3.651  15.584  0.00  0.00    +0.000 NA
ATOM      7  C   UNL     1       4.500   3.529  16.101  0.00  0.00    +0.000 A 
ATOM      8  N   UNL     1       3.886   4.356  16.981  0.00  0.00    +0.000 NA
ATOM      9  C   UNL     1       4.531   5.467  17.409  0.00  0.00    +0.000 A 
ATOM     10  N   UNL     1       3.953   6.310  18.335  0.00  0.00    +0.000 N 
ATOM     11  C   UNL     1       5.804   5.714  16.877  0.00  0.00    +0.000 A 
ATOM     12  H   UNL     1       4.543   6.998  18.775  0.00  0.00    +0.000 HD
ENDROOT
BRANCH  10  13
ATOM     13  C   UNL     1       2.692   5.999  18.991  0.00  0.00    +0.000 C 
BRANCH  13  14
ATOM     14  C   UNL     1       2.003   7.292  19.418  0.00  0.00    +0.000 A 
ATOM     15  C   UNL     1       1.841   8.397  18.568  0.00  0.00    +0.000 A 
ATOM     16  C   UNL     1       1.269   9.576  19.048  0.00  0.00    +0.000 A 
ATOM     17  C   UNL     1       0.881   9.618  20.376  0.00  0.00    +0.000 A 
ATOM     18  N   UNL     1       1.018   8.583  21.230  0.00  0.00    +0.000 NA
ATOM     19  C   UNL     1       1.568   7.447  20.732  0.00  0.00    +0.000 A 
ENDBRANCH  13  14
BRANCH  13  20
ATOM     20  C   UNL     1       2.935   5.148  20.269  0.00  0.00    +0.000 C 
BRANCH  20  21
ATOM     21  C   UNL     1       2.467   3.660  20.319  0.00  0.00    +0.000 C 
ATOM     22  C   UNL     1       3.602   2.680  19.976  0.00  0.00    +0.000 C 
ATOM     23  C   UNL     1       2.003   3.371  21.768  0.00  0.00    +0.000 C 
ATOM     24  C   UNL     1       1.284   3.397  19.376  0.00  0.00    +0.000 C 
ENDBRANCH  20  21
ENDBRANCH  13  20
ENDBRANCH  10  13
TORSDOF 4
ENDMDL
MODEL 6
REMARK VINA RESULT:      -7.0      0.905      2.334
REMARK  Name = 
REMARK  8 active torsions:
REMARK  status: ('A' for Active; 'I' for Inactive)
REMARK    1  A    between atoms: C_1  and  C_2
REMARK    2  A    between atoms: N_10  and  C_11
REMARK    3  A    between atoms: C_11  and  C_12
REMARK    4  A    between atoms: C_11  and  C_17
REMARK    5  A    between atoms: C_12  and  C_13
REMARK    6  A    between atoms: C_13  and  C_14
REMARK    7  A    between atoms: C_13  and  C_15
REMARK    8  A    between atoms: C_13  and  C_16
REMARK                            x       y       z     vdW  Elec       q    Type
REMARK                         _______ _______ _______ _____ _____    ______ ____
ROOT
ATOM      1  C   UNL     1       5.145   4.297  14.536  0.00  0.00    +0.000 C 
ATOM      2  C   UNL     1       6.108   4.579  15.622  0.00  0.00    +0.000 A 
ATOM      3  N   UNL     1       7.425   4.598  15.365  0.00  0.00    +0.000 NA
ATOM      4  O   UNL     1       8.038   4.810  16.592  0.00  0.00    +0.000 OA
ATOM      5  C   UNL     1       7.094   4.918  17.570  0.00  0.00    +0.000 A 
ATOM      6  N   UNL     1       7.377   5.088  18.867  0.00  0.00    +0.000 NA
ATOM      7  C   UNL     1       6.261   5.143  19.600  0.00  0.00    +0.000 A 
ATOM      8  N   UNL     1       4.980   5.090  19.164  0.00  0.00    +0.000 NA
ATOM      9  C   UNL     1       4.734   4.942  17.841  0.00  0.00    +0.000 A 
ATOM     10  N   UNL     1       3.443   4.924  17.357  0.00  0.00    +0.000 N 
ATOM     11  C   UNL     1       5.843   4.816  16.993  0.00  0.00    +0.000 A 
ATOM     12  H   UNL     1       3.313   5.022  16.362  0.00  0.00    +0.000 HD
ENDROOT
BRANCH  10  13
ATOM     13  C   UNL     1       2.290   5.183  18.205  0.00  0.00    +0.000 C 
BRANCH  13  14
ATOM     14  C   UNL     1       2.191   6.679  18.493  0.00  0.00    +0.000 A 
ATOM     15  C   UNL     1       1.899   7.202  19.762  0.00  0.00    +0.000 A 
ATOM     16  C   UNL     1       1.748   8.579  19.937  0.00  0.00    +0.000 A 
ATOM     17  C   UNL     1       1.886   9.396  18.828  0.00  0.00    +0.000 A 
ATOM     18  N   UNL     1       2.164   8.939  17.591  0.00  0.00    +0.000 NA
ATOM     19  C   UNL     1       2.315   7.597  17.453  0.00  0.00    +0.000 A 
ENDBRANCH  13  14
BRANCH  13  20
ATOM     20  C   UNL     1       2.434   4.447  19.567  0.00  0.00    +0.000 C 
BRANCH  20  21
ATOM     21  C   UNL     1       1.956   2.970  19.712  0.00  0.00    +0.000 C 
ATOM     22  C   UNL     1       3.070   1.961  19.384  0.00  0.00    +0.000 C 
ATOM     23  C   UNL     1       1.539   2.762  21.189  0.00  0.00    +0.000 C 
ATOM     24  C   UNL     1       0.739   2.669  18.825  0.00  0.00    +0.000 C 
ENDBRANCH  20  21
ENDBRANCH  13  20
ENDBRANCH  10  13
TORSDOF 4
ENDMDL
MODEL 7
REMARK VINA RESULT:      -6.8      1.357      4.380
REMARK  Name = 
REMARK  8 active torsions:
REMARK  status: ('A' for Active; 'I' for Inactive)
REMARK    1  A    between atoms: C_1  and  C_2
REMARK    2  A    between atoms: N_10  and  C_11
REMARK    3  A    between atoms: C_11  and  C_12
REMARK    4  A    between atoms: C_11  and  C_17
REMARK    5  A    between atoms: C_12  and  C_13
REMARK    6  A    between atoms: C_13  and  C_14
REMARK    7  A    between atoms: C_13  and  C_15
REMARK    8  A    between atoms: C_13  and  C_16
REMARK                            x       y       z     vdW  Elec       q    Type
REMARK                         _______ _______ _______ _____ _____    ______ ____
ROOT
ATOM      1  C   UNL     1       5.027   4.973  14.624  0.00  0.00    +0.000 C 
ATOM      2  C   UNL     1       6.148   4.940  15.589  0.00  0.00    +0.000 A 
ATOM      3  N   UNL     1       7.390   4.657  15.167  0.00  0.00    +0.000 NA
ATOM      4  O   UNL     1       8.173   4.632  16.312  0.00  0.00    +0.000 OA
ATOM      5  C   UNL     1       7.403   4.897  17.406  0.00  0.00    +0.000 A 
ATOM      6  N   UNL     1       7.865   4.905  18.662  0.00  0.00    +0.000 NA
ATOM      7  C   UNL     1       6.889   5.178  19.533  0.00  0.00    +0.000 A 
ATOM      8  N   UNL     1       5.594   5.465  19.262  0.00  0.00    +0.000 NA
ATOM      9  C   UNL     1       5.169   5.471  17.976  0.00  0.00    +0.000 A 
ATOM     10  N   UNL     1       3.867   5.799  17.661  0.00  0.00    +0.000 N 
ATOM     11  C   UNL     1       6.108   5.140  16.990  0.00  0.00    +0.000 A 
ATOM     12  H   UNL     1       3.653   5.993  16.695  0.00  0.00    +0.000 HD
ENDROOT
BRANCH  10  13
ATOM     13  C   UNL     1       2.919   6.270  18.658  0.00  0.00    +0.000 C 
BRANCH  13  14
ATOM     14  C   UNL     1       2.243   5.077  19.329  0.00  0.00    +0.000 A 
ATOM     15  C   UNL     1       1.480   4.130  18.630  0.00  0.00    +0.000 A 
ATOM     16  C   UNL     1       0.827   3.106  19.319  0.00  0.00    +0.000 A 
ATOM     17  C   UNL     1       0.950   3.066  20.697  0.00  0.00    +0.000 A 
ATOM     18  N   UNL     1       1.670   3.955  21.410  0.00  0.00    +0.000 NA
ATOM     19  C   UNL     1       2.302   4.933  20.713  0.00  0.00    +0.000 A 
ENDBRANCH  13  14
BRANCH  13  20
ATOM     20  C   UNL     1       1.808   7.132  17.994  0.00  0.00    +0.000 C 
BRANCH  20  21
ATOM     21  C   UNL     1       1.608   8.617  18.427  0.00  0.00    +0.000 C 
ATOM     22  C   UNL     1       2.763   9.521  17.963  0.00  0.00    +0.000 C 
ATOM     23  C   UNL     1       0.305   9.121  17.757  0.00  0.00    +0.000 C 
ATOM     24  C   UNL     1       1.449   8.758  19.948  0.00  0.00    +0.000 C 
ENDBRANCH  20  21
ENDBRANCH  13  20
ENDBRANCH  10  13
TORSDOF 4
ENDMDL
MODEL 8
REMARK VINA RESULT:      -6.7      1.037      2.578
REMARK  Name = 
REMARK  8 active torsions:
REMARK  status: ('A' for Active; 'I' for Inactive)
REMARK    1  A    between atoms: C_1  and  C_2
REMARK    2  A    between atoms: N_10  and  C_11
REMARK    3  A    between atoms: C_11  and  C_12
REMARK    4  A    between atoms: C_11  and  C_17
REMARK    5  A    between atoms: C_12  and  C_13
REMARK    6  A    between atoms: C_13  and  C_14
REMARK    7  A    between atoms: C_13  and  C_15
REMARK    8  A    between atoms: C_13  and  C_16
REMARK                            x       y       z     vdW  Elec       q    Type
REMARK                         _______ _______ _______ _____ _____    ______ ____
ROOT
ATOM      1  C   UNL     1       5.020   4.116  14.641  0.00  0.00    +0.000 C 
ATOM      2  C   UNL     1       6.066   4.506  15.612  0.00  0.00    +0.000 A 
ATOM      3  N   UNL     1       7.347   4.596  15.222  0.00  0.00    +0.000 NA
ATOM      4  O   UNL     1       8.063   4.900  16.371  0.00  0.00    +0.000 OA
ATOM      5  C   UNL     1       7.215   4.992  17.436  0.00  0.00    +0.000 A 
ATOM      6  N   UNL     1       7.613   5.236  18.690  0.00  0.00    +0.000 NA
ATOM      7  C   UNL     1       6.575   5.254  19.530  0.00  0.00    +0.000 A 
ATOM      8  N   UNL     1       5.263   5.101  19.229  0.00  0.00    +0.000 NA
ATOM      9  C   UNL     1       4.898   4.879  17.944  0.00  0.00    +0.000 A 
ATOM     10  N   UNL     1       3.569   4.759  17.596  0.00  0.00    +0.000 N 
ATOM     11  C   UNL     1       5.923   4.786  16.994  0.00  0.00    +0.000 A 
ATOM     12  H   UNL     1       3.335   4.804  16.616  0.00  0.00    +0.000 HD
ENDROOT
BRANCH  10  13
ATOM     13  C   UNL     1       2.491   4.982  18.546  0.00  0.00    +0.000 C 
BRANCH  13  14
ATOM     14  C   UNL     1       2.225   6.480  18.678  0.00  0.00    +0.000 A 
ATOM     15  C   UNL     1       2.379   7.386  17.618  0.00  0.00    +0.000 A 
ATOM     16  C   UNL     1       2.191   8.753  17.830  0.00  0.00    +0.000 A 
ATOM     17  C   UNL     1       1.861   9.177  19.106  0.00  0.00    +0.000 A 
ATOM     18  N   UNL     1       1.704   8.343  20.154  0.00  0.00    +0.000 NA
ATOM     19  C   UNL     1       1.883   7.019  19.916  0.00  0.00    +0.000 A 
ENDBRANCH  13  14
BRANCH  13  20
ATOM     20  C   UNL     1       2.880   4.446  19.953  0.00  0.00    +0.000 C 
BRANCH  20  21
ATOM     21  C   UNL     1       2.622   2.951  20.319  0.00  0.00    +0.000 C 
ATOM     22  C   UNL     1       3.929   2.168  20.528  0.00  0.00    +0.000 C 
ATOM     23  C   UNL     1       1.833   2.933  21.651  0.00  0.00    +0.000 C 
ATOM     24  C   UNL     1       1.780   2.235  19.253  0.00  0.00    +0.000 C 
ENDBRANCH  20  21
ENDBRANCH  13  20
ENDBRANCH  10  13
TORSDOF 4
ENDMDL
MODEL 9
REMARK VINA RESULT:      -6.6      1.132      2.328
REMARK  Name = 
REMARK  8 active torsions:
REMARK  status: ('A' for Active; 'I' for Inactive)
REMARK    1  A    between atoms: C_1  and  C_2
REMARK    2  A    between atoms: N_10  and  C_11
REMARK    3  A    between atoms: C_11  and  C_12
REMARK    4  A    between atoms: C_11  and  C_17
REMARK    5  A    between atoms: C_12  and  C_13
REMARK    6  A    between atoms: C_13  and  C_14
REMARK    7  A    between atoms: C_13  and  C_15
REMARK    8  A    between atoms: C_13  and  C_16
REMARK                            x       y       z     vdW  Elec       q    Type
REMARK                         _______ _______ _______ _____ _____    ______ ____
ROOT
ATOM      1  C   UNL     1       4.926   4.387  14.336  0.00  0.00    +0.000 C 
ATOM      2  C   UNL     1       5.991   4.954  15.191  0.00  0.00    +0.000 A 
ATOM      3  N   UNL     1       7.193   5.240  14.668  0.00  0.00    +0.000 NA
ATOM      4  O   UNL     1       7.967   5.674  15.734  0.00  0.00    +0.000 OA
ATOM      5  C   UNL     1       7.231   5.648  16.882  0.00  0.00    +0.000 A 
ATOM      6  N   UNL     1       7.713   5.975  18.087  0.00  0.00    +0.000 NA
ATOM      7  C   UNL     1       6.778   5.842  19.032  0.00  0.00    +0.000 A 
ATOM      8  N   UNL     1       5.484   5.478  18.871  0.00  0.00    +0.000 NA
ATOM      9  C   UNL     1       5.027   5.178  17.632  0.00  0.00    +0.000 A 
ATOM     10  N   UNL     1       3.706   4.842  17.426  0.00  0.00    +0.000 N 
ATOM     11  C   UNL     1       5.950   5.232  16.579  0.00  0.00    +0.000 A 
ATOM     12  H   UNL     1       3.367   4.833  16.477  0.00  0.00    +0.000 HD
ENDROOT
BRANCH  10  13
ATOM     13  C   UNL     1       2.710   4.909  18.485  0.00  0.00    +0.000 C 
BRANCH  13  14
ATOM     14  C   UNL     1       2.366   6.367  18.775  0.00  0.00    +0.000 A 
ATOM     15  C   UNL     1       2.027   6.840  20.052  0.00  0.00    +0.000 A 
ATOM     16  C   UNL     1       1.649   8.172  20.231  0.00  0.00    +0.000 A 
ATOM     17  C   UNL     1       1.613   8.995  19.118  0.00  0.00    +0.000 A 
ATOM     18  N   UNL     1       1.929   8.584  17.873  0.00  0.00    +0.000 NA
ATOM     19  C   UNL     1       2.302   7.287  17.731  0.00  0.00    +0.000 A 
ENDBRANCH  13  14
BRANCH  13  20
ATOM     20  C   UNL     1       3.262   4.282  19.797  0.00  0.00    +0.000 C 
BRANCH  20  21
ATOM     21  C   UNL     1       2.966   2.789  20.135  0.00  0.00    +0.000 C 
ATOM     22  C   UNL     1       2.057   2.123  19.089  0.00  0.00    +0.000 C 
ATOM     23  C   UNL     1       4.322   2.040  20.140  0.00  0.00    +0.000 C 
ATOM     24  C   UNL     1       2.326   2.628  21.522  0.00  0.00    +0.000 C 
ENDBRANCH  20  21
ENDBRANCH  13  20
ENDBRANCH  10  13
TORSDOF 4
ENDMDL
