MODEL 1
REMARK VINA RESULT:      -6.6      0.000      0.000
REMARK  Name = 
REMARK  10 active torsions:
REMARK  status: ('A' for Active; 'I' for Inactive)
REMARK    1  A    between atoms: C_1  and  C_2
REMARK    2  A    between atoms: C_2  and  N_3
REMARK    3  A    between atoms: N_3  and  C_4
REMARK    4  A    between atoms: C_4  and  C_5
REMARK    5  A    between atoms: C_6  and  C_8
REMARK    6  A    between atoms: C_8  and  O_9
REMARK    7  A    between atoms: O_9  and  C_10
REMARK    8  A    between atoms: C_11  and  O_12
REMARK    9  A    between atoms: O_12  and  C_13
REMARK   10  A    between atoms: C_17  and  C_18
REMARK                            x       y       z     vdW  Elec       q    Type
REMARK                         _______ _______ _______ _____ _____    ______ ____
ROOT
ATOM      1  C   UNL     1       3.312   4.604  19.751  0.00  0.00    +0.000 A 
ATOM      2  C   UNL     1       2.249   5.443  20.153  0.00  0.00    +0.000 A 
ATOM      3  C   UNL     1       1.027   4.881  20.562  0.00  0.00    +0.000 A 
ATOM      4  C   UNL     1       0.833   3.507  20.589  0.00  0.00    +0.000 A 
ATOM      5  C   UNL     1       1.876   2.669  20.226  0.00  0.00    +0.000 A 
ATOM      6  C   UNL     1       3.116   3.202  19.821  0.00  0.00    +0.000 A 
ENDROOT
BRANCH   6   7
ATOM      7  C   UNL     1       4.203   2.209  19.615  0.00  0.00    +0.000 C 
ATOM      8  N   UNL     1       4.186   1.507  18.440  0.00  0.00    +0.000 N 
ATOM      9  O   UNL     1       5.070   2.000  20.456  0.00  0.00    +0.000 OA
ATOM     10  H   UNL     1       3.494   1.631  17.715  0.00  0.00    +0.000 HD
ATOM     11  H   UNL     1       4.908   0.812  18.299  0.00  0.00    +0.000 HD
ENDBRANCH   6   7
BRANCH   2  12
ATOM     12  O   UNL     1       2.195   6.812  20.216  0.00  0.00    +0.000 OA
ATOM     13  C   UNL     1       1.237   7.449  21.041  0.00  0.00    +0.000 C 
ENDBRANCH   2  12
BRANCH   1  14
ATOM     14  O   UNL     1       4.490   5.204  19.384  0.00  0.00    +0.000 OA
BRANCH  14  15
ATOM     15  C   UNL     1       4.491   5.888  18.135  0.00  0.00    +0.000 C 
BRANCH  15  17
ATOM     16  N   UNL     1       6.395   5.433  16.544  0.00  0.00    +0.000 N 
ATOM     17  C   UNL     1       5.126   5.062  17.006  0.00  0.00    +0.000 C 
ATOM     18  O   UNL     1       4.542   4.062  16.580  0.00  0.00    +0.000 OA
BRANCH  16  20
ATOM     19  C   UNL     1       7.048   4.835  14.228  0.00  0.00    +0.000 C 
ATOM     20  C   UNL     1       7.099   4.465  15.703  0.00  0.00    +0.000 C 
ENDBRANCH  16  20
BRANCH  16  21
ATOM     21  C   UNL     1       7.087   6.634  17.044  0.00  0.00    +0.000 C 
ATOM     22  C   UNL     1       7.871   6.501  18.341  0.00  0.00    +0.000 C 
ENDBRANCH  16  21
ENDBRANCH  15  17
ENDBRANCH  14  15
ENDBRANCH   1  14
TORSDOF 7
ENDMDL
MODEL 2
REMARK VINA RESULT:      -6.5      1.312      2.185
REMARK  Name = 
REMARK  10 active torsions:
REMARK  status: ('A' for Active; 'I' for Inactive)
REMARK    1  A    between atoms: C_1  and  C_2
REMARK    2  A    between atoms: C_2  and  N_3
REMARK    3  A    between atoms: N_3  and  C_4
REMARK    4  A    between atoms: C_4  and  C_5
REMARK    5  A    between atoms: C_6  and  C_8
REMARK    6  A    between atoms: C_8  and  O_9
REMARK    7  A    between atoms: O_9  and  C_10
REMARK    8  A    between atoms: C_11  and  O_12
REMARK    9  A    between atoms: O_12  and  C_13
REMARK   10  A    between atoms: C_17  and  C_18
REMARK                            x       y       z     vdW  Elec       q    Type
REMARK                         _______ _______ _______ _____ _____    ______ ____
ROOT
ATOM      1  C   UNL     1       3.345   4.092  19.981  0.00  0.00    +0.000 A 
ATOM      2  C   UNL     1       2.213   4.904  20.209  0.00  0.00    +0.000 A 
ATOM      3  C   UNL     1       0.925   4.341  20.170  0.00  0.00    +0.000 A 
ATOM      4  C   UNL     1       0.732   2.990  19.916  0.00  0.00    +0.000 A 
ATOM      5  C   UNL     1       1.835   2.174  19.719  0.00  0.00    +0.000 A 
ATOM      6  C   UNL     1       3.139   2.707  19.762  0.00  0.00    +0.000 A 
ENDROOT
BRANCH   6   7
ATOM      7  C   UNL     1       4.241   1.712  19.699  0.00  0.00    +0.000 C 
ATOM      8  N   UNL     1       4.243   0.857  18.630  0.00  0.00    +0.000 N 
ATOM      9  O   UNL     1       5.101   1.630  20.567  0.00  0.00    +0.000 OA
ATOM     10  H   UNL     1       3.556   0.873  17.888  0.00  0.00    +0.000 HD
ATOM     11  H   UNL     1       4.976   0.161  18.589  0.00  0.00    +0.000 HD
ENDBRANCH   6   7
BRANCH   2  12
ATOM     12  O   UNL     1       2.144   6.247  20.481  0.00  0.00    +0.000 OA
ATOM     13  C   UNL     1       2.293   7.193  19.438  0.00  0.00    +0.000 C 
ENDBRANCH   2  12
BRANCH   1  14
ATOM     14  O   UNL     1       4.579   4.689  20.053  0.00  0.00    +0.000 OA
BRANCH  14  15
ATOM     15  C   UNL     1       5.318   4.770  18.839  0.00  0.00    +0.000 C 
BRANCH  15  17
ATOM     16  N   UNL     1       7.078   6.334  17.935  0.00  0.00    +0.000 N 
ATOM     17  C   UNL     1       6.642   5.532  18.998  0.00  0.00    +0.000 C 
ATOM     18  O   UNL     1       7.252   5.477  20.068  0.00  0.00    +0.000 OA
BRANCH  16  20
ATOM     19  C   UNL     1       7.872   8.669  17.676  0.00  0.00    +0.000 C 
ATOM     20  C   UNL     1       8.158   7.278  18.222  0.00  0.00    +0.000 C 
ENDBRANCH  16  20
BRANCH  16  21
ATOM     21  C   UNL     1       6.354   6.392  16.653  0.00  0.00    +0.000 C 
ATOM     22  C   UNL     1       6.723   5.365  15.593  0.00  0.00    +0.000 C 
ENDBRANCH  16  21
ENDBRANCH  15  17
ENDBRANCH  14  15
ENDBRANCH   1  14
TORSDOF 7
ENDMDL
MODEL 3
REMARK VINA RESULT:      -6.4      1.616      1.933
REMARK  Name = 
REMARK  10 active torsions:
REMARK  status: ('A' for Active; 'I' for Inactive)
REMARK    1  A    between atoms: C_1  and  C_2
REMARK    2  A    between atoms: C_2  and  N_3
REMARK    3  A    between atoms: N_3  and  C_4
REMARK    4  A    between atoms: C_4  and  C_5
REMARK    5  A    between atoms: C_6  and  C_8
REMARK    6  A    between atoms: C_8  and  O_9
REMARK    7  A    between atoms: O_9  and  C_10
REMARK    8  A    between atoms: C_11  and  O_12
REMARK    9  A    between atoms: O_12  and  C_13
REMARK   10  A    between atoms: C_17  and  C_18
REMARK                            x       y       z     vdW  Elec       q    Type
REMARK                         _______ _______ _______ _____ _____    ______ ____
ROOT
ATOM      1  C   UNL     1       3.329   4.323  19.565  0.00  0.00    +0.000 A 
ATOM      2  C   UNL     1       2.367   5.248  20.028  0.00  0.00    +0.000 A 
ATOM      3  C   UNL     1       1.103   4.797  20.445  0.00  0.00    +0.000 A 
ATOM      4  C   UNL     1       0.769   3.450  20.421  0.00  0.00    +0.000 A 
ATOM      5  C   UNL     1       1.712   2.526  19.997  0.00  0.00    +0.000 A 
ATOM      6  C   UNL     1       2.991   2.947  19.582  0.00  0.00    +0.000 A 
ENDROOT
BRANCH   6   7
ATOM      7  C   UNL     1       3.966   1.858  19.308  0.00  0.00    +0.000 C 
ATOM      8  N   UNL     1       5.095   1.829  20.081  0.00  0.00    +0.000 N 
ATOM      9  O   UNL     1       3.793   1.031  18.420  0.00  0.00    +0.000 OA
ATOM     10  H   UNL     1       5.294   2.488  20.821  0.00  0.00    +0.000 HD
ATOM     11  H   UNL     1       5.776   1.106  19.887  0.00  0.00    +0.000 HD
ENDBRANCH   6   7
BRANCH   2  12
ATOM     12  O   UNL     1       2.457   6.612  20.148  0.00  0.00    +0.000 OA
ATOM     13  C   UNL     1       2.303   7.439  19.010  0.00  0.00    +0.000 C 
ENDBRANCH   2  12
BRANCH   1  14
ATOM     14  O   UNL     1       4.555   4.815  19.192  0.00  0.00    +0.000 OA
BRANCH  14  15
ATOM     15  C   UNL     1       4.825   4.854  17.795  0.00  0.00    +0.000 C 
BRANCH  15  17
ATOM     16  N   UNL     1       6.873   6.311  17.582  0.00  0.00    +0.000 N 
ATOM     17  C   UNL     1       5.498   6.162  17.355  0.00  0.00    +0.000 C 
ATOM     18  O   UNL     1       4.838   7.017  16.757  0.00  0.00    +0.000 OA
BRANCH  16  20
ATOM     19  C   UNL     1       7.897   8.556  17.824  0.00  0.00    +0.000 C 
ATOM     20  C   UNL     1       7.539   7.412  16.887  0.00  0.00    +0.000 C 
ENDBRANCH  16  20
BRANCH  16  21
ATOM     21  C   UNL     1       7.658   5.296  18.304  0.00  0.00    +0.000 C 
ATOM     22  C   UNL     1       7.980   5.568  19.766  0.00  0.00    +0.000 C 
ENDBRANCH  16  21
ENDBRANCH  15  17
ENDBRANCH  14  15
ENDBRANCH   1  14
TORSDOF 7
ENDMDL
MODEL 4
REMARK VINA RESULT:      -6.3      1.803      5.412
REMARK  Name = 
REMARK  10 active torsions:
REMARK  status: ('A' for Active; 'I' for Inactive)
REMARK    1  A    between atoms: C_1  and  C_2
REMARK    2  A    between atoms: C_2  and  N_3
REMARK    3  A    between atoms: N_3  and  C_4
REMARK    4  A    between atoms: C_4  and  C_5
REMARK    5  A    between atoms: C_6  and  C_8
REMARK    6  A    between atoms: C_8  and  O_9
REMARK    7  A    between atoms: O_9  and  C_10
REMARK    8  A    between atoms: C_11  and  O_12
REMARK    9  A    between atoms: O_12  and  C_13
REMARK   10  A    between atoms: C_17  and  C_18
REMARK                            x       y       z     vdW  Elec       q    Type
REMARK                         _______ _______ _______ _____ _____    ______ ____
ROOT
ATOM      1  C   UNL     1       5.214   4.889  17.361  0.00  0.00    +0.000 A 
ATOM      2  C   UNL     1       5.173   5.325  18.704  0.00  0.00    +0.000 A 
ATOM      3  C   UNL     1       6.370   5.552  19.406  0.00  0.00    +0.000 A 
ATOM      4  C   UNL     1       7.608   5.363  18.809  0.00  0.00    +0.000 A 
ATOM      5  C   UNL     1       7.665   4.963  17.482  0.00  0.00    +0.000 A 
ATOM      6  C   UNL     1       6.484   4.738  16.749  0.00  0.00    +0.000 A 
ENDROOT
BRANCH   6   7
ATOM      7  C   UNL     1       6.670   4.474  15.298  0.00  0.00    +0.000 C 
ATOM      8  N   UNL     1       7.405   5.388  14.592  0.00  0.00    +0.000 N 
ATOM      9  O   UNL     1       6.176   3.503  14.739  0.00  0.00    +0.000 OA
ATOM     10  H   UNL     1       7.830   6.211  14.998  0.00  0.00    +0.000 HD
ATOM     11  H   UNL     1       7.519   5.231  13.600  0.00  0.00    +0.000 HD
ENDBRANCH   6   7
BRANCH   2  12
ATOM     12  O   UNL     1       4.088   5.584  19.504  0.00  0.00    +0.000 OA
ATOM     13  C   UNL     1       3.224   6.664  19.203  0.00  0.00    +0.000 C 
ENDBRANCH   2  12
BRANCH   1  14
ATOM     14  O   UNL     1       4.016   4.706  16.716  0.00  0.00    +0.000 OA
BRANCH  14  15
ATOM     15  C   UNL     1       3.403   3.431  16.868  0.00  0.00    +0.000 C 
BRANCH  15  17
ATOM     16  N   UNL     1       2.020   2.677  18.839  0.00  0.00    +0.000 N 
ATOM     17  C   UNL     1       2.112   3.487  17.699  0.00  0.00    +0.000 C 
ATOM     18  O   UNL     1       1.222   4.284  17.390  0.00  0.00    +0.000 OA
BRANCH  16  20
ATOM     19  C   UNL     1       1.322   2.711  21.217  0.00  0.00    +0.000 C 
ATOM     20  C   UNL     1       0.932   2.973  19.770  0.00  0.00    +0.000 C 
ENDBRANCH  16  20
BRANCH  16  21
ATOM     21  C   UNL     1       3.078   1.719  19.202  0.00  0.00    +0.000 C 
ATOM     22  C   UNL     1       4.275   2.256  19.973  0.00  0.00    +0.000 C 
ENDBRANCH  16  21
ENDBRANCH  15  17
ENDBRANCH  14  15
ENDBRANCH   1  14
TORSDOF 7
ENDMDL
MODEL 5
REMARK VINA RESULT:      -6.3      1.673      2.541
REMARK  Name = 
REMARK  10 active torsions:
REMARK  status: ('A' for Active; 'I' for Inactive)
REMARK    1  A    between atoms: C_1  and  C_2
REMARK    2  A    between atoms: C_2  and  N_3
REMARK    3  A    between atoms: N_3  and  C_4
REMARK    4  A    between atoms: C_4  and  C_5
REMARK    5  A    between atoms: C_6  and  C_8
REMARK    6  A    between atoms: C_8  and  O_9
REMARK    7  A    between atoms: O_9  and  C_10
REMARK    8  A    between atoms: C_11  and  O_12
REMARK    9  A    between atoms: O_12  and  C_13
REMARK   10  A    between atoms: C_17  and  C_18
REMARK                            x       y       z     vdW  Elec       q    Type
REMARK                         _______ _______ _______ _____ _____    ______ ____
ROOT
ATOM      1  C   UNL     1       2.769   4.994  18.390  0.00  0.00    +0.000 A 
ATOM      2  C   UNL     1       2.750   6.386  18.628  0.00  0.00    +0.000 A 
ATOM      3  C   UNL     1       2.187   6.888  19.815  0.00  0.00    +0.000 A 
ATOM      4  C   UNL     1       1.647   6.044  20.776  0.00  0.00    +0.000 A 
ATOM      5  C   UNL     1       1.684   4.673  20.570  0.00  0.00    +0.000 A 
ATOM      6  C   UNL     1       2.251   4.139  19.396  0.00  0.00    +0.000 A 
ENDROOT
BRANCH   6   7
ATOM      7  C   UNL     1       2.381   2.659  19.363  0.00  0.00    +0.000 C 
ATOM      8  N   UNL     1       1.579   1.987  18.480  0.00  0.00    +0.000 N 
ATOM      9  O   UNL     1       3.148   2.051  20.099  0.00  0.00    +0.000 OA
ATOM     10  H   UNL     1       0.923   2.434  17.854  0.00  0.00    +0.000 HD
ATOM     11  H   UNL     1       1.643   0.977  18.465  0.00  0.00    +0.000 HD
ENDBRANCH   6   7
BRANCH   2  12
ATOM     12  O   UNL     1       3.218   7.410  17.846  0.00  0.00    +0.000 OA
ATOM     13  C   UNL     1       2.486   8.618  17.741  0.00  0.00    +0.000 C 
ENDBRANCH   2  12
BRANCH   1  14
ATOM     14  O   UNL     1       3.351   4.557  17.227  0.00  0.00    +0.000 OA
BRANCH  14  15
ATOM     15  C   UNL     1       4.500   3.729  17.365  0.00  0.00    +0.000 C 
BRANCH  15  17
ATOM     16  N   UNL     1       6.410   5.377  17.394  0.00  0.00    +0.000 N 
ATOM     17  C   UNL     1       5.655   4.429  18.098  0.00  0.00    +0.000 C 
ATOM     18  O   UNL     1       5.848   4.196  19.294  0.00  0.00    +0.000 OA
BRANCH  16  20
ATOM     19  C   UNL     1       7.567   7.567  17.496  0.00  0.00    +0.000 C 
ATOM     20  C   UNL     1       7.284   6.241  18.187  0.00  0.00    +0.000 C 
ENDBRANCH  16  20
BRANCH  16  21
ATOM     21  C   UNL     1       6.186   5.647  15.964  0.00  0.00    +0.000 C 
ATOM     22  C   UNL     1       6.979   4.823  14.962  0.00  0.00    +0.000 C 
ENDBRANCH  16  21
ENDBRANCH  15  17
ENDBRANCH  14  15
ENDBRANCH   1  14
TORSDOF 7
ENDMDL
MODEL 6
REMARK VINA RESULT:      -6.2      1.597      1.630
REMARK  Name = 
REMARK  10 active torsions:
REMARK  status: ('A' for Active; 'I' for Inactive)
REMARK    1  A    between atoms: C_1  and  C_2
REMARK    2  A    between atoms: C_2  and  N_3
REMARK    3  A    between atoms: N_3  and  C_4
REMARK    4  A    between atoms: C_4  and  C_5
REMARK    5  A    between atoms: C_6  and  C_8
REMARK    6  A    between atoms: C_8  and  O_9
REMARK    7  A    between atoms: O_9  and  C_10
REMARK    8  A    between atoms: C_11  and  O_12
REMARK    9  A    between atoms: O_12  and  C_13
REMARK   10  A    between atoms: C_17  and  C_18
REMARK                            x       y       z     vdW  Elec       q    Type
REMARK                         _______ _______ _______ _____ _____    ______ ____
ROOT
ATOM      1  C   UNL     1       2.699   5.281  18.659  0.00  0.00    +0.000 A 
ATOM      2  C   UNL     1       2.265   6.099  19.725  0.00  0.00    +0.000 A 
ATOM      3  C   UNL     1       1.813   5.513  20.921  0.00  0.00    +0.000 A 
ATOM      4  C   UNL     1       1.786   4.136  21.089  0.00  0.00    +0.000 A 
ATOM      5  C   UNL     1       2.236   3.320  20.062  0.00  0.00    +0.000 A 
ATOM      6  C   UNL     1       2.705   3.878  18.857  0.00  0.00    +0.000 A 
ENDROOT
BRANCH   6   7
ATOM      7  C   UNL     1       3.312   2.916  17.899  0.00  0.00    +0.000 C 
ATOM      8  N   UNL     1       3.303   3.270  16.577  0.00  0.00    +0.000 N 
ATOM      9  O   UNL     1       3.782   1.843  18.256  0.00  0.00    +0.000 OA
ATOM     10  H   UNL     1       2.924   4.138  16.224  0.00  0.00    +0.000 HD
ATOM     11  H   UNL     1       3.694   2.613  15.914  0.00  0.00    +0.000 HD
ENDBRANCH   6   7
BRANCH   2  12
ATOM     12  O   UNL     1       2.200   7.467  19.804  0.00  0.00    +0.000 OA
ATOM     13  C   UNL     1       1.453   8.086  20.836  0.00  0.00    +0.000 C 
ENDBRANCH   2  12
BRANCH   1  14
ATOM     14  O   UNL     1       3.152   5.906  17.524  0.00  0.00    +0.000 OA
BRANCH  14  15
ATOM     15  C   UNL     1       4.413   6.559  17.619  0.00  0.00    +0.000 C 
BRANCH  15  17
ATOM     16  N   UNL     1       6.345   5.412  16.472  0.00  0.00    +0.000 N 
ATOM     17  C   UNL     1       5.294   6.335  16.382  0.00  0.00    +0.000 C 
ATOM     18  O   UNL     1       5.022   6.914  15.326  0.00  0.00    +0.000 OA
BRANCH  16  20
ATOM     19  C   UNL     1       6.210   3.844  14.556  0.00  0.00    +0.000 C 
ATOM     20  C   UNL     1       6.962   4.991  15.215  0.00  0.00    +0.000 C 
ENDBRANCH  16  20
BRANCH  16  21
ATOM     21  C   UNL     1       6.675   4.729  17.735  0.00  0.00    +0.000 C 
ATOM     22  C   UNL     1       7.754   5.352  18.608  0.00  0.00    +0.000 C 
ENDBRANCH  16  21
ENDBRANCH  15  17
ENDBRANCH  14  15
ENDBRANCH   1  14
TORSDOF 7
ENDMDL
MODEL 7
REMARK VINA RESULT:      -6.2      2.211      3.670
REMARK  Name = 
REMARK  10 active torsions:
REMARK  status: ('A' for Active; 'I' for Inactive)
REMARK    1  A    between atoms: C_1  and  C_2
REMARK    2  A    between atoms: C_2  and  N_3
REMARK    3  A    between atoms: N_3  and  C_4
REMARK    4  A    between atoms: C_4  and  C_5
REMARK    5  A    between atoms: C_6  and  C_8
REMARK    6  A    between atoms: C_8  and  O_9
REMARK    7  A    between atoms: O_9  and  C_10
REMARK    8  A    between atoms: C_11  and  O_12
REMARK    9  A    between atoms: O_12  and  C_13
REMARK   10  A    between atoms: C_17  and  C_18
REMARK                            x       y       z     vdW  Elec       q    Type
REMARK                         _______ _______ _______ _____ _____    ______ ____
ROOT
ATOM      1  C   UNL     1       2.771   5.420  18.641  0.00  0.00    +0.000 A 
ATOM      2  C   UNL     1       2.750   4.009  18.589  0.00  0.00    +0.000 A 
ATOM      3  C   UNL     1       2.223   3.275  19.666  0.00  0.00    +0.000 A 
ATOM      4  C   UNL     1       1.710   3.904  20.792  0.00  0.00    +0.000 A 
ATOM      5  C   UNL     1       1.697   5.290  20.845  0.00  0.00    +0.000 A 
ATOM      6  C   UNL     1       2.208   6.053  19.777  0.00  0.00    +0.000 A 
ENDROOT
BRANCH   6   7
ATOM      7  C   UNL     1       1.991   7.521  19.877  0.00  0.00    +0.000 C 
ATOM      8  N   UNL     1       1.786   8.032  21.130  0.00  0.00    +0.000 N 
ATOM      9  O   UNL     1       1.970   8.249  18.893  0.00  0.00    +0.000 OA
ATOM     10  H   UNL     1       1.785   7.479  21.976  0.00  0.00    +0.000 HD
ATOM     11  H   UNL     1       1.614   9.026  21.207  0.00  0.00    +0.000 HD
ENDBRANCH   6   7
BRANCH   2  12
ATOM     12  O   UNL     1       3.187   3.166  17.599  0.00  0.00    +0.000 OA
ATOM     13  C   UNL     1       3.489   1.815  17.897  0.00  0.00    +0.000 C 
ENDBRANCH   2  12
BRANCH   1  14
ATOM     14  O   UNL     1       3.275   6.088  17.552  0.00  0.00    +0.000 OA
BRANCH  14  15
ATOM     15  C   UNL     1       4.655   6.432  17.602  0.00  0.00    +0.000 C 
BRANCH  15  17
ATOM     16  N   UNL     1       6.249   5.234  16.057  0.00  0.00    +0.000 N 
ATOM     17  C   UNL     1       5.351   6.294  16.240  0.00  0.00    +0.000 C 
ATOM     18  O   UNL     1       5.060   7.069  15.325  0.00  0.00    +0.000 OA
BRANCH  16  20
ATOM     19  C   UNL     1       5.824   3.833  14.056  0.00  0.00    +0.000 C 
ATOM     20  C   UNL     1       6.654   4.945  14.682  0.00  0.00    +0.000 C 
ENDBRANCH  16  20
BRANCH  16  21
ATOM     21  C   UNL     1       6.605   4.316  17.152  0.00  0.00    +0.000 C 
ATOM     22  C   UNL     1       7.843   4.648  17.972  0.00  0.00    +0.000 C 
ENDBRANCH  16  21
ENDBRANCH  15  17
ENDBRANCH  14  15
ENDBRANCH   1  14
TORSDOF 7
ENDMDL
MODEL 8
REMARK VINA RESULT:      -6.2      1.730      3.732
REMARK  Name = 
REMARK  10 active torsions:
REMARK  status: ('A' for Active; 'I' for Inactive)
REMARK    1  A    between atoms: C_1  and  C_2
REMARK    2  A    between atoms: C_2  and  N_3
REMARK    3  A    between atoms: N_3  and  C_4
REMARK    4  A    between atoms: C_4  and  C_5
REMARK    5  A    between atoms: C_6  and  C_8
REMARK    6  A    between atoms: C_8  and  O_9
REMARK    7  A    between atoms: O_9  and  C_10
REMARK    8  A    between atoms: C_11  and  O_12
REMARK    9  A    between atoms: O_12  and  C_13
REMARK   10  A    between atoms: C_17  and  C_18
REMARK                            x       y       z     vdW  Elec       q    Type
REMARK                         _______ _______ _______ _____ _____    ______ ____
ROOT
ATOM      1  C   UNL     1       2.736   4.469  18.528  0.00  0.00    +0.000 A 
ATOM      2  C   UNL     1       2.328   3.140  18.774  0.00  0.00    +0.000 A 
ATOM      3  C   UNL     1       1.544   2.843  19.903  0.00  0.00    +0.000 A 
ATOM      4  C   UNL     1       1.147   3.833  20.792  0.00  0.00    +0.000 A 
ATOM      5  C   UNL     1       1.515   5.147  20.548  0.00  0.00    +0.000 A 
ATOM      6  C   UNL     1       2.292   5.478  19.421  0.00  0.00    +0.000 A 
ENDROOT
BRANCH   6   7
ATOM      7  C   UNL     1       2.484   6.932  19.178  0.00  0.00    +0.000 C 
ATOM      8  N   UNL     1       3.173   7.285  18.049  0.00  0.00    +0.000 N 
ATOM      9  O   UNL     1       2.071   7.786  19.952  0.00  0.00    +0.000 OA
ATOM     10  H   UNL     1       3.543   6.625  17.379  0.00  0.00    +0.000 HD
ATOM     11  H   UNL     1       3.329   8.271  17.886  0.00  0.00    +0.000 HD
ENDBRANCH   6   7
BRANCH   2  12
ATOM     12  O   UNL     1       2.584   2.002  18.052  0.00  0.00    +0.000 OA
ATOM     13  C   UNL     1       3.606   1.113  18.463  0.00  0.00    +0.000 C 
ENDBRANCH   2  12
BRANCH   1  14
ATOM     14  O   UNL     1       3.480   4.706  17.400  0.00  0.00    +0.000 OA
BRANCH  14  15
ATOM     15  C   UNL     1       4.694   3.974  17.275  0.00  0.00    +0.000 C 
BRANCH  15  17
ATOM     16  N   UNL     1       6.662   5.551  17.327  0.00  0.00    +0.000 N 
ATOM     17  C   UNL     1       5.865   4.631  18.020  0.00  0.00    +0.000 C 
ATOM     18  O   UNL     1       6.038   4.389  19.218  0.00  0.00    +0.000 OA
BRANCH  16  20
ATOM     19  C   UNL     1       7.699   7.789  17.570  0.00  0.00    +0.000 C 
ATOM     20  C   UNL     1       7.559   6.382  18.129  0.00  0.00    +0.000 C 
ENDBRANCH  16  20
BRANCH  16  21
ATOM     21  C   UNL     1       6.463   5.831  15.894  0.00  0.00    +0.000 C 
ATOM     22  C   UNL     1       7.129   4.895  14.897  0.00  0.00    +0.000 C 
ENDBRANCH  16  21
ENDBRANCH  15  17
ENDBRANCH  14  15
ENDBRANCH   1  14
TORSDOF 7
ENDMDL
MODEL 9
REMARK VINA RESULT:      -6.1      0.988      1.058
REMARK  Name = 
REMARK  10 active torsions:
REMARK  status: ('A' for Active; 'I' for Inactive)
REMARK    1  A    between atoms: C_1  and  C_2
REMARK    2  A    between atoms: C_2  and  N_3
REMARK    3  A    between atoms: N_3  and  C_4
REMARK    4  A    between atoms: C_4  and  C_5
REMARK    5  A    between atoms: C_6  and  C_8
REMARK    6  A    between atoms: C_8  and  O_9
REMARK    7  A    between atoms: O_9  and  C_10
REMARK    8  A    between atoms: C_11  and  O_12
REMARK    9  A    between atoms: O_12  and  C_13
REMARK   10  A    between atoms: C_17  and  C_18
REMARK                            x       y       z     vdW  Elec       q    Type
REMARK                         _______ _______ _______ _____ _____    ______ ____
ROOT
ATOM      1  C   UNL     1       3.576   4.260  19.852  0.00  0.00    +0.000 A 
ATOM      2  C   UNL     1       2.519   5.182  20.016  0.00  0.00    +0.000 A 
ATOM      3  C   UNL     1       1.233   4.722  20.350  0.00  0.00    +0.000 A 
ATOM      4  C   UNL     1       0.969   3.372  20.532  0.00  0.00    +0.000 A 
ATOM      5  C   UNL     1       2.003   2.457  20.403  0.00  0.00    +0.000 A 
ATOM      6  C   UNL     1       3.305   2.888  20.079  0.00  0.00    +0.000 A 
ENDROOT
BRANCH   6   7
ATOM      7  C   UNL     1       4.357   1.839  20.130  0.00  0.00    +0.000 C 
ATOM      8  N   UNL     1       4.442   0.995  19.056  0.00  0.00    +0.000 N 
ATOM      9  O   UNL     1       5.107   1.708  21.090  0.00  0.00    +0.000 OA
ATOM     10  H   UNL     1       3.847   1.051  18.241  0.00  0.00    +0.000 HD
ATOM     11  H   UNL     1       5.140   0.263  19.090  0.00  0.00    +0.000 HD
ENDBRANCH   6   7
BRANCH   2  12
ATOM     12  O   UNL     1       2.527   6.548  19.896  0.00  0.00    +0.000 OA
ATOM     13  C   UNL     1       2.594   7.150  18.616  0.00  0.00    +0.000 C 
ENDBRANCH   2  12
BRANCH   1  14
ATOM     14  O   UNL     1       4.816   4.765  19.549  0.00  0.00    +0.000 OA
BRANCH  14  15
ATOM     15  C   UNL     1       5.549   4.083  18.537  0.00  0.00    +0.000 C 
BRANCH  15  17
ATOM     16  N   UNL     1       6.048   5.479  16.495  0.00  0.00    +0.000 N 
ATOM     17  C   UNL     1       5.193   4.562  17.121  0.00  0.00    +0.000 C 
ATOM     18  O   UNL     1       4.211   4.086  16.545  0.00  0.00    +0.000 OA
BRANCH  16  20
ATOM     19  C   UNL     1       6.659   4.679  14.230  0.00  0.00    +0.000 C 
ATOM     20  C   UNL     1       5.863   5.676  15.058  0.00  0.00    +0.000 C 
ENDBRANCH  16  20
BRANCH  16  21
ATOM     21  C   UNL     1       7.214   6.055  17.187  0.00  0.00    +0.000 C 
ATOM     22  C   UNL     1       7.281   7.570  17.305  0.00  0.00    +0.000 C 
ENDBRANCH  16  21
ENDBRANCH  15  17
ENDBRANCH  14  15
ENDBRANCH   1  14
TORSDOF 7
ENDMDL
