MODEL 1
REMARK VINA RESULT:      -7.1      0.000      0.000
REMARK  Name = 
REMARK  3 active torsions:
REMARK  status: ('A' for Active; 'I' for Inactive)
REMARK    1  A    between atoms: O_1  and  C_2
REMARK    2  A    between atoms: C_5  and  C_6
REMARK    3  A    between atoms: N_10  and  C_11
REMARK                            x       y       z     vdW  Elec       q    Type
REMARK                         _______ _______ _______ _____ _____    ______ ____
ROOT
ATOM      1  C   UNL     1       8.353   8.882  18.284  0.00  0.00    +0.000 A 
ATOM      2  N   UNL     1       8.587   7.733  18.883  0.00  0.00    +0.000 NA
ATOM      3  N   UNL     1       7.749   6.816  18.295  0.00  0.00    +0.000 NA
ATOM      4  C   UNL     1       7.068   7.453  17.367  0.00  0.00    +0.000 A 
ATOM      5  N   UNL     1       6.076   7.070  16.540  0.00  0.00    +0.000 N 
ATOM      6  O   UNL     1       7.421   8.776  17.285  0.00  0.00    +0.000 OA
ATOM      7  H   UNL     1       5.710   7.787  15.929  0.00  0.00    +0.000 HD
ENDROOT
BRANCH   1  11
ATOM      8  C   UNL     1      10.003  12.699  19.187  0.00  0.00    +0.000 A 
ATOM      9  C   UNL     1      10.207  11.631  20.051  0.00  0.00    +0.000 A 
ATOM     10  C   UNL     1       9.661  10.384  19.736  0.00  0.00    +0.000 A 
ATOM     11  C   UNL     1       8.916  10.196  18.560  0.00  0.00    +0.000 A 
ATOM     12  C   UNL     1       8.721  11.290  17.706  0.00  0.00    +0.000 A 
ATOM     13  C   UNL     1       9.265  12.540  18.021  0.00  0.00    +0.000 A 
BRANCH   8  14
ATOM     14  O   UNL     1      10.512  13.935  19.454  0.00  0.00    +0.000 OA
ATOM     15  H   UNL     1      10.249  14.542  18.742  0.00  0.00    +0.000 HD
ENDBRANCH   8  14
ENDBRANCH   1  11
BRANCH   5  16
ATOM     16  C   UNL     1       5.210   5.976  16.734  0.00  0.00    +0.000 A 
ATOM     17  C   UNL     1       4.042   6.166  17.491  0.00  0.00    +0.000 A 
ATOM     18  C   UNL     1       3.177   5.104  17.768  0.00  0.00    +0.000 A 
ATOM     19  C   UNL     1       3.455   3.832  17.277  0.00  0.00    +0.000 A 
ATOM     20  C   UNL     1       4.588   3.628  16.499  0.00  0.00    +0.000 A 
ATOM     21  C   UNL     1       5.453   4.692  16.226  0.00  0.00    +0.000 A 
ENDBRANCH   5  16
TORSDOF 3
ENDMDL
MODEL 2
REMARK VINA RESULT:      -7.1      0.085      1.110
REMARK  Name = 
REMARK  3 active torsions:
REMARK  status: ('A' for Active; 'I' for Inactive)
REMARK    1  A    between atoms: O_1  and  C_2
REMARK    2  A    between atoms: C_5  and  C_6
REMARK    3  A    between atoms: N_10  and  C_11
REMARK                            x       y       z     vdW  Elec       q    Type
REMARK                         _______ _______ _______ _____ _____    ______ ____
ROOT
ATOM      1  C   UNL     1       8.355   8.832  18.306  0.00  0.00    +0.000 A 
ATOM      2  N   UNL     1       8.589   7.680  18.898  0.00  0.00    +0.000 NA
ATOM      3  N   UNL     1       7.754   6.765  18.302  0.00  0.00    +0.000 NA
ATOM      4  C   UNL     1       7.074   7.407  17.377  0.00  0.00    +0.000 A 
ATOM      5  N   UNL     1       6.086   7.028  16.545  0.00  0.00    +0.000 N 
ATOM      6  O   UNL     1       7.425   8.731  17.304  0.00  0.00    +0.000 OA
ATOM      7  H   UNL     1       5.719   7.748  15.937  0.00  0.00    +0.000 HD
ENDROOT
BRANCH   1  11
ATOM      8  C   UNL     1       9.980  12.695  19.046  0.00  0.00    +0.000 A 
ATOM      9  C   UNL     1       9.175  12.480  17.934  0.00  0.00    +0.000 A 
ATOM     10  C   UNL     1       8.646  11.206  17.710  0.00  0.00    +0.000 A 
ATOM     11  C   UNL     1       8.914  10.145  18.592  0.00  0.00    +0.000 A 
ATOM     12  C   UNL     1       9.732  10.388  19.705  0.00  0.00    +0.000 A 
ATOM     13  C   UNL     1      10.263  11.662  19.929  0.00  0.00    +0.000 A 
BRANCH   8  14
ATOM     14  O   UNL     1      10.520  13.920  19.303  0.00  0.00    +0.000 OA
ATOM     15  H   UNL     1       9.825  14.593  19.213  0.00  0.00    +0.000 HD
ENDBRANCH   8  14
ENDBRANCH   1  11
BRANCH   5  16
ATOM     16  C   UNL     1       5.221   5.930  16.730  0.00  0.00    +0.000 A 
ATOM     17  C   UNL     1       4.040   6.119  17.466  0.00  0.00    +0.000 A 
ATOM     18  C   UNL     1       3.174   5.055  17.733  0.00  0.00    +0.000 A 
ATOM     19  C   UNL     1       3.466   3.782  17.254  0.00  0.00    +0.000 A 
ATOM     20  C   UNL     1       4.614   3.579  16.496  0.00  0.00    +0.000 A 
ATOM     21  C   UNL     1       5.478   4.645  16.232  0.00  0.00    +0.000 A 
ENDBRANCH   5  16
TORSDOF 3
ENDMDL
MODEL 3
REMARK VINA RESULT:      -7.0      5.297      7.078
REMARK  Name = 
REMARK  3 active torsions:
REMARK  status: ('A' for Active; 'I' for Inactive)
REMARK    1  A    between atoms: O_1  and  C_2
REMARK    2  A    between atoms: C_5  and  C_6
REMARK    3  A    between atoms: N_10  and  C_11
REMARK                            x       y       z     vdW  Elec       q    Type
REMARK                         _______ _______ _______ _____ _____    ______ ____
ROOT
ATOM      1  C   UNL     1       1.801   8.271  19.515  0.00  0.00    +0.000 A 
ATOM      2  N   UNL     1       2.146   8.596  18.287  0.00  0.00    +0.000 NA
ATOM      3  N   UNL     1       2.920   7.562  17.819  0.00  0.00    +0.000 NA
ATOM      4  C   UNL     1       2.989   6.665  18.779  0.00  0.00    +0.000 A 
ATOM      5  N   UNL     1       3.658   5.501  18.892  0.00  0.00    +0.000 N 
ATOM      6  O   UNL     1       2.275   7.039  19.887  0.00  0.00    +0.000 OA
ATOM      7  H   UNL     1       3.548   5.012  19.769  0.00  0.00    +0.000 HD
ENDROOT
BRANCH   1  11
ATOM      8  C   UNL     1      -0.418  10.432  22.434  0.00  0.00    +0.000 A 
ATOM      9  C   UNL     1       0.423   9.397  22.824  0.00  0.00    +0.000 A 
ATOM     10  C   UNL     1       1.148   8.702  21.852  0.00  0.00    +0.000 A 
ATOM     11  C   UNL     1       1.040   9.036  20.492  0.00  0.00    +0.000 A 
ATOM     12  C   UNL     1       0.181  10.082  20.123  0.00  0.00    +0.000 A 
ATOM     13  C   UNL     1      -0.545  10.777  21.095  0.00  0.00    +0.000 A 
BRANCH   8  14
ATOM     14  O   UNL     1      -1.146  11.136  23.345  0.00  0.00    +0.000 OA
ATOM     15  H   UNL     1      -1.461  10.525  24.032  0.00  0.00    +0.000 HD
ENDBRANCH   8  14
ENDBRANCH   1  11
BRANCH   5  16
ATOM     16  C   UNL     1       4.804   5.129  18.160  0.00  0.00    +0.000 A 
ATOM     17  C   UNL     1       6.069   5.386  18.712  0.00  0.00    +0.000 A 
ATOM     18  C   UNL     1       7.241   5.094  18.007  0.00  0.00    +0.000 A 
ATOM     19  C   UNL     1       7.168   4.521  16.741  0.00  0.00    +0.000 A 
ATOM     20  C   UNL     1       5.926   4.228  16.190  0.00  0.00    +0.000 A 
ATOM     21  C   UNL     1       4.757   4.523  16.896  0.00  0.00    +0.000 A 
ENDBRANCH   5  16
TORSDOF 3
ENDMDL
MODEL 4
REMARK VINA RESULT:      -7.0      0.233      1.571
REMARK  Name = 
REMARK  3 active torsions:
REMARK  status: ('A' for Active; 'I' for Inactive)
REMARK    1  A    between atoms: O_1  and  C_2
REMARK    2  A    between atoms: C_5  and  C_6
REMARK    3  A    between atoms: N_10  and  C_11
REMARK                            x       y       z     vdW  Elec       q    Type
REMARK                         _______ _______ _______ _____ _____    ______ ____
ROOT
ATOM      1  C   UNL     1       8.362   8.931  18.239  0.00  0.00    +0.000 A 
ATOM      2  N   UNL     1       8.604   7.803  18.872  0.00  0.00    +0.000 NA
ATOM      3  N   UNL     1       7.761   6.865  18.325  0.00  0.00    +0.000 NA
ATOM      4  C   UNL     1       7.068   7.471  17.384  0.00  0.00    +0.000 A 
ATOM      5  N   UNL     1       6.068   7.059  16.582  0.00  0.00    +0.000 N 
ATOM      6  O   UNL     1       7.417   8.791  17.254  0.00  0.00    +0.000 OA
ATOM      7  H   UNL     1       5.693   7.755  15.952  0.00  0.00    +0.000 HD
ENDROOT
BRANCH   1  11
ATOM      8  C   UNL     1       9.984  12.824  18.807  0.00  0.00    +0.000 A 
ATOM      9  C   UNL     1       9.040  12.602  17.812  0.00  0.00    +0.000 A 
ATOM     10  C   UNL     1       8.515  11.317  17.643  0.00  0.00    +0.000 A 
ATOM     11  C   UNL     1       8.924  10.254  18.465  0.00  0.00    +0.000 A 
ATOM     12  C   UNL     1       9.881  10.504  19.460  0.00  0.00    +0.000 A 
ATOM     13  C   UNL     1      10.408  11.788  19.628  0.00  0.00    +0.000 A 
BRANCH   8  14
ATOM     14  O   UNL     1      10.526  14.058  19.006  0.00  0.00    +0.000 OA
ATOM     15  H   UNL     1      11.300  13.969  19.586  0.00  0.00    +0.000 HD
ENDBRANCH   8  14
ENDBRANCH   1  11
BRANCH   5  16
ATOM     16  C   UNL     1       5.207   5.970  16.822  0.00  0.00    +0.000 A 
ATOM     17  C   UNL     1       5.539   4.716  16.284  0.00  0.00    +0.000 A 
ATOM     18  C   UNL     1       4.694   3.614  16.437  0.00  0.00    +0.000 A 
ATOM     19  C   UNL     1       3.505   3.741  17.148  0.00  0.00    +0.000 A 
ATOM     20  C   UNL     1       3.172   4.965  17.717  0.00  0.00    +0.000 A 
ATOM     21  C   UNL     1       4.019   6.066  17.560  0.00  0.00    +0.000 A 
ENDBRANCH   5  16
TORSDOF 3
ENDMDL
MODEL 5
REMARK VINA RESULT:      -7.0      5.293      7.139
REMARK  Name = 
REMARK  3 active torsions:
REMARK  status: ('A' for Active; 'I' for Inactive)
REMARK    1  A    between atoms: O_1  and  C_2
REMARK    2  A    between atoms: C_5  and  C_6
REMARK    3  A    between atoms: N_10  and  C_11
REMARK                            x       y       z     vdW  Elec       q    Type
REMARK                         _______ _______ _______ _____ _____    ______ ____
ROOT
ATOM      1  C   UNL     1       1.828   8.252  19.545  0.00  0.00    +0.000 A 
ATOM      2  N   UNL     1       2.190   8.619  18.334  0.00  0.00    +0.000 NA
ATOM      3  N   UNL     1       2.954   7.593  17.833  0.00  0.00    +0.000 NA
ATOM      4  C   UNL     1       3.001   6.658  18.758  0.00  0.00    +0.000 A 
ATOM      5  N   UNL     1       3.652   5.482  18.832  0.00  0.00    +0.000 N 
ATOM      6  O   UNL     1       2.280   6.999  19.873  0.00  0.00    +0.000 OA
ATOM      7  H   UNL     1       3.526   4.961  19.689  0.00  0.00    +0.000 HD
ENDROOT
BRANCH   1  11
ATOM      8  C   UNL     1      -0.401  10.484  22.401  0.00  0.00    +0.000 A 
ATOM      9  C   UNL     1      -0.486  10.800  21.051  0.00  0.00    +0.000 A 
ATOM     10  C   UNL     1       0.250  10.054  20.127  0.00  0.00    +0.000 A 
ATOM     11  C   UNL     1       1.068   8.989  20.543  0.00  0.00    +0.000 A 
ATOM     12  C   UNL     1       1.139   8.692  21.912  0.00  0.00    +0.000 A 
ATOM     13  C   UNL     1       0.404   9.441  22.837  0.00  0.00    +0.000 A 
BRANCH   8  14
ATOM     14  O   UNL     1      -1.097  11.187  23.338  0.00  0.00    +0.000 OA
ATOM     15  H   UNL     1      -1.877  10.670  23.600  0.00  0.00    +0.000 HD
ENDBRANCH   8  14
ENDBRANCH   1  11
BRANCH   5  16
ATOM     16  C   UNL     1       4.799   5.121  18.097  0.00  0.00    +0.000 A 
ATOM     17  C   UNL     1       6.064   5.397  18.643  0.00  0.00    +0.000 A 
ATOM     18  C   UNL     1       7.236   5.117  17.935  0.00  0.00    +0.000 A 
ATOM     19  C   UNL     1       7.166   4.539  16.672  0.00  0.00    +0.000 A 
ATOM     20  C   UNL     1       5.926   4.227  16.127  0.00  0.00    +0.000 A 
ATOM     21  C   UNL     1       4.756   4.510  16.836  0.00  0.00    +0.000 A 
ENDBRANCH   5  16
TORSDOF 3
ENDMDL
MODEL 6
REMARK VINA RESULT:      -7.0      0.222      1.123
REMARK  Name = 
REMARK  3 active torsions:
REMARK  status: ('A' for Active; 'I' for Inactive)
REMARK    1  A    between atoms: O_1  and  C_2
REMARK    2  A    between atoms: C_5  and  C_6
REMARK    3  A    between atoms: N_10  and  C_11
REMARK                            x       y       z     vdW  Elec       q    Type
REMARK                         _______ _______ _______ _____ _____    ______ ____
ROOT
ATOM      1  C   UNL     1       8.425   8.876  18.382  0.00  0.00    +0.000 A 
ATOM      2  N   UNL     1       8.664   7.700  18.924  0.00  0.00    +0.000 NA
ATOM      3  N   UNL     1       7.777   6.823  18.347  0.00  0.00    +0.000 NA
ATOM      4  C   UNL     1       7.063   7.509  17.481  0.00  0.00    +0.000 A 
ATOM      5  N   UNL     1       6.022   7.178  16.693  0.00  0.00    +0.000 N 
ATOM      6  O   UNL     1       7.439   8.826  17.430  0.00  0.00    +0.000 OA
ATOM      7  H   UNL     1       5.640   7.924  16.129  0.00  0.00    +0.000 HD
ENDROOT
BRANCH   1  11
ATOM      8  C   UNL     1      10.173  12.635  19.342  0.00  0.00    +0.000 A 
ATOM      9  C   UNL     1      10.097  11.637  20.305  0.00  0.00    +0.000 A 
ATOM     10  C   UNL     1       9.523  10.407  19.971  0.00  0.00    +0.000 A 
ATOM     11  C   UNL     1       9.029  10.167  18.678  0.00  0.00    +0.000 A 
ATOM     12  C   UNL     1       9.114  11.192  17.724  0.00  0.00    +0.000 A 
ATOM     13  C   UNL     1       9.686  12.423  18.058  0.00  0.00    +0.000 A 
BRANCH   8  14
ATOM     14  O   UNL     1      10.720  13.851  19.623  0.00  0.00    +0.000 OA
ATOM     15  H   UNL     1      10.557  14.058  20.558  0.00  0.00    +0.000 HD
ENDBRANCH   8  14
ENDBRANCH   1  11
BRANCH   5  16
ATOM     16  C   UNL     1       5.144   6.093  16.891  0.00  0.00    +0.000 A 
ATOM     17  C   UNL     1       5.463   4.854  16.312  0.00  0.00    +0.000 A 
ATOM     18  C   UNL     1       4.601   3.759  16.423  0.00  0.00    +0.000 A 
ATOM     19  C   UNL     1       3.410   3.878  17.132  0.00  0.00    +0.000 A 
ATOM     20  C   UNL     1       3.091   5.087  17.741  0.00  0.00    +0.000 A 
ATOM     21  C   UNL     1       3.954   6.180  17.626  0.00  0.00    +0.000 A 
ENDBRANCH   5  16
TORSDOF 3
ENDMDL
MODEL 7
REMARK VINA RESULT:      -7.0      5.295      7.166
REMARK  Name = 
REMARK  3 active torsions:
REMARK  status: ('A' for Active; 'I' for Inactive)
REMARK    1  A    between atoms: O_1  and  C_2
REMARK    2  A    between atoms: C_5  and  C_6
REMARK    3  A    between atoms: N_10  and  C_11
REMARK                            x       y       z     vdW  Elec       q    Type
REMARK                         _______ _______ _______ _____ _____    ______ ____
ROOT
ATOM      1  C   UNL     1       1.827   8.276  19.526  0.00  0.00    +0.000 A 
ATOM      2  N   UNL     1       2.158   8.652  18.308  0.00  0.00    +0.000 NA
ATOM      3  N   UNL     1       2.948   7.650  17.798  0.00  0.00    +0.000 NA
ATOM      4  C   UNL     1       3.039   6.720  18.724  0.00  0.00    +0.000 A 
ATOM      5  N   UNL     1       3.730   5.566  18.791  0.00  0.00    +0.000 N 
ATOM      6  O   UNL     1       2.326   7.041  19.850  0.00  0.00    +0.000 OA
ATOM      7  H   UNL     1       3.635   5.043  19.650  0.00  0.00    +0.000 HD
ENDROOT
BRANCH   1  11
ATOM      8  C   UNL     1      -0.427  10.444  22.412  0.00  0.00    +0.000 A 
ATOM      9  C   UNL     1      -0.517  10.776  21.066  0.00  0.00    +0.000 A 
ATOM     10  C   UNL     1       0.227  10.051  20.132  0.00  0.00    +0.000 A 
ATOM     11  C   UNL     1       1.059   8.991  20.534  0.00  0.00    +0.000 A 
ATOM     12  C   UNL     1       1.135   8.678  21.899  0.00  0.00    +0.000 A 
ATOM     13  C   UNL     1       0.392   9.405  22.834  0.00  0.00    +0.000 A 
BRANCH   8  14
ATOM     14  O   UNL     1      -1.131  11.125  23.359  0.00  0.00    +0.000 OA
ATOM     15  H   UNL     1      -1.457  10.493  24.021  0.00  0.00    +0.000 HD
ENDBRANCH   8  14
ENDBRANCH   1  11
BRANCH   5  16
ATOM     16  C   UNL     1       4.877   5.241  18.039  0.00  0.00    +0.000 A 
ATOM     17  C   UNL     1       4.710   4.642  16.779  0.00  0.00    +0.000 A 
ATOM     18  C   UNL     1       5.810   4.243  16.015  0.00  0.00    +0.000 A 
ATOM     19  C   UNL     1       7.101   4.451  16.490  0.00  0.00    +0.000 A 
ATOM     20  C   UNL     1       7.290   5.071  17.720  0.00  0.00    +0.000 A 
ATOM     21  C   UNL     1       6.187   5.467  18.482  0.00  0.00    +0.000 A 
ENDBRANCH   5  16
TORSDOF 3
ENDMDL
MODEL 8
REMARK VINA RESULT:      -6.9      5.063      7.078
REMARK  Name = 
REMARK  3 active torsions:
REMARK  status: ('A' for Active; 'I' for Inactive)
REMARK    1  A    between atoms: O_1  and  C_2
REMARK    2  A    between atoms: C_5  and  C_6
REMARK    3  A    between atoms: N_10  and  C_11
REMARK                            x       y       z     vdW  Elec       q    Type
REMARK                         _______ _______ _______ _____ _____    ______ ____
ROOT
ATOM      1  C   UNL     1       1.725   8.506  19.257  0.00  0.00    +0.000 A 
ATOM      2  N   UNL     1       1.999   8.924  18.039  0.00  0.00    +0.000 NA
ATOM      3  N   UNL     1       2.769   7.943  17.460  0.00  0.00    +0.000 NA
ATOM      4  C   UNL     1       2.906   6.984  18.350  0.00  0.00    +0.000 A 
ATOM      5  N   UNL     1       3.604   5.831  18.347  0.00  0.00    +0.000 N 
ATOM      6  O   UNL     1       2.242   7.263  19.517  0.00  0.00    +0.000 OA
ATOM      7  H   UNL     1       3.549   5.280  19.192  0.00  0.00    +0.000 HD
ENDROOT
BRANCH   1  11
ATOM      8  C   UNL     1      -0.386  10.403  22.427  0.00  0.00    +0.000 A 
ATOM      9  C   UNL     1       0.459   9.334  22.696  0.00  0.00    +0.000 A 
ATOM     10  C   UNL     1       1.147   8.726  21.643  0.00  0.00    +0.000 A 
ATOM     11  C   UNL     1       1.000   9.183  20.322  0.00  0.00    +0.000 A 
ATOM     12  C   UNL     1       0.138  10.261  20.077  0.00  0.00    +0.000 A 
ATOM     13  C   UNL     1      -0.553  10.869  21.130  0.00  0.00    +0.000 A 
BRANCH   8  14
ATOM     14  O   UNL     1      -1.081  11.025  23.421  0.00  0.00    +0.000 OA
ATOM     15  H   UNL     1      -0.777  10.680  24.277  0.00  0.00    +0.000 HD
ENDBRANCH   8  14
ENDBRANCH   1  11
BRANCH   5  16
ATOM     16  C   UNL     1       4.717   5.538  17.534  0.00  0.00    +0.000 A 
ATOM     17  C   UNL     1       4.649   4.430  16.673  0.00  0.00    +0.000 A 
ATOM     18  C   UNL     1       5.743   4.054  15.888  0.00  0.00    +0.000 A 
ATOM     19  C   UNL     1       6.922   4.791  15.937  0.00  0.00    +0.000 A 
ATOM     20  C   UNL     1       7.000   5.910  16.758  0.00  0.00    +0.000 A 
ATOM     21  C   UNL     1       5.905   6.282  17.543  0.00  0.00    +0.000 A 
ENDBRANCH   5  16
TORSDOF 3
ENDMDL
MODEL 9
REMARK VINA RESULT:      -6.9      6.618      9.180
REMARK  Name = 
REMARK  3 active torsions:
REMARK  status: ('A' for Active; 'I' for Inactive)
REMARK    1  A    between atoms: O_1  and  C_2
REMARK    2  A    between atoms: C_5  and  C_6
REMARK    3  A    between atoms: N_10  and  C_11
REMARK                            x       y       z     vdW  Elec       q    Type
REMARK                         _______ _______ _______ _____ _____    ______ ____
ROOT
ATOM      1  C   UNL     1       2.455   5.936  19.224  0.00  0.00    +0.000 A 
ATOM      2  N   UNL     1       2.209   6.919  18.383  0.00  0.00    +0.000 NA
ATOM      3  N   UNL     1       1.832   7.995  19.149  0.00  0.00    +0.000 NA
ATOM      4  C   UNL     1       1.884   7.612  20.407  0.00  0.00    +0.000 A 
ATOM      5  N   UNL     1       1.561   8.227  21.561  0.00  0.00    +0.000 N 
ATOM      6  O   UNL     1       2.301   6.312  20.534  0.00  0.00    +0.000 OA
ATOM      7  H   UNL     1       1.680   7.678  22.402  0.00  0.00    +0.000 HD
ENDROOT
BRANCH   1  11
ATOM      8  C   UNL     1       3.621   1.916  18.459  0.00  0.00    +0.000 A 
ATOM      9  C   UNL     1       4.183   2.613  19.521  0.00  0.00    +0.000 A 
ATOM     10  C   UNL     1       3.785   3.931  19.760  0.00  0.00    +0.000 A 
ATOM     11  C   UNL     1       2.825   4.556  18.945  0.00  0.00    +0.000 A 
ATOM     12  C   UNL     1       2.276   3.832  17.878  0.00  0.00    +0.000 A 
ATOM     13  C   UNL     1       2.675   2.513  17.637  0.00  0.00    +0.000 A 
BRANCH   8  14
ATOM     14  O   UNL     1       3.981   0.630  18.186  0.00  0.00    +0.000 OA
ATOM     15  H   UNL     1       4.013   0.513  17.222  0.00  0.00    +0.000 HD
ENDBRANCH   8  14
ENDBRANCH   1  11
BRANCH   5  16
ATOM     16  C   UNL     1       0.682   9.319  21.701  0.00  0.00    +0.000 A 
ATOM     17  C   UNL     1      -0.036   9.457  22.900  0.00  0.00    +0.000 A 
ATOM     18  C   UNL     1      -0.966  10.486  23.074  0.00  0.00    +0.000 A 
ATOM     19  C   UNL     1      -1.184  11.408  22.056  0.00  0.00    +0.000 A 
ATOM     20  C   UNL     1      -0.461  11.309  20.872  0.00  0.00    +0.000 A 
ATOM     21  C   UNL     1       0.467  10.278  20.701  0.00  0.00    +0.000 A 
ENDBRANCH   5  16
TORSDOF 3
ENDMDL
