MODEL 1
REMARK VINA RESULT:      -8.3      0.000      0.000
REMARK  Name = 
REMARK  9 active torsions:
REMARK  status: ('A' for Active; 'I' for Inactive)
REMARK    1  A    between atoms: C_1  and  C_2
REMARK    2  A    between atoms: C_2  and  N_3
REMARK    3  A    between atoms: C_2  and  C_19
REMARK    4  A    between atoms: C_8  and  N_9
REMARK    5  A    between atoms: C_14  and  C_15
REMARK    6  A    between atoms: C_15  and  C_16
REMARK    7  A    between atoms: C_15  and  O_17
REMARK    8  A    between atoms: C_21  and  C_22
REMARK    9  A    between atoms: C_27  and  C_28
REMARK                            x       y       z     vdW  Elec       q    Type
REMARK                         _______ _______ _______ _____ _____    ______ ____
ROOT
ATOM      1  C   UNL     1       0.288   9.394  22.268  0.00  0.00    +0.000 C 
ATOM      2  C   UNL     1       0.125  10.251  21.005  0.00  0.00    +0.000 C 
ENDROOT
BRANCH   2   3
ATOM      3  N   UNL     1       0.582  11.603  21.347  0.00  0.00    +0.000 N 
ATOM      4  C   UNL     1      -0.379  12.594  21.236  0.00  0.00    +0.000 A 
ATOM      5  N   UNL     1       0.026  13.732  20.666  0.00  0.00    +0.000 NA
ATOM      6  C   UNL     1      -0.888  14.708  20.532  0.00  0.00    +0.000 A 
ATOM      7  C   UNL     1      -2.198  14.570  20.904  0.00  0.00    +0.000 A 
ATOM      8  C   UNL     1      -2.512  13.378  21.516  0.00  0.00    +0.000 A 
ATOM      9  N   UNL     1      -1.608  12.399  21.732  0.00  0.00    +0.000 NA
ATOM     10  H   UNL     1       1.341  11.913  20.740  0.00  0.00    +0.000 HD
BRANCH   8  11
ATOM     11  N   UNL     1      -3.793  13.219  22.054  0.00  0.00    +0.000 N 
ATOM     12  C   UNL     1      -4.819  12.628  21.353  0.00  0.00    +0.000 C 
ATOM     13  O   UNL     1      -4.850  12.360  20.164  0.00  0.00    +0.000 OA
ATOM     14  O   UNL     1      -5.838  12.320  22.214  0.00  0.00    +0.000 OA
ATOM     15  C   UNL     1      -5.541  12.911  23.483  0.00  0.00    +0.000 C 
ATOM     16  C   UNL     1      -4.046  13.183  23.467  0.00  0.00    +0.000 C 
BRANCH  16  17
ATOM     17  C   UNL     1      -3.676  14.511  24.175  0.00  0.00    +0.000 C 
ATOM     18  C   UNL     1      -4.724  15.602  24.023  0.00  0.00    +0.000 C 
BRANCH  17  19
ATOM     19  O   UNL     1      -3.477  14.353  25.583  0.00  0.00    +0.000 OA
ATOM     20  H   UNL     1      -2.631  13.891  25.744  0.00  0.00    +0.000 HD
ENDBRANCH  17  19
ENDBRANCH  16  17
ENDBRANCH   8  11
ENDBRANCH   2   3
BRANCH   2  21
ATOM     21  C   UNL     1       0.878   9.598  19.882  0.00  0.00    +0.000 A 
ATOM     22  N   UNL     1       1.551   8.471  19.878  0.00  0.00    +0.000 NA
ATOM     23  C   UNL     1       1.946   8.368  18.559  0.00  0.00    +0.000 A 
ATOM     24  N   UNL     1       1.531   9.387  17.784  0.00  0.00    +0.000 NA
ATOM     25  O   UNL     1       0.820  10.201  18.662  0.00  0.00    +0.000 OA
BRANCH  23  26
ATOM     26  C   UNL     1       2.733   7.237  18.071  0.00  0.00    +0.000 A 
ATOM     27  C   UNL     1       3.946   7.429  17.405  0.00  0.00    +0.000 A 
ATOM     28  C   UNL     1       4.679   6.329  16.944  0.00  0.00    +0.000 A 
ATOM     29  C   UNL     1       4.212   5.024  17.137  0.00  0.00    +0.000 A 
ATOM     30 CL   UNL     1       5.210   3.757  16.526  0.00  0.00    +0.000 Cl
ATOM     31  C   UNL     1       2.996   4.800  17.790  0.00  0.00    +0.000 A 
ATOM     32  C   UNL     1       2.272   5.923  18.255  0.00  0.00    +0.000 A 
BRANCH  31  33
ATOM     33  C   UNL     1       2.398   3.440  18.052  0.00  0.00    +0.000 C 
ATOM     34  F   UNL     1       2.361   2.579  17.007  0.00  0.00    +0.000 F 
ATOM     35  F   UNL     1       3.059   2.782  19.048  0.00  0.00    +0.000 F 
ATOM     36  F   UNL     1       1.104   3.538  18.484  0.00  0.00    +0.000 F 
ENDBRANCH  31  33
ENDBRANCH  23  26
ENDBRANCH   2  21
TORSDOF 7
ENDMDL
MODEL 2
REMARK VINA RESULT:      -8.2      1.514      1.781
REMARK  Name = 
REMARK  9 active torsions:
REMARK  status: ('A' for Active; 'I' for Inactive)
REMARK    1  A    between atoms: C_1  and  C_2
REMARK    2  A    between atoms: C_2  and  N_3
REMARK    3  A    between atoms: C_2  and  C_19
REMARK    4  A    between atoms: C_8  and  N_9
REMARK    5  A    between atoms: C_14  and  C_15
REMARK    6  A    between atoms: C_15  and  C_16
REMARK    7  A    between atoms: C_15  and  O_17
REMARK    8  A    between atoms: C_21  and  C_22
REMARK    9  A    between atoms: C_27  and  C_28
REMARK                            x       y       z     vdW  Elec       q    Type
REMARK                         _______ _______ _______ _____ _____    ______ ____
ROOT
ATOM      1  C   UNL     1      -0.253   9.599  23.304  0.00  0.00    +0.000 C 
ATOM      2  C   UNL     1      -0.315  10.164  21.878  0.00  0.00    +0.000 C 
ENDROOT
BRANCH   2   3
ATOM      3  N   UNL     1       0.081  11.575  21.962  0.00  0.00    +0.000 N 
ATOM      4  C   UNL     1      -0.893  12.482  21.578  0.00  0.00    +0.000 A 
ATOM      5  N   UNL     1      -0.472  13.493  20.813  0.00  0.00    +0.000 NA
ATOM      6  C   UNL     1      -1.397  14.383  20.413  0.00  0.00    +0.000 A 
ATOM      7  C   UNL     1      -2.728  14.271  20.711  0.00  0.00    +0.000 A 
ATOM      8  C   UNL     1      -3.059  13.220  21.534  0.00  0.00    +0.000 A 
ATOM      9  N   UNL     1      -2.152  12.344  22.014  0.00  0.00    +0.000 NA
ATOM     10  H   UNL     1       0.877  11.783  21.359  0.00  0.00    +0.000 HD
BRANCH   8  11
ATOM     11  N   UNL     1      -4.374  13.124  22.001  0.00  0.00    +0.000 N 
ATOM     12  C   UNL     1      -5.355  12.451  21.308  0.00  0.00    +0.000 C 
ATOM     13  O   UNL     1      -5.308  12.041  20.160  0.00  0.00    +0.000 OA
ATOM     14  O   UNL     1      -6.432  12.246  22.130  0.00  0.00    +0.000 OA
ATOM     15  C   UNL     1      -6.216  12.986  23.335  0.00  0.00    +0.000 C 
ATOM     16  C   UNL     1      -4.722  13.258  23.387  0.00  0.00    +0.000 C 
BRANCH  16  17
ATOM     17  C   UNL     1      -4.392  14.661  23.954  0.00  0.00    +0.000 C 
ATOM     18  C   UNL     1      -5.586  15.603  23.997  0.00  0.00    +0.000 C 
BRANCH  17  19
ATOM     19  O   UNL     1      -3.881  14.616  25.288  0.00  0.00    +0.000 OA
ATOM     20  H   UNL     1      -4.059  13.738  25.678  0.00  0.00    +0.000 HD
ENDBRANCH  17  19
ENDBRANCH  16  17
ENDBRANCH   8  11
ENDBRANCH   2   3
BRANCH   2  21
ATOM     21  C   UNL     1       0.553   9.319  20.990  0.00  0.00    +0.000 A 
ATOM     22  N   UNL     1       0.956   8.081  21.157  0.00  0.00    +0.000 NA
ATOM     23  C   UNL     1       1.651   7.838  19.988  0.00  0.00    +0.000 A 
ATOM     24  N   UNL     1       1.671   8.881  19.138  0.00  0.00    +0.000 NA
ATOM     25  O   UNL     1       0.940   9.862  19.802  0.00  0.00    +0.000 OA
BRANCH  23  26
ATOM     26  C   UNL     1       2.286   6.549  19.718  0.00  0.00    +0.000 A 
ATOM     27  C   UNL     1       3.242   6.408  18.709  0.00  0.00    +0.000 A 
ATOM     28  C   UNL     1       3.834   5.163  18.466  0.00  0.00    +0.000 A 
ATOM     29  C   UNL     1       3.479   4.041  19.225  0.00  0.00    +0.000 A 
ATOM     30 CL   UNL     1       4.283   2.567  18.832  0.00  0.00    +0.000 Cl
ATOM     31  C   UNL     1       2.517   4.149  20.235  0.00  0.00    +0.000 A 
ATOM     32  C   UNL     1       1.935   5.416  20.469  0.00  0.00    +0.000 A 
BRANCH  31  33
ATOM     33  C   UNL     1       2.060   3.009  21.111  0.00  0.00    +0.000 C 
ATOM     34  F   UNL     1       3.004   2.416  21.882  0.00  0.00    +0.000 F 
ATOM     35  F   UNL     1       1.075   3.399  21.972  0.00  0.00    +0.000 F 
ATOM     36  F   UNL     1       1.511   1.999  20.371  0.00  0.00    +0.000 F 
ENDBRANCH  31  33
ENDBRANCH  23  26
ENDBRANCH   2  21
TORSDOF 7
ENDMDL
MODEL 3
REMARK VINA RESULT:      -8.2      2.306      2.966
REMARK  Name = 
REMARK  9 active torsions:
REMARK  status: ('A' for Active; 'I' for Inactive)
REMARK    1  A    between atoms: C_1  and  C_2
REMARK    2  A    between atoms: C_2  and  N_3
REMARK    3  A    between atoms: C_2  and  C_19
REMARK    4  A    between atoms: C_8  and  N_9
REMARK    5  A    between atoms: C_14  and  C_15
REMARK    6  A    between atoms: C_15  and  C_16
REMARK    7  A    between atoms: C_15  and  O_17
REMARK    8  A    between atoms: C_21  and  C_22
REMARK    9  A    between atoms: C_27  and  C_28
REMARK                            x       y       z     vdW  Elec       q    Type
REMARK                         _______ _______ _______ _____ _____    ______ ____
ROOT
ATOM      1  C   UNL     1       1.876  12.604  18.679  0.00  0.00    +0.000 C 
ATOM      2  C   UNL     1       0.785  11.541  18.859  0.00  0.00    +0.000 C 
ENDROOT
BRANCH   2   3
ATOM      3  N   UNL     1      -0.296  11.878  17.925  0.00  0.00    +0.000 N 
ATOM      4  C   UNL     1      -1.530  12.105  18.513  0.00  0.00    +0.000 A 
ATOM      5  N   UNL     1      -2.577  11.559  17.890  0.00  0.00    +0.000 NA
ATOM      6  C   UNL     1      -3.787  11.750  18.444  0.00  0.00    +0.000 A 
ATOM      7  C   UNL     1      -3.979  12.427  19.618  0.00  0.00    +0.000 A 
ATOM      8  C   UNL     1      -2.847  12.986  20.165  0.00  0.00    +0.000 A 
ATOM      9  N   UNL     1      -1.624  12.876  19.605  0.00  0.00    +0.000 NA
ATOM     10  H   UNL     1      -0.467  11.129  17.253  0.00  0.00    +0.000 HD
BRANCH   8  11
ATOM     11  N   UNL     1      -2.983  13.815  21.284  0.00  0.00    +0.000 N 
ATOM     12  C   UNL     1      -2.780  15.174  21.224  0.00  0.00    +0.000 C 
ATOM     13  O   UNL     1      -2.277  15.813  20.315  0.00  0.00    +0.000 OA
ATOM     14  O   UNL     1      -3.284  15.759  22.355  0.00  0.00    +0.000 OA
ATOM     15  C   UNL     1      -3.649  14.718  23.267  0.00  0.00    +0.000 C 
ATOM     16  C   UNL     1      -3.785  13.463  22.421  0.00  0.00    +0.000 C 
BRANCH  16  17
ATOM     17  C   UNL     1      -3.268  12.197  23.149  0.00  0.00    +0.000 C 
ATOM     18  C   UNL     1      -1.776  12.221  23.441  0.00  0.00    +0.000 C 
BRANCH  17  19
ATOM     19  O   UNL     1      -3.910  11.978  24.409  0.00  0.00    +0.000 OA
ATOM     20  H   UNL     1      -4.701  12.548  24.476  0.00  0.00    +0.000 HD
ENDBRANCH  17  19
ENDBRANCH  16  17
ENDBRANCH   8  11
ENDBRANCH   2   3
BRANCH   2  21
ATOM     21  C   UNL     1       1.398  10.186  18.647  0.00  0.00    +0.000 A 
ATOM     22  N   UNL     1       1.300   9.105  19.386  0.00  0.00    +0.000 NA
ATOM     23  C   UNL     1       2.006   8.177  18.646  0.00  0.00    +0.000 A 
ATOM     24  N   UNL     1       2.514   8.666  17.499  0.00  0.00    +0.000 NA
ATOM     25  O   UNL     1       2.107   9.997  17.499  0.00  0.00    +0.000 OA
BRANCH  23  26
ATOM     26  C   UNL     1       2.163   6.792  19.085  0.00  0.00    +0.000 A 
ATOM     27  C   UNL     1       1.833   6.400  20.385  0.00  0.00    +0.000 A 
ATOM     28  C   UNL     1       1.995   5.068  20.782  0.00  0.00    +0.000 A 
ATOM     29  C   UNL     1       2.491   4.109  19.891  0.00  0.00    +0.000 A 
ATOM     30 CL   UNL     1       2.639   2.503  20.501  0.00  0.00    +0.000 Cl
ATOM     31  C   UNL     1       2.840   4.473  18.587  0.00  0.00    +0.000 A 
ATOM     32  C   UNL     1       2.663   5.822  18.201  0.00  0.00    +0.000 A 
BRANCH  31  33
ATOM     33  C   UNL     1       3.382   3.526  17.545  0.00  0.00    +0.000 C 
ATOM     34  F   UNL     1       3.822   4.078  16.389  0.00  0.00    +0.000 F 
ATOM     35  F   UNL     1       4.430   2.794  18.025  0.00  0.00    +0.000 F 
ATOM     36  F   UNL     1       2.443   2.605  17.171  0.00  0.00    +0.000 F 
ENDBRANCH  31  33
ENDBRANCH  23  26
ENDBRANCH   2  21
TORSDOF 7
ENDMDL
MODEL 4
REMARK VINA RESULT:      -8.2      0.932      2.224
REMARK  Name = 
REMARK  9 active torsions:
REMARK  status: ('A' for Active; 'I' for Inactive)
REMARK    1  A    between atoms: C_1  and  C_2
REMARK    2  A    between atoms: C_2  and  N_3
REMARK    3  A    between atoms: C_2  and  C_19
REMARK    4  A    between atoms: C_8  and  N_9
REMARK    5  A    between atoms: C_14  and  C_15
REMARK    6  A    between atoms: C_15  and  C_16
REMARK    7  A    between atoms: C_15  and  O_17
REMARK    8  A    between atoms: C_21  and  C_22
REMARK    9  A    between atoms: C_27  and  C_28
REMARK                            x       y       z     vdW  Elec       q    Type
REMARK                         _______ _______ _______ _____ _____    ______ ____
ROOT
ATOM      1  C   UNL     1      -0.113   9.058  22.233  0.00  0.00    +0.000 C 
ATOM      2  C   UNL     1      -0.168  10.021  21.040  0.00  0.00    +0.000 C 
ENDROOT
BRANCH   2   3
ATOM      3  N   UNL     1       0.218  11.344  21.543  0.00  0.00    +0.000 N 
ATOM      4  C   UNL     1      -0.775  12.309  21.482  0.00  0.00    +0.000 A 
ATOM      5  N   UNL     1      -0.387  13.513  21.055  0.00  0.00    +0.000 NA
ATOM      6  C   UNL     1      -1.331  14.466  20.973  0.00  0.00    +0.000 A 
ATOM      7  C   UNL     1      -2.652  14.245  21.258  0.00  0.00    +0.000 A 
ATOM      8  C   UNL     1      -2.948  12.986  21.726  0.00  0.00    +0.000 A 
ATOM      9  N   UNL     1      -2.019  12.021  21.888  0.00  0.00    +0.000 NA
ATOM     10  H   UNL     1       0.994  11.742  21.012  0.00  0.00    +0.000 HD
BRANCH   8  11
ATOM     11  N   UNL     1      -4.247  12.727  22.175  0.00  0.00    +0.000 N 
ATOM     12  C   UNL     1      -4.559  12.631  23.512  0.00  0.00    +0.000 C 
ATOM     13  O   UNL     1      -3.788  12.544  24.453  0.00  0.00    +0.000 OA
ATOM     14  O   UNL     1      -5.919  12.695  23.666  0.00  0.00    +0.000 OA
ATOM     15  C   UNL     1      -6.516  12.632  22.367  0.00  0.00    +0.000 C 
ATOM     16  C   UNL     1      -5.415  13.017  21.393  0.00  0.00    +0.000 C 
BRANCH  16  17
ATOM     17  C   UNL     1      -5.473  12.200  20.078  0.00  0.00    +0.000 C 
ATOM     18  C   UNL     1      -6.785  11.460  19.872  0.00  0.00    +0.000 C 
BRANCH  17  19
ATOM     19  O   UNL     1      -5.292  13.007  18.912  0.00  0.00    +0.000 OA
ATOM     20  H   UNL     1      -6.134  13.065  18.419  0.00  0.00    +0.000 HD
ENDBRANCH  17  19
ENDBRANCH  16  17
ENDBRANCH   8  11
ENDBRANCH   2   3
BRANCH   2  21
ATOM     21  C   UNL     1       0.713   9.482  19.949  0.00  0.00    +0.000 A 
ATOM     22  N   UNL     1       1.391   8.359  19.908  0.00  0.00    +0.000 NA
ATOM     23  C   UNL     1       1.933   8.388  18.638  0.00  0.00    +0.000 A 
ATOM     24  N   UNL     1       1.600   9.482  17.928  0.00  0.00    +0.000 NA
ATOM     25  O   UNL     1       0.788  10.205  18.797  0.00  0.00    +0.000 OA
BRANCH  23  26
ATOM     26  C   UNL     1       2.779   7.309  18.130  0.00  0.00    +0.000 A 
ATOM     27  C   UNL     1       3.969   7.578  17.450  0.00  0.00    +0.000 A 
ATOM     28  C   UNL     1       4.760   6.527  16.970  0.00  0.00    +0.000 A 
ATOM     29  C   UNL     1       4.374   5.195  17.159  0.00  0.00    +0.000 A 
ATOM     30 CL   UNL     1       5.436   3.994  16.525  0.00  0.00    +0.000 Cl
ATOM     31  C   UNL     1       3.182   4.895  17.827  0.00  0.00    +0.000 A 
ATOM     32  C   UNL     1       2.399   5.969  18.311  0.00  0.00    +0.000 A 
BRANCH  31  33
ATOM     33  C   UNL     1       2.670   3.500  18.087  0.00  0.00    +0.000 C 
ATOM     34  F   UNL     1       1.466   3.397  18.702  0.00  0.00    +0.000 F 
ATOM     35  F   UNL     1       2.555   2.781  16.933  0.00  0.00    +0.000 F 
ATOM     36  F   UNL     1       3.536   2.787  18.869  0.00  0.00    +0.000 F 
ENDBRANCH  31  33
ENDBRANCH  23  26
ENDBRANCH   2  21
TORSDOF 7
ENDMDL
MODEL 5
REMARK VINA RESULT:      -8.1      1.366      2.659
REMARK  Name = 
REMARK  9 active torsions:
REMARK  status: ('A' for Active; 'I' for Inactive)
REMARK    1  A    between atoms: C_1  and  C_2
REMARK    2  A    between atoms: C_2  and  N_3
REMARK    3  A    between atoms: C_2  and  C_19
REMARK    4  A    between atoms: C_8  and  N_9
REMARK    5  A    between atoms: C_14  and  C_15
REMARK    6  A    between atoms: C_15  and  C_16
REMARK    7  A    between atoms: C_15  and  O_17
REMARK    8  A    between atoms: C_21  and  C_22
REMARK    9  A    between atoms: C_27  and  C_28
REMARK                            x       y       z     vdW  Elec       q    Type
REMARK                         _______ _______ _______ _____ _____    ______ ____
ROOT
ATOM      1  C   UNL     1       0.471   8.590  21.780  0.00  0.00    +0.000 C 
ATOM      2  C   UNL     1       0.429   9.582  20.609  0.00  0.00    +0.000 C 
ENDROOT
BRANCH   2   3
ATOM      3  N   UNL     1       0.808  10.893  21.149  0.00  0.00    +0.000 N 
ATOM      4  C   UNL     1      -0.082  11.920  20.876  0.00  0.00    +0.000 A 
ATOM      5  N   UNL     1       0.469  13.079  20.507  0.00  0.00    +0.000 NA
ATOM      6  C   UNL     1      -0.369  14.091  20.222  0.00  0.00    +0.000 A 
ATOM      7  C   UNL     1      -1.732  13.970  20.249  0.00  0.00    +0.000 A 
ATOM      8  C   UNL     1      -2.205  12.752  20.678  0.00  0.00    +0.000 A 
ATOM      9  N   UNL     1      -1.398  11.732  21.039  0.00  0.00    +0.000 NA
ATOM     10  H   UNL     1       1.698  11.218  20.771  0.00  0.00    +0.000 HD
BRANCH   8  11
ATOM     11  N   UNL     1      -3.582  12.598  20.871  0.00  0.00    +0.000 N 
ATOM     12  C   UNL     1      -4.181  12.795  22.095  0.00  0.00    +0.000 C 
ATOM     13  O   UNL     1      -3.637  12.914  23.180  0.00  0.00    +0.000 OA
ATOM     14  O   UNL     1      -5.537  12.892  21.926  0.00  0.00    +0.000 OA
ATOM     15  C   UNL     1      -5.840  12.549  20.570  0.00  0.00    +0.000 C 
ATOM     16  C   UNL     1      -4.536  12.712  19.806  0.00  0.00    +0.000 C 
BRANCH  16  17
ATOM     17  C   UNL     1      -4.348  11.628  18.715  0.00  0.00    +0.000 C 
ATOM     18  C   UNL     1      -5.634  10.911  18.332  0.00  0.00    +0.000 C 
BRANCH  17  19
ATOM     19  O   UNL     1      -3.814  12.152  17.496  0.00  0.00    +0.000 OA
ATOM     20  H   UNL     1      -2.880  12.405  17.630  0.00  0.00    +0.000 HD
ENDBRANCH  17  19
ENDBRANCH  16  17
ENDBRANCH   8  11
ENDBRANCH   2   3
BRANCH   2  21
ATOM     21  C   UNL     1       1.323   9.071  19.516  0.00  0.00    +0.000 A 
ATOM     22  N   UNL     1       1.950   7.921  19.425  0.00  0.00    +0.000 NA
ATOM     23  C   UNL     1       2.539   8.004  18.178  0.00  0.00    +0.000 A 
ATOM     24  N   UNL     1       2.282   9.155  17.530  0.00  0.00    +0.000 NA
ATOM     25  O   UNL     1       1.473   9.860  18.416  0.00  0.00    +0.000 OA
BRANCH  23  26
ATOM     26  C   UNL     1       3.352   6.920  17.631  0.00  0.00    +0.000 A 
ATOM     27  C   UNL     1       4.468   7.181  16.832  0.00  0.00    +0.000 A 
ATOM     28  C   UNL     1       5.229   6.126  16.317  0.00  0.00    +0.000 A 
ATOM     29  C   UNL     1       4.886   4.796  16.587  0.00  0.00    +0.000 A 
ATOM     30 CL   UNL     1       5.905   3.588  15.898  0.00  0.00    +0.000 Cl
ATOM     31  C   UNL     1       3.768   4.502  17.374  0.00  0.00    +0.000 A 
ATOM     32  C   UNL     1       3.015   5.582  17.892  0.00  0.00    +0.000 A 
BRANCH  31  33
ATOM     33  C   UNL     1       3.307   3.110  17.729  0.00  0.00    +0.000 C 
ATOM     34  F   UNL     1       2.950   2.897  19.019  0.00  0.00    +0.000 F 
ATOM     35  F   UNL     1       2.230   2.729  16.983  0.00  0.00    +0.000 F 
ATOM     36  F   UNL     1       4.275   2.182  17.464  0.00  0.00    +0.000 F 
ENDBRANCH  31  33
ENDBRANCH  23  26
ENDBRANCH   2  21
TORSDOF 7
ENDMDL
MODEL 6
REMARK VINA RESULT:      -8.1      2.269      3.372
REMARK  Name = 
REMARK  9 active torsions:
REMARK  status: ('A' for Active; 'I' for Inactive)
REMARK    1  A    between atoms: C_1  and  C_2
REMARK    2  A    between atoms: C_2  and  N_3
REMARK    3  A    between atoms: C_2  and  C_19
REMARK    4  A    between atoms: C_8  and  N_9
REMARK    5  A    between atoms: C_14  and  C_15
REMARK    6  A    between atoms: C_15  and  C_16
REMARK    7  A    between atoms: C_15  and  O_17
REMARK    8  A    between atoms: C_21  and  C_22
REMARK    9  A    between atoms: C_27  and  C_28
REMARK                            x       y       z     vdW  Elec       q    Type
REMARK                         _______ _______ _______ _____ _____    ______ ____
ROOT
ATOM      1  C   UNL     1       0.944  12.086  20.255  0.00  0.00    +0.000 C 
ATOM      2  C   UNL     1       0.029  11.020  19.637  0.00  0.00    +0.000 C 
ENDROOT
BRANCH   2   3
ATOM      3  N   UNL     1      -0.381  11.523  18.321  0.00  0.00    +0.000 N 
ATOM      4  C   UNL     1      -1.748  11.541  18.098  0.00  0.00    +0.000 A 
ATOM      5  N   UNL     1      -2.145  11.113  16.897  0.00  0.00    +0.000 NA
ATOM      6  C   UNL     1      -3.467  11.105  16.656  0.00  0.00    +0.000 A 
ATOM      7  C   UNL     1      -4.404  11.466  17.586  0.00  0.00    +0.000 A 
ATOM      8  C   UNL     1      -3.899  11.929  18.779  0.00  0.00    +0.000 A 
ATOM      9  N   UNL     1      -2.578  12.017  19.036  0.00  0.00    +0.000 NA
ATOM     10  H   UNL     1      -0.006  10.953  17.562  0.00  0.00    +0.000 HD
BRANCH   8  11
ATOM     11  N   UNL     1      -4.788  12.452  19.724  0.00  0.00    +0.000 N 
ATOM     12  C   UNL     1      -4.470  13.531  20.516  0.00  0.00    +0.000 C 
ATOM     13  O   UNL     1      -3.374  14.042  20.674  0.00  0.00    +0.000 OA
ATOM     14  O   UNL     1      -5.610  14.016  21.101  0.00  0.00    +0.000 OA
ATOM     15  C   UNL     1      -6.672  13.095  20.832  0.00  0.00    +0.000 C 
ATOM     16  C   UNL     1      -6.210  12.275  19.639  0.00  0.00    +0.000 C 
BRANCH  16  17
ATOM     17  C   UNL     1      -6.636  10.789  19.739  0.00  0.00    +0.000 C 
ATOM     18  C   UNL     1      -7.630  10.508  20.855  0.00  0.00    +0.000 C 
BRANCH  17  19
ATOM     19  O   UNL     1      -7.246  10.303  18.541  0.00  0.00    +0.000 OA
ATOM     20  H   UNL     1      -6.923   9.399  18.352  0.00  0.00    +0.000 HD
ENDBRANCH  17  19
ENDBRANCH  16  17
ENDBRANCH   8  11
ENDBRANCH   2   3
BRANCH   2  21
ATOM     21  C   UNL     1       0.768   9.713  19.608  0.00  0.00    +0.000 A 
ATOM     22  N   UNL     1       1.384   9.129  18.607  0.00  0.00    +0.000 NA
ATOM     23  C   UNL     1       1.928   8.011  19.208  0.00  0.00    +0.000 A 
ATOM     24  N   UNL     1       1.659   7.913  20.523  0.00  0.00    +0.000 NA
ATOM     25  O   UNL     1       0.893   9.044  20.788  0.00  0.00    +0.000 OA
BRANCH  23  26
ATOM     26  C   UNL     1       2.729   7.042  18.462  0.00  0.00    +0.000 A 
ATOM     27  C   UNL     1       3.756   7.453  17.608  0.00  0.00    +0.000 A 
ATOM     28  C   UNL     1       4.508   6.507  16.902  0.00  0.00    +0.000 A 
ATOM     29  C   UNL     1       4.244   5.138  17.035  0.00  0.00    +0.000 A 
ATOM     30 CL   UNL     1       5.243   4.075  16.115  0.00  0.00    +0.000 Cl
ATOM     31  C   UNL     1       3.215   4.697  17.873  0.00  0.00    +0.000 A 
ATOM     32  C   UNL     1       2.471   5.667  18.584  0.00  0.00    +0.000 A 
BRANCH  31  33
ATOM     33  C   UNL     1       2.845   3.251  18.092  0.00  0.00    +0.000 C 
ATOM     34  F   UNL     1       3.832   2.426  18.518  0.00  0.00    +0.000 F 
ATOM     35  F   UNL     1       1.838   3.120  19.003  0.00  0.00    +0.000 F 
ATOM     36  F   UNL     1       2.368   2.679  16.945  0.00  0.00    +0.000 F 
ENDBRANCH  31  33
ENDBRANCH  23  26
ENDBRANCH   2  21
TORSDOF 7
ENDMDL
MODEL 7
REMARK VINA RESULT:      -8.1      1.990      2.728
REMARK  Name = 
REMARK  9 active torsions:
REMARK  status: ('A' for Active; 'I' for Inactive)
REMARK    1  A    between atoms: C_1  and  C_2
REMARK    2  A    between atoms: C_2  and  N_3
REMARK    3  A    between atoms: C_2  and  C_19
REMARK    4  A    between atoms: C_8  and  N_9
REMARK    5  A    between atoms: C_14  and  C_15
REMARK    6  A    between atoms: C_15  and  C_16
REMARK    7  A    between atoms: C_15  and  O_17
REMARK    8  A    between atoms: C_21  and  C_22
REMARK    9  A    between atoms: C_27  and  C_28
REMARK                            x       y       z     vdW  Elec       q    Type
REMARK                         _______ _______ _______ _____ _____    ______ ____
ROOT
ATOM      1  C   UNL     1       2.145  12.568  18.212  0.00  0.00    +0.000 C 
ATOM      2  C   UNL     1       0.967  11.784  18.806  0.00  0.00    +0.000 C 
ENDROOT
BRANCH   2   3
ATOM      3  N   UNL     1      -0.201  12.070  17.964  0.00  0.00    +0.000 N 
ATOM      4  C   UNL     1      -1.389  12.262  18.652  0.00  0.00    +0.000 A 
ATOM      5  N   UNL     1      -2.464  11.669  18.127  0.00  0.00    +0.000 NA
ATOM      6  C   UNL     1      -3.629  11.827  18.779  0.00  0.00    +0.000 A 
ATOM      7  C   UNL     1      -3.745  12.514  19.957  0.00  0.00    +0.000 A 
ATOM      8  C   UNL     1      -2.592  13.121  20.399  0.00  0.00    +0.000 A 
ATOM      9  N   UNL     1      -1.418  13.045  19.739  0.00  0.00    +0.000 NA
ATOM     10  H   UNL     1      -0.401  11.305  17.318  0.00  0.00    +0.000 HD
BRANCH   8  11
ATOM     11  N   UNL     1      -2.664  13.960  21.516  0.00  0.00    +0.000 N 
ATOM     12  C   UNL     1      -3.209  15.222  21.456  0.00  0.00    +0.000 C 
ATOM     13  O   UNL     1      -3.502  15.860  20.459  0.00  0.00    +0.000 OA
ATOM     14  O   UNL     1      -3.436  15.679  22.727  0.00  0.00    +0.000 OA
ATOM     15  C   UNL     1      -2.835  14.759  23.643  0.00  0.00    +0.000 C 
ATOM     16  C   UNL     1      -2.652  13.467  22.864  0.00  0.00    +0.000 C 
BRANCH  16  17
ATOM     17  C   UNL     1      -1.333  12.738  23.223  0.00  0.00    +0.000 C 
ATOM     18  C   UNL     1      -1.344  11.252  22.901  0.00  0.00    +0.000 C 
BRANCH  17  19
ATOM     19  O   UNL     1      -0.196  13.277  22.543  0.00  0.00    +0.000 OA
ATOM     20  H   UNL     1      -0.418  14.158  22.182  0.00  0.00    +0.000 HD
ENDBRANCH  17  19
ENDBRANCH  16  17
ENDBRANCH   8  11
ENDBRANCH   2   3
BRANCH   2  21
ATOM     21  C   UNL     1       1.346  10.333  18.883  0.00  0.00    +0.000 A 
ATOM     22  N   UNL     1       2.061   9.616  18.047  0.00  0.00    +0.000 NA
ATOM     23  C   UNL     1       2.127   8.395  18.688  0.00  0.00    +0.000 A 
ATOM     24  N   UNL     1       1.483   8.363  19.869  0.00  0.00    +0.000 NA
ATOM     25  O   UNL     1       0.968   9.650  19.999  0.00  0.00    +0.000 OA
BRANCH  23  26
ATOM     26  C   UNL     1       2.850   7.258  18.120  0.00  0.00    +0.000 A 
ATOM     27  C   UNL     1       4.005   7.440  17.356  0.00  0.00    +0.000 A 
ATOM     28  C   UNL     1       4.677   6.336  16.819  0.00  0.00    +0.000 A 
ATOM     29  C   UNL     1       4.205   5.036  17.033  0.00  0.00    +0.000 A 
ATOM     30 CL   UNL     1       5.124   3.762  16.323  0.00  0.00    +0.000 Cl
ATOM     31  C   UNL     1       3.045   4.823  17.785  0.00  0.00    +0.000 A 
ATOM     32  C   UNL     1       2.383   5.950  18.325  0.00  0.00    +0.000 A 
BRANCH  31  33
ATOM     33  C   UNL     1       2.448   3.469  18.079  0.00  0.00    +0.000 C 
ATOM     34  F   UNL     1       3.122   2.682  18.952  0.00  0.00    +0.000 F 
ATOM     35  F   UNL     1       1.183   3.573  18.580  0.00  0.00    +0.000 F 
ATOM     36  F   UNL     1       2.323   2.720  16.941  0.00  0.00    +0.000 F 
ENDBRANCH  31  33
ENDBRANCH  23  26
ENDBRANCH   2  21
TORSDOF 7
ENDMDL
MODEL 8
REMARK VINA RESULT:      -8.1      2.375      2.985
REMARK  Name = 
REMARK  9 active torsions:
REMARK  status: ('A' for Active; 'I' for Inactive)
REMARK    1  A    between atoms: C_1  and  C_2
REMARK    2  A    between atoms: C_2  and  N_3
REMARK    3  A    between atoms: C_2  and  C_19
REMARK    4  A    between atoms: C_8  and  N_9
REMARK    5  A    between atoms: C_14  and  C_15
REMARK    6  A    between atoms: C_15  and  C_16
REMARK    7  A    between atoms: C_15  and  O_17
REMARK    8  A    between atoms: C_21  and  C_22
REMARK    9  A    between atoms: C_27  and  C_28
REMARK                            x       y       z     vdW  Elec       q    Type
REMARK                         _______ _______ _______ _____ _____    ______ ____
ROOT
ATOM      1  C   UNL     1       1.473  12.594  19.025  0.00  0.00    +0.000 C 
ATOM      2  C   UNL     1       0.470  11.439  18.916  0.00  0.00    +0.000 C 
ENDROOT
BRANCH   2   3
ATOM      3  N   UNL     1      -0.498  11.813  17.877  0.00  0.00    +0.000 N 
ATOM      4  C   UNL     1      -1.815  11.890  18.301  0.00  0.00    +0.000 A 
ATOM      5  N   UNL     1      -2.719  11.353  17.479  0.00  0.00    +0.000 NA
ATOM      6  C   UNL     1      -4.005  11.401  17.869  0.00  0.00    +0.000 A 
ATOM      7  C   UNL     1      -4.409  11.922  19.069  0.00  0.00    +0.000 A 
ATOM      8  C   UNL     1      -3.411  12.485  19.830  0.00  0.00    +0.000 A 
ATOM      9  N   UNL     1      -2.119  12.520  19.444  0.00  0.00    +0.000 NA
ATOM     10  H   UNL     1      -0.515  11.138  17.111  0.00  0.00    +0.000 HD
BRANCH   8  11
ATOM     11  N   UNL     1      -3.765  13.166  20.999  0.00  0.00    +0.000 N 
ATOM     12  C   UNL     1      -4.723  14.153  21.016  0.00  0.00    +0.000 C 
ATOM     13  O   UNL     1      -5.235  14.712  20.060  0.00  0.00    +0.000 OA
ATOM     14  O   UNL     1      -5.086  14.411  22.312  0.00  0.00    +0.000 OA
ATOM     15  C   UNL     1      -4.187  13.705  23.173  0.00  0.00    +0.000 C 
ATOM     16  C   UNL     1      -3.564  12.619  22.311  0.00  0.00    +0.000 C 
BRANCH  16  17
ATOM     17  C   UNL     1      -2.069  12.384  22.640  0.00  0.00    +0.000 C 
ATOM     18  C   UNL     1      -1.426  13.518  23.423  0.00  0.00    +0.000 C 
BRANCH  17  19
ATOM     19  O   UNL     1      -1.848  11.201  23.413  0.00  0.00    +0.000 OA
ATOM     20  H   UNL     1      -2.326  11.271  24.263  0.00  0.00    +0.000 HD
ENDBRANCH  17  19
ENDBRANCH  16  17
ENDBRANCH   8  11
ENDBRANCH   2   3
BRANCH   2  21
ATOM     21  C   UNL     1       1.227  10.171  18.641  0.00  0.00    +0.000 A 
ATOM     22  N   UNL     1       1.320   9.085  19.372  0.00  0.00    +0.000 NA
ATOM     23  C   UNL     1       2.076   8.253  18.570  0.00  0.00    +0.000 A 
ATOM     24  N   UNL     1       2.430   8.804  17.394  0.00  0.00    +0.000 NA
ATOM     25  O   UNL     1       1.863  10.074  17.441  0.00  0.00    +0.000 OA
BRANCH  23  26
ATOM     26  C   UNL     1       2.436   6.897  18.979  0.00  0.00    +0.000 A 
ATOM     27  C   UNL     1       1.987   6.359  20.188  0.00  0.00    +0.000 A 
ATOM     28  C   UNL     1       2.348   5.059  20.559  0.00  0.00    +0.000 A 
ATOM     29  C   UNL     1       3.164   4.277  19.733  0.00  0.00    +0.000 A 
ATOM     30 CL   UNL     1       3.532   2.692  20.300  0.00  0.00    +0.000 Cl
ATOM     31  C   UNL     1       3.637   4.792  18.521  0.00  0.00    +0.000 A 
ATOM     32  C   UNL     1       3.256   6.105  18.159  0.00  0.00    +0.000 A 
BRANCH  31  33
ATOM     33  C   UNL     1       4.519   4.041  17.554  0.00  0.00    +0.000 C 
ATOM     34  F   UNL     1       4.161   2.766  17.267  0.00  0.00    +0.000 F 
ATOM     35  F   UNL     1       4.605   4.678  16.351  0.00  0.00    +0.000 F 
ATOM     36  F   UNL     1       5.805   3.959  18.011  0.00  0.00    +0.000 F 
ENDBRANCH  31  33
ENDBRANCH  23  26
ENDBRANCH   2  21
TORSDOF 7
ENDMDL
MODEL 9
REMARK VINA RESULT:      -8.1      2.803      3.534
REMARK  Name = 
REMARK  9 active torsions:
REMARK  status: ('A' for Active; 'I' for Inactive)
REMARK    1  A    between atoms: C_1  and  C_2
REMARK    2  A    between atoms: C_2  and  N_3
REMARK    3  A    between atoms: C_2  and  C_19
REMARK    4  A    between atoms: C_8  and  N_9
REMARK    5  A    between atoms: C_14  and  C_15
REMARK    6  A    between atoms: C_15  and  C_16
REMARK    7  A    between atoms: C_15  and  O_17
REMARK    8  A    between atoms: C_21  and  C_22
REMARK    9  A    between atoms: C_27  and  C_28
REMARK                            x       y       z     vdW  Elec       q    Type
REMARK                         _______ _______ _______ _____ _____    ______ ____
ROOT
ATOM      1  C   UNL     1      -0.098  11.991  20.046  0.00  0.00    +0.000 C 
ATOM      2  C   UNL     1      -0.581  10.951  19.027  0.00  0.00    +0.000 C 
ENDROOT
BRANCH   2   3
ATOM      3  N   UNL     1      -1.084  11.695  17.865  0.00  0.00    +0.000 N 
ATOM      4  C   UNL     1      -2.447  11.590  17.645  0.00  0.00    +0.000 A 
ATOM      5  N   UNL     1      -2.817  11.412  16.375  0.00  0.00    +0.000 NA
ATOM      6  C   UNL     1      -4.133  11.293  16.131  0.00  0.00    +0.000 A 
ATOM      7  C   UNL     1      -5.085  11.300  17.115  0.00  0.00    +0.000 A 
ATOM      8  C   UNL     1      -4.612  11.527  18.387  0.00  0.00    +0.000 A 
ATOM      9  N   UNL     1      -3.306  11.720  18.666  0.00  0.00    +0.000 NA
ATOM     10  H   UNL     1      -0.659  11.374  16.995  0.00  0.00    +0.000 HD
BRANCH   8  11
ATOM     11  N   UNL     1      -5.536  11.693  19.425  0.00  0.00    +0.000 N 
ATOM     12  C   UNL     1      -6.405  10.697  19.804  0.00  0.00    +0.000 C 
ATOM     13  O   UNL     1      -6.653   9.659  19.212  0.00  0.00    +0.000 OA
ATOM     14  O   UNL     1      -6.953  11.011  21.019  0.00  0.00    +0.000 OA
ATOM     15  C   UNL     1      -6.573  12.351  21.344  0.00  0.00    +0.000 C 
ATOM     16  C   UNL     1      -5.362  12.654  20.477  0.00  0.00    +0.000 C 
BRANCH  16  17
ATOM     17  C   UNL     1      -5.352  14.114  19.959  0.00  0.00    +0.000 C 
ATOM     18  C   UNL     1      -6.588  14.912  20.345  0.00  0.00    +0.000 C 
BRANCH  17  19
ATOM     19  O   UNL     1      -4.235  14.867  20.438  0.00  0.00    +0.000 OA
ATOM     20  H   UNL     1      -3.837  15.369  19.700  0.00  0.00    +0.000 HD
ENDBRANCH  17  19
ENDBRANCH  16  17
ENDBRANCH   8  11
ENDBRANCH   2   3
BRANCH   2  21
ATOM     21  C   UNL     1       0.551  10.010  18.728  0.00  0.00    +0.000 A 
ATOM     22  N   UNL     1       0.805   8.828  19.237  0.00  0.00    +0.000 NA
ATOM     23  C   UNL     1       1.918   8.431  18.523  0.00  0.00    +0.000 A 
ATOM     24  N   UNL     1       2.329   9.331  17.611  0.00  0.00    +0.000 NA
ATOM     25  O   UNL     1       1.420  10.377  17.745  0.00  0.00    +0.000 OA
BRANCH  23  26
ATOM     26  C   UNL     1       2.564   7.139  18.747  0.00  0.00    +0.000 A 
ATOM     27  C   UNL     1       2.334   6.404  19.912  0.00  0.00    +0.000 A 
ATOM     28  C   UNL     1       2.968   5.171  20.105  0.00  0.00    +0.000 A 
ATOM     29  C   UNL     1       3.842   4.656  19.142  0.00  0.00    +0.000 A 
ATOM     30 CL   UNL     1       4.556   3.127  19.496  0.00  0.00    +0.000 Cl
ATOM     31  C   UNL     1       4.102   5.374  17.970  0.00  0.00    +0.000 A 
ATOM     32  C   UNL     1       3.447   6.615  17.789  0.00  0.00    +0.000 A 
BRANCH  31  33
ATOM     33  C   UNL     1       5.023   4.916  16.867  0.00  0.00    +0.000 C 
ATOM     34  F   UNL     1       4.736   3.725  16.287  0.00  0.00    +0.000 F 
ATOM     35  F   UNL     1       5.075   5.819  15.845  0.00  0.00    +0.000 F 
ATOM     36  F   UNL     1       6.312   4.800  17.309  0.00  0.00    +0.000 F 
ENDBRANCH  31  33
ENDBRANCH  23  26
ENDBRANCH   2  21
TORSDOF 7
ENDMDL
