MODEL 1
REMARK VINA RESULT:      -8.4      0.000      0.000
REMARK  Name = 
REMARK  11 active torsions:
REMARK  status: ('A' for Active; 'I' for Inactive)
REMARK    1  A    between atoms: C_1  and  C_2
REMARK    2  A    between atoms: C_4  and  C_5
REMARK    3  A    between atoms: C_5  and  N_6
REMARK    4  A    between atoms: C_7  and  C_9
REMARK    5  A    between atoms: C_11  and  C_12
REMARK    6  A    between atoms: C_12  and  N_13
REMARK    7  A    between atoms: C_12  and  C_28
REMARK    8  A    between atoms: N_13  and  P_14
REMARK    9  A    between atoms: P_14  and  C_16
REMARK   10  A    between atoms: P_14  and  C_22
REMARK   11  A    between atoms: N_35  and  C_36
REMARK                            x       y       z     vdW  Elec       q    Type
REMARK                         _______ _______ _______ _____ _____    ______ ____
ROOT
ATOM      1  C   UNL     1       2.662   6.492  18.736  0.00  0.00    +0.000 C 
ENDROOT
BRANCH   1   2
ATOM      2  C   UNL     1       1.969   5.367  19.507  0.00  0.00    +0.000 A 
ATOM      3  C   UNL     1       2.291   5.175  20.869  0.00  0.00    +0.000 A 
ATOM      4  C   UNL     1       1.988   3.977  21.508  0.00  0.00    +0.000 A 
ATOM      5  C   UNL     1       1.293   2.989  20.820  0.00  0.00    +0.000 A 
ATOM      6  C   UNL     1       0.827   3.232  19.530  0.00  0.00    +0.000 A 
ATOM      7  C   UNL     1       1.140   4.429  18.884  0.00  0.00    +0.000 A 
ENDBRANCH   1   2
BRANCH   1  10
ATOM      8  C   UNL     1       1.660   8.884  19.299  0.00  0.00    +0.000 C 
ATOM      9  C   UNL     1       2.216   8.976  17.903  0.00  0.00    +0.000 C 
ATOM     10  C   UNL     1       1.716   7.639  18.414  0.00  0.00    +0.000 C 
BRANCH   8  12
ATOM     11  N   UNL     1       0.225  10.815  18.794  0.00  0.00    +0.000 N 
ATOM     12  C   UNL     1       0.468   9.746  19.603  0.00  0.00    +0.000 C 
ATOM     13  O   UNL     1      -0.222   9.458  20.575  0.00  0.00    +0.000 OA
ATOM     14  H   UNL     1       0.784  10.992  17.976  0.00  0.00    +0.000 HD
BRANCH  11  15
ATOM     15  C   UNL     1      -0.882  11.726  19.057  0.00  0.00    +0.000 C 
BRANCH  15  19
ATOM     16  C   UNL     1      -3.753  10.313  15.060  0.00  0.00    +0.000 C 
ATOM     17  C   UNL     1      -3.204  10.843  16.333  0.00  0.00    +0.000 A 
ATOM     18  C   UNL     1      -1.921  10.832  16.836  0.00  0.00    +0.000 A 
ATOM     19  C   UNL     1      -1.997  11.494  18.085  0.00  0.00    +0.000 A 
ATOM     20  N   UNL     1      -3.248  11.898  18.348  0.00  0.00    +0.000 NA
ATOM     21  N   UNL     1      -3.960  11.482  17.280  0.00  0.00    +0.000 N 
ATOM     22  C   UNL     1      -5.382  11.734  17.231  0.00  0.00    +0.000 C 
ENDBRANCH  15  19
ENDBRANCH  11  15
ENDBRANCH   8  12
ENDBRANCH   1  10
BRANCH   1  23
ATOM     23  N   UNL     1       3.297   5.840  17.582  0.00  0.00    +0.000 NA
ATOM     24  H   UNL     1       2.594   5.229  17.171  0.00  0.00    +0.000 HD
BRANCH  23  25
ATOM     25  P   UNL     1       4.811   5.240  17.453  0.00  0.00    +0.000 P 
ATOM     26  O   UNL     1       5.839   6.070  18.182  0.00  0.00    +0.000 OA
BRANCH  25  27
ATOM     27  C   UNL     1       4.624   3.622  18.236  0.00  0.00    +0.000 A 
ATOM     28  C   UNL     1       5.054   3.316  19.541  0.00  0.00    +0.000 A 
ATOM     29  C   UNL     1       4.722   2.077  20.092  0.00  0.00    +0.000 A 
ATOM     30  C   UNL     1       3.963   1.161  19.365  0.00  0.00    +0.000 A 
ATOM     31  C   UNL     1       3.551   1.456  18.065  0.00  0.00    +0.000 A 
ATOM     32  C   UNL     1       3.897   2.681  17.503  0.00  0.00    +0.000 A 
ENDBRANCH  25  27
BRANCH  25  33
ATOM     33  C   UNL     1       5.484   4.806  15.840  0.00  0.00    +0.000 A 
ATOM     34  C   UNL     1       4.933   4.209  14.709  0.00  0.00    +0.000 A 
ATOM     35  C   UNL     1       5.725   4.073  13.537  0.00  0.00    +0.000 A 
ATOM     36  C   UNL     1       7.049   4.520  13.492  0.00  0.00    +0.000 A 
ATOM     37  C   UNL     1       7.612   5.103  14.611  0.00  0.00    +0.000 A 
ATOM     38  C   UNL     1       6.839   5.242  15.750  0.00  0.00    +0.000 A 
ENDBRANCH  25  33
ENDBRANCH  23  25
ENDBRANCH   1  23
TORSDOF 9
ENDMDL
MODEL 2
REMARK VINA RESULT:      -8.4      1.739      3.173
REMARK  Name = 
REMARK  11 active torsions:
REMARK  status: ('A' for Active; 'I' for Inactive)
REMARK    1  A    between atoms: C_1  and  C_2
REMARK    2  A    between atoms: C_4  and  C_5
REMARK    3  A    between atoms: C_5  and  N_6
REMARK    4  A    between atoms: C_7  and  C_9
REMARK    5  A    between atoms: C_11  and  C_12
REMARK    6  A    between atoms: C_12  and  N_13
REMARK    7  A    between atoms: C_12  and  C_28
REMARK    8  A    between atoms: N_13  and  P_14
REMARK    9  A    between atoms: P_14  and  C_16
REMARK   10  A    between atoms: P_14  and  C_22
REMARK   11  A    between atoms: N_35  and  C_36
REMARK                            x       y       z     vdW  Elec       q    Type
REMARK                         _______ _______ _______ _____ _____    ______ ____
ROOT
ATOM      1  C   UNL     1       2.902   6.063  18.655  0.00  0.00    +0.000 C 
ENDROOT
BRANCH   1   2
ATOM      2  C   UNL     1       2.033   4.929  19.204  0.00  0.00    +0.000 A 
ATOM      3  C   UNL     1       1.936   4.760  20.603  0.00  0.00    +0.000 A 
ATOM      4  C   UNL     1       1.483   3.561  21.144  0.00  0.00    +0.000 A 
ATOM      5  C   UNL     1       1.047   2.548  20.297  0.00  0.00    +0.000 A 
ATOM      6  C   UNL     1       0.983   2.765  18.923  0.00  0.00    +0.000 A 
ATOM      7  C   UNL     1       1.450   3.962  18.378  0.00  0.00    +0.000 A 
ENDBRANCH   1   2
BRANCH   1  10
ATOM      8  C   UNL     1       2.341   8.657  18.703  0.00  0.00    +0.000 C 
ATOM      9  C   UNL     1       2.641   8.315  17.268  0.00  0.00    +0.000 C 
ATOM     10  C   UNL     1       2.071   7.247  18.180  0.00  0.00    +0.000 C 
BRANCH   8  12
ATOM     11  N   UNL     1       0.111   9.421  19.399  0.00  0.00    +0.000 N 
ATOM     12  C   UNL     1       1.347   9.759  18.936  0.00  0.00    +0.000 C 
ATOM     13  O   UNL     1       1.688  10.909  18.682  0.00  0.00    +0.000 OA
ATOM     14  H   UNL     1      -0.118   8.472  19.643  0.00  0.00    +0.000 HD
BRANCH  11  15
ATOM     15  C   UNL     1      -0.922  10.430  19.599  0.00  0.00    +0.000 C 
BRANCH  15  19
ATOM     16  C   UNL     1      -3.057   9.924  14.973  0.00  0.00    +0.000 C 
ATOM     17  C   UNL     1      -2.699  10.263  16.372  0.00  0.00    +0.000 A 
ATOM     18  C   UNL     1      -1.617   9.891  17.141  0.00  0.00    +0.000 A 
ATOM     19  C   UNL     1      -1.801  10.529  18.391  0.00  0.00    +0.000 A 
ATOM     20  N   UNL     1      -2.926  11.259  18.404  0.00  0.00    +0.000 NA
ATOM     21  N   UNL     1      -3.456  11.071  17.178  0.00  0.00    +0.000 N 
ATOM     22  C   UNL     1      -4.708  11.706  16.838  0.00  0.00    +0.000 C 
ENDBRANCH  15  19
ENDBRANCH  11  15
ENDBRANCH   8  12
ENDBRANCH   1  10
BRANCH   1  23
ATOM     23  N   UNL     1       3.767   5.438  17.645  0.00  0.00    +0.000 NA
ATOM     24  H   UNL     1       3.199   4.741  17.168  0.00  0.00    +0.000 HD
BRANCH  23  25
ATOM     25  P   UNL     1       5.334   4.997  17.774  0.00  0.00    +0.000 P 
ATOM     26  O   UNL     1       5.542   3.819  18.695  0.00  0.00    +0.000 OA
BRANCH  25  27
ATOM     27  C   UNL     1       5.724   4.550  16.067  0.00  0.00    +0.000 A 
ATOM     28  C   UNL     1       4.776   4.111  15.124  0.00  0.00    +0.000 A 
ATOM     29  C   UNL     1       5.170   3.938  13.795  0.00  0.00    +0.000 A 
ATOM     30  C   UNL     1       6.481   4.209  13.407  0.00  0.00    +0.000 A 
ATOM     31  C   UNL     1       7.426   4.628  14.344  0.00  0.00    +0.000 A 
ATOM     32  C   UNL     1       7.044   4.781  15.673  0.00  0.00    +0.000 A 
ENDBRANCH  25  27
BRANCH  25  33
ATOM     33  C   UNL     1       6.599   6.225  18.143  0.00  0.00    +0.000 A 
ATOM     34  C   UNL     1       7.723   6.215  18.965  0.00  0.00    +0.000 A 
ATOM     35  C   UNL     1       8.586   7.343  18.979  0.00  0.00    +0.000 A 
ATOM     36  C   UNL     1       8.334   8.468  18.187  0.00  0.00    +0.000 A 
ATOM     37  C   UNL     1       7.216   8.497  17.377  0.00  0.00    +0.000 A 
ATOM     38  C   UNL     1       6.378   7.395  17.359  0.00  0.00    +0.000 A 
ENDBRANCH  25  33
ENDBRANCH  23  25
ENDBRANCH   1  23
TORSDOF 9
ENDMDL
MODEL 3
REMARK VINA RESULT:      -8.3      1.568      2.437
REMARK  Name = 
REMARK  11 active torsions:
REMARK  status: ('A' for Active; 'I' for Inactive)
REMARK    1  A    between atoms: C_1  and  C_2
REMARK    2  A    between atoms: C_4  and  C_5
REMARK    3  A    between atoms: C_5  and  N_6
REMARK    4  A    between atoms: C_7  and  C_9
REMARK    5  A    between atoms: C_11  and  C_12
REMARK    6  A    between atoms: C_12  and  N_13
REMARK    7  A    between atoms: C_12  and  C_28
REMARK    8  A    between atoms: N_13  and  P_14
REMARK    9  A    between atoms: P_14  and  C_16
REMARK   10  A    between atoms: P_14  and  C_22
REMARK   11  A    between atoms: N_35  and  C_36
REMARK                            x       y       z     vdW  Elec       q    Type
REMARK                         _______ _______ _______ _____ _____    ______ ____
ROOT
ATOM      1  C   UNL     1       3.312   6.001  18.322  0.00  0.00    +0.000 C 
ENDROOT
BRANCH   1   2
ATOM      2  C   UNL     1       2.851   4.792  19.139  0.00  0.00    +0.000 A 
ATOM      3  C   UNL     1       3.173   3.496  18.681  0.00  0.00    +0.000 A 
ATOM      4  C   UNL     1       2.486   2.383  19.157  0.00  0.00    +0.000 A 
ATOM      5  C   UNL     1       1.528   2.543  20.152  0.00  0.00    +0.000 A 
ATOM      6  C   UNL     1       1.320   3.794  20.728  0.00  0.00    +0.000 A 
ATOM      7  C   UNL     1       1.999   4.913  20.242  0.00  0.00    +0.000 A 
ENDBRANCH   1   2
BRANCH   1  10
ATOM      8  C   UNL     1       2.164   8.244  19.157  0.00  0.00    +0.000 C 
ATOM      9  C   UNL     1       2.525   8.465  17.712  0.00  0.00    +0.000 C 
ATOM     10  C   UNL     1       2.226   7.059  18.194  0.00  0.00    +0.000 C 
BRANCH   8  12
ATOM     11  N   UNL     1       0.374   9.901  18.855  0.00  0.00    +0.000 N 
ATOM     12  C   UNL     1       0.943   8.960  19.659  0.00  0.00    +0.000 C 
ATOM     13  O   UNL     1       0.525   8.677  20.777  0.00  0.00    +0.000 OA
ATOM     14  H   UNL     1       0.715  10.071  17.923  0.00  0.00    +0.000 HD
BRANCH  11  15
ATOM     15  C   UNL     1      -0.781  10.673  19.296  0.00  0.00    +0.000 C 
BRANCH  15  19
ATOM     16  C   UNL     1      -3.499  10.057  15.001  0.00  0.00    +0.000 C 
ATOM     17  C   UNL     1      -2.966  10.422  16.336  0.00  0.00    +0.000 A 
ATOM     18  C   UNL     1      -1.782  10.086  16.958  0.00  0.00    +0.000 A 
ATOM     19  C   UNL     1      -1.816  10.735  18.215  0.00  0.00    +0.000 A 
ATOM     20  N   UNL     1      -2.947  11.437  18.372  0.00  0.00    +0.000 NA
ATOM     21  N   UNL     1      -3.630  11.221  17.228  0.00  0.00    +0.000 N 
ATOM     22  C   UNL     1      -4.933  11.821  17.053  0.00  0.00    +0.000 C 
ENDBRANCH  15  19
ENDBRANCH  11  15
ENDBRANCH   8  12
ENDBRANCH   1  10
BRANCH   1  23
ATOM     23  N   UNL     1       3.823   5.447  17.060  0.00  0.00    +0.000 NA
ATOM     24  H   UNL     1       3.884   4.439  17.190  0.00  0.00    +0.000 HD
BRANCH  23  25
ATOM     25  P   UNL     1       4.997   6.033  16.089  0.00  0.00    +0.000 P 
ATOM     26  O   UNL     1       4.682   7.404  15.542  0.00  0.00    +0.000 OA
BRANCH  25  27
ATOM     27  C   UNL     1       6.401   6.105  17.225  0.00  0.00    +0.000 A 
ATOM     28  C   UNL     1       7.159   7.264  17.479  0.00  0.00    +0.000 A 
ATOM     29  C   UNL     1       8.125   7.235  18.487  0.00  0.00    +0.000 A 
ATOM     30  C   UNL     1       8.324   6.080  19.242  0.00  0.00    +0.000 A 
ATOM     31  C   UNL     1       7.584   4.926  18.980  0.00  0.00    +0.000 A 
ATOM     32  C   UNL     1       6.637   4.942  17.962  0.00  0.00    +0.000 A 
ENDBRANCH  25  27
BRANCH  25  33
ATOM     33  C   UNL     1       5.650   5.031  14.742  0.00  0.00    +0.000 A 
ATOM     34  C   UNL     1       5.118   3.987  13.989  0.00  0.00    +0.000 A 
ATOM     35  C   UNL     1       5.876   3.444  12.917  0.00  0.00    +0.000 A 
ATOM     36  C   UNL     1       7.148   3.930  12.601  0.00  0.00    +0.000 A 
ATOM     37  C   UNL     1       7.694   4.957  13.347  0.00  0.00    +0.000 A 
ATOM     38  C   UNL     1       6.953   5.490  14.387  0.00  0.00    +0.000 A 
ENDBRANCH  25  33
ENDBRANCH  23  25
ENDBRANCH   1  23
TORSDOF 9
ENDMDL
MODEL 4
REMARK VINA RESULT:      -8.3      1.714      3.267
REMARK  Name = 
REMARK  11 active torsions:
REMARK  status: ('A' for Active; 'I' for Inactive)
REMARK    1  A    between atoms: C_1  and  C_2
REMARK    2  A    between atoms: C_4  and  C_5
REMARK    3  A    between atoms: C_5  and  N_6
REMARK    4  A    between atoms: C_7  and  C_9
REMARK    5  A    between atoms: C_11  and  C_12
REMARK    6  A    between atoms: C_12  and  N_13
REMARK    7  A    between atoms: C_12  and  C_28
REMARK    8  A    between atoms: N_13  and  P_14
REMARK    9  A    between atoms: P_14  and  C_16
REMARK   10  A    between atoms: P_14  and  C_22
REMARK   11  A    between atoms: N_35  and  C_36
REMARK                            x       y       z     vdW  Elec       q    Type
REMARK                         _______ _______ _______ _____ _____    ______ ____
ROOT
ATOM      1  C   UNL     1       2.825   6.017  18.649  0.00  0.00    +0.000 C 
ENDROOT
BRANCH   1   2
ATOM      2  C   UNL     1       1.962   4.814  19.034  0.00  0.00    +0.000 A 
ATOM      3  C   UNL     1       1.654   4.604  20.396  0.00  0.00    +0.000 A 
ATOM      4  C   UNL     1       1.204   3.364  20.839  0.00  0.00    +0.000 A 
ATOM      5  C   UNL     1       0.984   2.346  19.919  0.00  0.00    +0.000 A 
ATOM      6  C   UNL     1       1.127   2.592  18.556  0.00  0.00    +0.000 A 
ATOM      7  C   UNL     1       1.589   3.831  18.110  0.00  0.00    +0.000 A 
ENDBRANCH   1   2
BRANCH   1  10
ATOM      8  C   UNL     1       2.089   8.530  19.083  0.00  0.00    +0.000 C 
ATOM      9  C   UNL     1       2.600   8.477  17.668  0.00  0.00    +0.000 C 
ATOM     10  C   UNL     1       1.987   7.233  18.281  0.00  0.00    +0.000 C 
BRANCH   8  12
ATOM     11  N   UNL     1       0.855  10.577  18.510  0.00  0.00    +0.000 N 
ATOM     12  C   UNL     1       1.001   9.527  19.365  0.00  0.00    +0.000 C 
ATOM     13  O   UNL     1       0.307   9.359  20.362  0.00  0.00    +0.000 OA
ATOM     14  H   UNL     1       1.411  10.655  17.674  0.00  0.00    +0.000 HD
BRANCH  11  15
ATOM     15  C   UNL     1      -0.144  11.612  18.747  0.00  0.00    +0.000 C 
BRANCH  15  19
ATOM     16  C   UNL     1      -5.060  11.163  17.390  0.00  0.00    +0.000 C 
ATOM     17  C   UNL     1      -3.583  11.111  17.515  0.00  0.00    +0.000 A 
ATOM     18  C   UNL     1      -2.739  11.648  18.463  0.00  0.00    +0.000 A 
ATOM     19  C   UNL     1      -1.434  11.261  18.073  0.00  0.00    +0.000 A 
ATOM     20  N   UNL     1      -1.458  10.524  16.953  0.00  0.00    +0.000 NA
ATOM     21  N   UNL     1      -2.767  10.459  16.630  0.00  0.00    +0.000 N 
ATOM     22  C   UNL     1      -3.171   9.743  15.442  0.00  0.00    +0.000 C 
ENDBRANCH  15  19
ENDBRANCH  11  15
ENDBRANCH   8  12
ENDBRANCH   1  10
BRANCH   1  23
ATOM     23  N   UNL     1       3.737   5.526  17.606  0.00  0.00    +0.000 NA
ATOM     24  H   UNL     1       3.189   4.912  17.007  0.00  0.00    +0.000 HD
BRANCH  23  25
ATOM     25  P   UNL     1       5.291   5.045  17.753  0.00  0.00    +0.000 P 
ATOM     26  O   UNL     1       5.458   3.860  18.672  0.00  0.00    +0.000 OA
BRANCH  25  27
ATOM     27  C   UNL     1       5.690   4.593  16.049  0.00  0.00    +0.000 A 
ATOM     28  C   UNL     1       4.743   4.173  15.096  0.00  0.00    +0.000 A 
ATOM     29  C   UNL     1       5.147   3.994  13.771  0.00  0.00    +0.000 A 
ATOM     30  C   UNL     1       6.467   4.243  13.396  0.00  0.00    +0.000 A 
ATOM     31  C   UNL     1       7.410   4.643  14.343  0.00  0.00    +0.000 A 
ATOM     32  C   UNL     1       7.018   4.801  15.668  0.00  0.00    +0.000 A 
ENDBRANCH  25  27
BRANCH  25  33
ATOM     33  C   UNL     1       6.582   6.240  18.141  0.00  0.00    +0.000 A 
ATOM     34  C   UNL     1       7.706   6.192  18.962  0.00  0.00    +0.000 A 
ATOM     35  C   UNL     1       8.594   7.301  18.993  0.00  0.00    +0.000 A 
ATOM     36  C   UNL     1       8.365   8.443  18.220  0.00  0.00    +0.000 A 
ATOM     37  C   UNL     1       7.248   8.509  17.411  0.00  0.00    +0.000 A 
ATOM     38  C   UNL     1       6.386   7.426  17.375  0.00  0.00    +0.000 A 
ENDBRANCH  25  33
ENDBRANCH  23  25
ENDBRANCH   1  23
TORSDOF 9
ENDMDL
MODEL 5
REMARK VINA RESULT:      -8.3      1.748      3.309
REMARK  Name = 
REMARK  11 active torsions:
REMARK  status: ('A' for Active; 'I' for Inactive)
REMARK    1  A    between atoms: C_1  and  C_2
REMARK    2  A    between atoms: C_4  and  C_5
REMARK    3  A    between atoms: C_5  and  N_6
REMARK    4  A    between atoms: C_7  and  C_9
REMARK    5  A    between atoms: C_11  and  C_12
REMARK    6  A    between atoms: C_12  and  N_13
REMARK    7  A    between atoms: C_12  and  C_28
REMARK    8  A    between atoms: N_13  and  P_14
REMARK    9  A    between atoms: P_14  and  C_16
REMARK   10  A    between atoms: P_14  and  C_22
REMARK   11  A    between atoms: N_35  and  C_36
REMARK                            x       y       z     vdW  Elec       q    Type
REMARK                         _______ _______ _______ _____ _____    ______ ____
ROOT
ATOM      1  C   UNL     1       3.185   5.679  18.819  0.00  0.00    +0.000 C 
ENDROOT
BRANCH   1   2
ATOM      2  C   UNL     1       2.515   4.369  19.239  0.00  0.00    +0.000 A 
ATOM      3  C   UNL     1       1.889   3.576  18.252  0.00  0.00    +0.000 A 
ATOM      4  C   UNL     1       0.968   2.596  18.607  0.00  0.00    +0.000 A 
ATOM      5  C   UNL     1       0.720   2.343  19.952  0.00  0.00    +0.000 A 
ATOM      6  C   UNL     1       1.453   3.005  20.934  0.00  0.00    +0.000 A 
ATOM      7  C   UNL     1       2.368   3.997  20.580  0.00  0.00    +0.000 A 
ENDBRANCH   1   2
BRANCH   1  10
ATOM      8  C   UNL     1       2.212   8.079  19.399  0.00  0.00    +0.000 C 
ATOM      9  C   UNL     1       2.567   8.109  17.936  0.00  0.00    +0.000 C 
ATOM     10  C   UNL     1       2.175   6.792  18.577  0.00  0.00    +0.000 C 
BRANCH   8  12
ATOM     11  N   UNL     1       0.469   9.736  18.888  0.00  0.00    +0.000 N 
ATOM     12  C   UNL     1       1.052   8.935  19.823  0.00  0.00    +0.000 C 
ATOM     13  O   UNL     1       0.695   8.885  20.995  0.00  0.00    +0.000 OA
ATOM     14  H   UNL     1       0.757   9.714  17.924  0.00  0.00    +0.000 HD
BRANCH  11  15
ATOM     15  C   UNL     1      -0.626  10.632  19.239  0.00  0.00    +0.000 C 
BRANCH  15  19
ATOM     16  C   UNL     1      -3.286   9.915  14.923  0.00  0.00    +0.000 C 
ATOM     17  C   UNL     1      -2.770  10.312  16.256  0.00  0.00    +0.000 A 
ATOM     18  C   UNL     1      -1.597   9.988  16.903  0.00  0.00    +0.000 A 
ATOM     19  C   UNL     1      -1.645  10.670  18.142  0.00  0.00    +0.000 A 
ATOM     20  N   UNL     1      -2.775  11.381  18.264  0.00  0.00    +0.000 NA
ATOM     21  N   UNL     1      -3.443  11.137  17.118  0.00  0.00    +0.000 N 
ATOM     22  C   UNL     1      -4.741  11.738  16.908  0.00  0.00    +0.000 C 
ENDBRANCH  15  19
ENDBRANCH  11  15
ENDBRANCH   8  12
ENDBRANCH   1  10
BRANCH   1  23
ATOM     23  N   UNL     1       4.043   5.330  17.678  0.00  0.00    +0.000 NA
ATOM     24  H   UNL     1       3.561   4.592  17.168  0.00  0.00    +0.000 HD
BRANCH  23  25
ATOM     25  P   UNL     1       5.668   5.175  17.631  0.00  0.00    +0.000 P 
ATOM     26  O   UNL     1       6.188   4.127  18.584  0.00  0.00    +0.000 OA
BRANCH  25  27
ATOM     27  C   UNL     1       5.932   4.668  15.917  0.00  0.00    +0.000 A 
ATOM     28  C   UNL     1       4.942   4.097  15.095  0.00  0.00    +0.000 A 
ATOM     29  C   UNL     1       5.222   3.884  13.744  0.00  0.00    +0.000 A 
ATOM     30  C   UNL     1       6.459   4.245  13.213  0.00  0.00    +0.000 A 
ATOM     31  C   UNL     1       7.448   4.795  14.030  0.00  0.00    +0.000 A 
ATOM     32  C   UNL     1       7.182   4.989  15.382  0.00  0.00    +0.000 A 
ENDBRANCH  25  27
BRANCH  25  33
ATOM     33  C   UNL     1       6.726   6.627  17.765  0.00  0.00    +0.000 A 
ATOM     34  C   UNL     1       6.709   7.875  17.149  0.00  0.00    +0.000 A 
ATOM     35  C   UNL     1       7.659   8.857  17.538  0.00  0.00    +0.000 A 
ATOM     36  C   UNL     1       8.615   8.600  18.525  0.00  0.00    +0.000 A 
ATOM     37  C   UNL     1       8.651   7.362  19.137  0.00  0.00    +0.000 A 
ATOM     38  C   UNL     1       7.721   6.407  18.762  0.00  0.00    +0.000 A 
ENDBRANCH  25  33
ENDBRANCH  23  25
ENDBRANCH   1  23
TORSDOF 9
ENDMDL
MODEL 6
REMARK VINA RESULT:      -8.3      1.766      3.222
REMARK  Name = 
REMARK  11 active torsions:
REMARK  status: ('A' for Active; 'I' for Inactive)
REMARK    1  A    between atoms: C_1  and  C_2
REMARK    2  A    between atoms: C_4  and  C_5
REMARK    3  A    between atoms: C_5  and  N_6
REMARK    4  A    between atoms: C_7  and  C_9
REMARK    5  A    between atoms: C_11  and  C_12
REMARK    6  A    between atoms: C_12  and  N_13
REMARK    7  A    between atoms: C_12  and  C_28
REMARK    8  A    between atoms: N_13  and  P_14
REMARK    9  A    between atoms: P_14  and  C_16
REMARK   10  A    between atoms: P_14  and  C_22
REMARK   11  A    between atoms: N_35  and  C_36
REMARK                            x       y       z     vdW  Elec       q    Type
REMARK                         _______ _______ _______ _____ _____    ______ ____
ROOT
ATOM      1  C   UNL     1       3.039   5.875  18.410  0.00  0.00    +0.000 C 
ENDROOT
BRANCH   1   2
ATOM      2  C   UNL     1       2.276   4.563  18.606  0.00  0.00    +0.000 A 
ATOM      3  C   UNL     1       1.678   4.302  19.859  0.00  0.00    +0.000 A 
ATOM      4  C   UNL     1       1.304   3.010  20.211  0.00  0.00    +0.000 A 
ATOM      5  C   UNL     1       1.448   1.979  19.290  0.00  0.00    +0.000 A 
ATOM      6  C   UNL     1       1.881   2.254  17.995  0.00  0.00    +0.000 A 
ATOM      7  C   UNL     1       2.269   3.548  17.644  0.00  0.00    +0.000 A 
ENDBRANCH   1   2
BRANCH   1  10
ATOM      8  C   UNL     1       2.144   8.241  19.213  0.00  0.00    +0.000 C 
ATOM      9  C   UNL     1       2.608   8.425  17.793  0.00  0.00    +0.000 C 
ATOM     10  C   UNL     1       2.106   7.065  18.238  0.00  0.00    +0.000 C 
BRANCH   8  12
ATOM     11  N   UNL     1       0.402   9.908  18.735  0.00  0.00    +0.000 N 
ATOM     12  C   UNL     1       0.999   9.105  19.660  0.00  0.00    +0.000 C 
ATOM     13  O   UNL     1       0.667   9.061  20.840  0.00  0.00    +0.000 OA
ATOM     14  H   UNL     1       0.668   9.881  17.765  0.00  0.00    +0.000 HD
BRANCH  11  15
ATOM     15  C   UNL     1      -0.681  10.812  19.106  0.00  0.00    +0.000 C 
BRANCH  15  19
ATOM     16  C   UNL     1      -3.514   9.977  14.924  0.00  0.00    +0.000 C 
ATOM     17  C   UNL     1      -2.946  10.408  16.225  0.00  0.00    +0.000 A 
ATOM     18  C   UNL     1      -1.743  10.108  16.829  0.00  0.00    +0.000 A 
ATOM     19  C   UNL     1      -1.745  10.817  18.053  0.00  0.00    +0.000 A 
ATOM     20  N   UNL     1      -2.876  11.521  18.208  0.00  0.00    +0.000 NA
ATOM     21  N   UNL     1      -3.590  11.246  17.096  0.00  0.00    +0.000 N 
ATOM     22  C   UNL     1      -4.900  11.831  16.929  0.00  0.00    +0.000 C 
ENDBRANCH  15  19
ENDBRANCH  11  15
ENDBRANCH   8  12
ENDBRANCH   1  10
BRANCH   1  23
ATOM     23  N   UNL     1       3.970   5.623  17.301  0.00  0.00    +0.000 NA
ATOM     24  H   UNL     1       3.496   4.987  16.663  0.00  0.00    +0.000 HD
BRANCH  23  25
ATOM     25  P   UNL     1       5.584   5.378  17.358  0.00  0.00    +0.000 P 
ATOM     26  O   UNL     1       5.976   4.248  18.278  0.00  0.00    +0.000 OA
BRANCH  25  27
ATOM     27  C   UNL     1       5.944   4.955  15.638  0.00  0.00    +0.000 A 
ATOM     28  C   UNL     1       7.185   5.168  15.010  0.00  0.00    +0.000 A 
ATOM     29  C   UNL     1       7.391   4.665  13.724  0.00  0.00    +0.000 A 
ATOM     30  C   UNL     1       6.385   3.949  13.077  0.00  0.00    +0.000 A 
ATOM     31  C   UNL     1       5.148   3.751  13.691  0.00  0.00    +0.000 A 
ATOM     32  C   UNL     1       4.931   4.269  14.964  0.00  0.00    +0.000 A 
ENDBRANCH  25  27
BRANCH  25  33
ATOM     33  C   UNL     1       6.705   6.756  17.653  0.00  0.00    +0.000 A 
ATOM     34  C   UNL     1       6.770   8.053  17.152  0.00  0.00    +0.000 A 
ATOM     35  C   UNL     1       7.752   8.947  17.656  0.00  0.00    +0.000 A 
ATOM     36  C   UNL     1       8.661   8.554  18.643  0.00  0.00    +0.000 A 
ATOM     37  C   UNL     1       8.616   7.266  19.141  0.00  0.00    +0.000 A 
ATOM     38  C   UNL     1       7.655   6.398  18.655  0.00  0.00    +0.000 A 
ENDBRANCH  25  33
ENDBRANCH  23  25
ENDBRANCH   1  23
TORSDOF 9
ENDMDL
MODEL 7
REMARK VINA RESULT:      -8.3      1.634      2.625
REMARK  Name = 
REMARK  11 active torsions:
REMARK  status: ('A' for Active; 'I' for Inactive)
REMARK    1  A    between atoms: C_1  and  C_2
REMARK    2  A    between atoms: C_4  and  C_5
REMARK    3  A    between atoms: C_5  and  N_6
REMARK    4  A    between atoms: C_7  and  C_9
REMARK    5  A    between atoms: C_11  and  C_12
REMARK    6  A    between atoms: C_12  and  N_13
REMARK    7  A    between atoms: C_12  and  C_28
REMARK    8  A    between atoms: N_13  and  P_14
REMARK    9  A    between atoms: P_14  and  C_16
REMARK   10  A    between atoms: P_14  and  C_22
REMARK   11  A    between atoms: N_35  and  C_36
REMARK                            x       y       z     vdW  Elec       q    Type
REMARK                         _______ _______ _______ _____ _____    ______ ____
ROOT
ATOM      1  C   UNL     1       3.282   5.910  18.256  0.00  0.00    +0.000 C 
ENDROOT
BRANCH   1   2
ATOM      2  C   UNL     1       2.731   4.685  18.989  0.00  0.00    +0.000 A 
ATOM      3  C   UNL     1       2.160   3.637  18.233  0.00  0.00    +0.000 A 
ATOM      4  C   UNL     1       1.330   2.697  18.836  0.00  0.00    +0.000 A 
ATOM      5  C   UNL     1       1.123   2.746  20.210  0.00  0.00    +0.000 A 
ATOM      6  C   UNL     1       1.812   3.673  20.988  0.00  0.00    +0.000 A 
ATOM      7  C   UNL     1       2.635   4.625  20.384  0.00  0.00    +0.000 A 
ENDBRANCH   1   2
BRANCH   1  10
ATOM      8  C   UNL     1       2.274   8.191  19.166  0.00  0.00    +0.000 C 
ATOM      9  C   UNL     1       2.644   8.436  17.727  0.00  0.00    +0.000 C 
ATOM     10  C   UNL     1       2.261   7.036  18.165  0.00  0.00    +0.000 C 
BRANCH   8  12
ATOM     11  N   UNL     1       0.626  10.001  18.952  0.00  0.00    +0.000 N 
ATOM     12  C   UNL     1       1.100   8.963  19.696  0.00  0.00    +0.000 C 
ATOM     13  O   UNL     1       0.633   8.635  20.782  0.00  0.00    +0.000 OA
ATOM     14  H   UNL     1       1.002  10.210  18.042  0.00  0.00    +0.000 HD
BRANCH  11  15
ATOM     15  C   UNL     1      -0.477  10.829  19.426  0.00  0.00    +0.000 C 
BRANCH  15  19
ATOM     16  C   UNL     1      -4.833  11.689  16.877  0.00  0.00    +0.000 C 
ATOM     17  C   UNL     1      -3.495  11.260  17.351  0.00  0.00    +0.000 A 
ATOM     18  C   UNL     1      -2.824  11.531  18.524  0.00  0.00    +0.000 A 
ATOM     19  C   UNL     1      -1.592  10.841  18.427  0.00  0.00    +0.000 A 
ATOM     20  N   UNL     1      -1.497  10.174  17.267  0.00  0.00    +0.000 NA
ATOM     21  N   UNL     1      -2.654  10.454  16.630  0.00  0.00    +0.000 N 
ATOM     22  C   UNL     1      -2.892   9.907  15.315  0.00  0.00    +0.000 C 
ENDBRANCH  15  19
ENDBRANCH  11  15
ENDBRANCH   8  12
ENDBRANCH   1  10
BRANCH   1  23
ATOM     23  N   UNL     1       3.793   5.401  16.975  0.00  0.00    +0.000 NA
ATOM     24  H   UNL     1       3.824   4.387  17.059  0.00  0.00    +0.000 HD
BRANCH  23  25
ATOM     25  P   UNL     1       4.995   5.998  16.046  0.00  0.00    +0.000 P 
ATOM     26  O   UNL     1       4.700   7.379  15.514  0.00  0.00    +0.000 OA
BRANCH  25  27
ATOM     27  C   UNL     1       6.368   6.046  17.221  0.00  0.00    +0.000 A 
ATOM     28  C   UNL     1       7.171   7.178  17.460  0.00  0.00    +0.000 A 
ATOM     29  C   UNL     1       8.105   7.140  18.497  0.00  0.00    +0.000 A 
ATOM     30  C   UNL     1       8.230   6.003  19.294  0.00  0.00    +0.000 A 
ATOM     31  C   UNL     1       7.447   4.875  19.047  0.00  0.00    +0.000 A 
ATOM     32  C   UNL     1       6.530   4.899  18.001  0.00  0.00    +0.000 A 
ENDBRANCH  25  27
BRANCH  25  33
ATOM     33  C   UNL     1       5.681   5.016  14.700  0.00  0.00    +0.000 A 
ATOM     34  C   UNL     1       5.185   3.952  13.952  0.00  0.00    +0.000 A 
ATOM     35  C   UNL     1       5.959   3.433  12.880  0.00  0.00    +0.000 A 
ATOM     36  C   UNL     1       7.213   3.963  12.559  0.00  0.00    +0.000 A 
ATOM     37  C   UNL     1       7.722   5.011  13.301  0.00  0.00    +0.000 A 
ATOM     38  C   UNL     1       6.965   5.521  14.341  0.00  0.00    +0.000 A 
ENDBRANCH  25  33
ENDBRANCH  23  25
ENDBRANCH   1  23
TORSDOF 9
ENDMDL
MODEL 8
REMARK VINA RESULT:      -8.2      1.793      3.285
REMARK  Name = 
REMARK  11 active torsions:
REMARK  status: ('A' for Active; 'I' for Inactive)
REMARK    1  A    between atoms: C_1  and  C_2
REMARK    2  A    between atoms: C_4  and  C_5
REMARK    3  A    between atoms: C_5  and  N_6
REMARK    4  A    between atoms: C_7  and  C_9
REMARK    5  A    between atoms: C_11  and  C_12
REMARK    6  A    between atoms: C_12  and  N_13
REMARK    7  A    between atoms: C_12  and  C_28
REMARK    8  A    between atoms: N_13  and  P_14
REMARK    9  A    between atoms: P_14  and  C_16
REMARK   10  A    between atoms: P_14  and  C_22
REMARK   11  A    between atoms: N_35  and  C_36
REMARK                            x       y       z     vdW  Elec       q    Type
REMARK                         _______ _______ _______ _____ _____    ______ ____
ROOT
ATOM      1  C   UNL     1       3.140   5.811  18.755  0.00  0.00    +0.000 C 
ENDROOT
BRANCH   1   2
ATOM      2  C   UNL     1       2.451   4.479  19.058  0.00  0.00    +0.000 A 
ATOM      3  C   UNL     1       2.507   3.448  18.094  0.00  0.00    +0.000 A 
ATOM      4  C   UNL     1       1.615   2.381  18.143  0.00  0.00    +0.000 A 
ATOM      5  C   UNL     1       0.711   2.292  19.196  0.00  0.00    +0.000 A 
ATOM      6  C   UNL     1       0.757   3.214  20.238  0.00  0.00    +0.000 A 
ATOM      7  C   UNL     1       1.643   4.291  20.184  0.00  0.00    +0.000 A 
ENDBRANCH   1   2
BRANCH   1  10
ATOM      8  C   UNL     1       2.221   8.226  19.364  0.00  0.00    +0.000 C 
ATOM      9  C   UNL     1       2.541   8.254  17.893  0.00  0.00    +0.000 C 
ATOM     10  C   UNL     1       2.143   6.941  18.540  0.00  0.00    +0.000 C 
BRANCH   8  12
ATOM     11  N   UNL     1       0.284   9.655  18.869  0.00  0.00    +0.000 N 
ATOM     12  C   UNL     1       1.087   9.099  19.819  0.00  0.00    +0.000 C 
ATOM     13  O   UNL     1       0.946   9.284  21.023  0.00  0.00    +0.000 OA
ATOM     14  H   UNL     1       0.399   9.441  17.892  0.00  0.00    +0.000 HD
BRANCH  11  15
ATOM     15  C   UNL     1      -0.805  10.555  19.232  0.00  0.00    +0.000 C 
BRANCH  15  19
ATOM     16  C   UNL     1      -3.385  10.051  14.838  0.00  0.00    +0.000 C 
ATOM     17  C   UNL     1      -2.892  10.384  16.197  0.00  0.00    +0.000 A 
ATOM     18  C   UNL     1      -1.734  10.023  16.852  0.00  0.00    +0.000 A 
ATOM     19  C   UNL     1      -1.801  10.649  18.119  0.00  0.00    +0.000 A 
ATOM     20  N   UNL     1      -2.929  11.363  18.251  0.00  0.00    +0.000 NA
ATOM     21  N   UNL     1      -3.576  11.176  17.082  0.00  0.00    +0.000 N 
ATOM     22  C   UNL     1      -4.865  11.795  16.875  0.00  0.00    +0.000 C 
ENDBRANCH  15  19
ENDBRANCH  11  15
ENDBRANCH   8  12
ENDBRANCH   1  10
BRANCH   1  23
ATOM     23  N   UNL     1       4.049   5.534  17.634  0.00  0.00    +0.000 NA
ATOM     24  H   UNL     1       3.547   4.916  16.999  0.00  0.00    +0.000 HD
BRANCH  23  25
ATOM     25  P   UNL     1       5.655   5.236  17.670  0.00  0.00    +0.000 P 
ATOM     26  O   UNL     1       6.013   4.036  18.513  0.00  0.00    +0.000 OA
BRANCH  25  27
ATOM     27  C   UNL     1       6.001   4.918  15.925  0.00  0.00    +0.000 A 
ATOM     28  C   UNL     1       7.251   5.127  15.312  0.00  0.00    +0.000 A 
ATOM     29  C   UNL     1       7.439   4.705  13.994  0.00  0.00    +0.000 A 
ATOM     30  C   UNL     1       6.408   4.072  13.301  0.00  0.00    +0.000 A 
ATOM     31  C   UNL     1       5.163   3.880  13.902  0.00  0.00    +0.000 A 
ATOM     32  C   UNL     1       4.964   4.318  15.207  0.00  0.00    +0.000 A 
ENDBRANCH  25  27
BRANCH  25  33
ATOM     33  C   UNL     1       6.818   6.556  18.054  0.00  0.00    +0.000 A 
ATOM     34  C   UNL     1       7.975   6.609  18.828  0.00  0.00    +0.000 A 
ATOM     35  C   UNL     1       8.732   7.810  18.867  0.00  0.00    +0.000 A 
ATOM     36  C   UNL     1       8.343   8.945  18.149  0.00  0.00    +0.000 A 
ATOM     37  C   UNL     1       7.192   8.910  17.387  0.00  0.00    +0.000 A 
ATOM     38  C   UNL     1       6.457   7.738  17.344  0.00  0.00    +0.000 A 
ENDBRANCH  25  33
ENDBRANCH  23  25
ENDBRANCH   1  23
TORSDOF 9
ENDMDL
MODEL 9
REMARK VINA RESULT:      -8.1      1.684      2.695
REMARK  Name = 
REMARK  11 active torsions:
REMARK  status: ('A' for Active; 'I' for Inactive)
REMARK    1  A    between atoms: C_1  and  C_2
REMARK    2  A    between atoms: C_4  and  C_5
REMARK    3  A    between atoms: C_5  and  N_6
REMARK    4  A    between atoms: C_7  and  C_9
REMARK    5  A    between atoms: C_11  and  C_12
REMARK    6  A    between atoms: C_12  and  N_13
REMARK    7  A    between atoms: C_12  and  C_28
REMARK    8  A    between atoms: N_13  and  P_14
REMARK    9  A    between atoms: P_14  and  C_16
REMARK   10  A    between atoms: P_14  and  C_22
REMARK   11  A    between atoms: N_35  and  C_36
REMARK                            x       y       z     vdW  Elec       q    Type
REMARK                         _______ _______ _______ _____ _____    ______ ____
ROOT
ATOM      1  C   UNL     1       3.472   5.705  18.087  0.00  0.00    +0.000 C 
ENDROOT
BRANCH   1   2
ATOM      2  C   UNL     1       2.879   4.426  18.681  0.00  0.00    +0.000 A 
ATOM      3  C   UNL     1       3.753   3.448  19.205  0.00  0.00    +0.000 A 
ATOM      4  C   UNL     1       3.317   2.143  19.412  0.00  0.00    +0.000 A 
ATOM      5  C   UNL     1       1.986   1.819  19.173  0.00  0.00    +0.000 A 
ATOM      6  C   UNL     1       1.078   2.812  18.815  0.00  0.00    +0.000 A 
ATOM      7  C   UNL     1       1.516   4.119  18.595  0.00  0.00    +0.000 A 
ENDBRANCH   1   2
BRANCH   1  10
ATOM      8  C   UNL     1       2.433   7.870  19.216  0.00  0.00    +0.000 C 
ATOM      9  C   UNL     1       2.901   8.290  17.848  0.00  0.00    +0.000 C 
ATOM     10  C   UNL     1       2.473   6.853  18.076  0.00  0.00    +0.000 C 
BRANCH   8  12
ATOM     11  N   UNL     1       0.713   9.617  19.034  0.00  0.00    +0.000 N 
ATOM     12  C   UNL     1       1.235   8.592  19.765  0.00  0.00    +0.000 C 
ATOM     13  O   UNL     1       0.793   8.237  20.852  0.00  0.00    +0.000 OA
ATOM     14  H   UNL     1       1.071   9.848  18.122  0.00  0.00    +0.000 HD
BRANCH  11  15
ATOM     15  C   UNL     1      -0.416  10.397  19.526  0.00  0.00    +0.000 C 
BRANCH  15  19
ATOM     16  C   UNL     1      -3.258   9.951  15.291  0.00  0.00    +0.000 C 
ATOM     17  C   UNL     1      -2.679  10.275  16.618  0.00  0.00    +0.000 A 
ATOM     18  C   UNL     1      -1.496   9.883  17.206  0.00  0.00    +0.000 A 
ATOM     19  C   UNL     1      -1.472  10.516  18.472  0.00  0.00    +0.000 A 
ATOM     20  N   UNL     1      -2.569  11.262  18.665  0.00  0.00    +0.000 NA
ATOM     21  N   UNL     1      -3.288  11.090  17.536  0.00  0.00    +0.000 N 
ATOM     22  C   UNL     1      -4.568  11.745  17.399  0.00  0.00    +0.000 C 
ENDBRANCH  15  19
ENDBRANCH  11  15
ENDBRANCH   8  12
ENDBRANCH   1  10
BRANCH   1  23
ATOM     23  N   UNL     1       4.013   5.312  16.778  0.00  0.00    +0.000 NA
ATOM     24  H   UNL     1       4.112   4.299  16.797  0.00  0.00    +0.000 HD
BRANCH  23  25
ATOM     25  P   UNL     1       5.173   6.045  15.891  0.00  0.00    +0.000 P 
ATOM     26  O   UNL     1       4.771   7.419  15.414  0.00  0.00    +0.000 OA
BRANCH  25  27
ATOM     27  C   UNL     1       6.525   6.153  17.086  0.00  0.00    +0.000 A 
ATOM     28  C   UNL     1       7.187   7.346  17.432  0.00  0.00    +0.000 A 
ATOM     29  C   UNL     1       8.114   7.329  18.476  0.00  0.00    +0.000 A 
ATOM     30  C   UNL     1       8.369   6.151  19.175  0.00  0.00    +0.000 A 
ATOM     31  C   UNL     1       7.726   4.964  18.822  0.00  0.00    +0.000 A 
ATOM     32  C   UNL     1       6.818   4.970  17.768  0.00  0.00    +0.000 A 
ENDBRANCH  25  27
BRANCH  25  33
ATOM     33  C   UNL     1       5.950   5.180  14.515  0.00  0.00    +0.000 A 
ATOM     34  C   UNL     1       7.243   5.183  13.999  0.00  0.00    +0.000 A 
ATOM     35  C   UNL     1       7.568   4.308  12.928  0.00  0.00    +0.000 A 
ATOM     36  C   UNL     1       6.618   3.444  12.375  0.00  0.00    +0.000 A 
ATOM     37  C   UNL     1       5.328   3.440  12.869  0.00  0.00    +0.000 A 
ATOM     38  C   UNL     1       5.013   4.287  13.916  0.00  0.00    +0.000 A 
ENDBRANCH  25  33
ENDBRANCH  23  25
ENDBRANCH   1  23
TORSDOF 9
ENDMDL
