MODEL 1
REMARK VINA RESULT:      -8.2      0.000      0.000
REMARK  Name = 
REMARK  5 active torsions:
REMARK  status: ('A' for Active; 'I' for Inactive)
REMARK    1  A    between atoms: C_2  and  C_3
REMARK    2  A    between atoms: C_6  and  N_7
REMARK    3  A    between atoms: C_11  and  C_12
REMARK    4  A    between atoms: C_16  and  N_17
REMARK    5  A    between atoms: N_17  and  C_18
REMARK                            x       y       z     vdW  Elec       q    Type
REMARK                         _______ _______ _______ _____ _____    ______ ____
ROOT
ATOM      1  N   UNL     1       1.471   6.676  21.221  0.00  0.00    +0.000 N 
ATOM      2  C   UNL     1       1.956   5.497  20.637  0.00  0.00    +0.000 A 
ATOM      3  N   UNL     1       1.126   4.458  20.723  0.00  0.00    +0.000 NA
ATOM      4  C   UNL     1       1.378   3.445  19.884  0.00  0.00    +0.000 A 
ATOM      5  C   UNL     1       2.404   3.450  18.959  0.00  0.00    +0.000 A 
ATOM      6  C   UNL     1       3.315   4.487  19.054  0.00  0.00    +0.000 A 
ATOM      7  N   UNL     1       3.077   5.512  19.890  0.00  0.00    +0.000 NA
ATOM      8  H   UNL     1       0.522   6.430  21.500  0.00  0.00    +0.000 HD
ENDROOT
BRANCH   1  12
ATOM      9  C   UNL     1       1.430  10.372  19.329  0.00  0.00    +0.000 A 
ATOM     10  C   UNL     1       0.941  10.283  20.620  0.00  0.00    +0.000 A 
ATOM     11  C   UNL     1       0.955   9.036  21.244  0.00  0.00    +0.000 A 
ATOM     12  C   UNL     1       1.490   7.930  20.582  0.00  0.00    +0.000 A 
ATOM     13  C   UNL     1       1.914   8.131  19.265  0.00  0.00    +0.000 A 
ATOM     14  N   UNL     1       1.900   9.322  18.623  0.00  0.00    +0.000 NA
BRANCH   9  16
ATOM     15  N   UNL     1       1.480  12.668  18.133  0.00  0.00    +0.000 NA
ATOM     16  C   UNL     1       1.454  11.629  18.644  0.00  0.00    +0.000 C 
ENDBRANCH   9  16
ENDBRANCH   1  12
BRANCH   5  17
ATOM     17  C   UNL     1       2.429   2.394  17.915  0.00  0.00    +0.000 C 
ATOM     18  F   UNL     1       1.344   1.561  17.987  0.00  0.00    +0.000 F 
ATOM     19  F   UNL     1       2.384   2.911  16.654  0.00  0.00    +0.000 F 
ATOM     20  F   UNL     1       3.509   1.573  17.962  0.00  0.00    +0.000 F 
ENDBRANCH   5  17
BRANCH   6  21
ATOM     21  N   UNL     1       4.404   4.578  18.178  0.00  0.00    +0.000 N 
ATOM     22  H   UNL     1       4.082   4.456  17.220  0.00  0.00    +0.000 HD
BRANCH  21  23
ATOM     23  C   UNL     1       5.357   5.711  18.310  0.00  0.00    +0.000 C 
ATOM     24  C   UNL     1       5.342   6.765  17.164  0.00  0.00    +0.000 C 
ATOM     25  N   UNL     1       6.685   6.989  16.544  0.00  0.00    +0.000 NA
ATOM     26  C   UNL     1       7.651   7.395  17.587  0.00  0.00    +0.000 C 
ATOM     27  C   UNL     1       7.762   6.333  18.693  0.00  0.00    +0.000 C 
ATOM     28  C   UNL     1       6.812   5.155  18.383  0.00  0.00    +0.000 C 
ATOM     29  C   UNL     1       7.234   4.605  17.004  0.00  0.00    +0.000 C 
ATOM     30  C   UNL     1       7.159   5.722  15.953  0.00  0.00    +0.000 C 
ENDBRANCH  21  23
ENDBRANCH   6  21
TORSDOF 5
ENDMDL
MODEL 2
REMARK VINA RESULT:      -8.1      0.562      1.165
REMARK  Name = 
REMARK  5 active torsions:
REMARK  status: ('A' for Active; 'I' for Inactive)
REMARK    1  A    between atoms: C_2  and  C_3
REMARK    2  A    between atoms: C_6  and  N_7
REMARK    3  A    between atoms: C_11  and  C_12
REMARK    4  A    between atoms: C_16  and  N_17
REMARK    5  A    between atoms: N_17  and  C_18
REMARK                            x       y       z     vdW  Elec       q    Type
REMARK                         _______ _______ _______ _____ _____    ______ ____
ROOT
ATOM      1  N   UNL     1       1.457   6.750  21.278  0.00  0.00    +0.000 N 
ATOM      2  C   UNL     1       1.952   5.592  20.663  0.00  0.00    +0.000 A 
ATOM      3  N   UNL     1       1.183   4.514  20.816  0.00  0.00    +0.000 NA
ATOM      4  C   UNL     1       1.419   3.509  19.964  0.00  0.00    +0.000 A 
ATOM      5  C   UNL     1       2.369   3.557  18.962  0.00  0.00    +0.000 A 
ATOM      6  C   UNL     1       3.232   4.638  18.982  0.00  0.00    +0.000 A 
ATOM      7  N   UNL     1       3.011   5.656  19.831  0.00  0.00    +0.000 NA
ATOM      8  H   UNL     1       0.545   6.461  21.631  0.00  0.00    +0.000 HD
ENDROOT
BRANCH   1  12
ATOM      9  C   UNL     1       1.282  10.439  19.381  0.00  0.00    +0.000 A 
ATOM     10  C   UNL     1       1.682   9.336  18.648  0.00  0.00    +0.000 A 
ATOM     11  C   UNL     1       1.741   8.102  19.297  0.00  0.00    +0.000 A 
ATOM     12  C   UNL     1       1.365   7.999  20.636  0.00  0.00    +0.000 A 
ATOM     13  C   UNL     1       1.020   9.188  21.286  0.00  0.00    +0.000 A 
ATOM     14  N   UNL     1       0.967  10.404  20.693  0.00  0.00    +0.000 NA
BRANCH   9  16
ATOM     15  N   UNL     1       1.077  12.782  18.297  0.00  0.00    +0.000 NA
ATOM     16  C   UNL     1       1.188  11.728  18.764  0.00  0.00    +0.000 C 
ENDBRANCH   9  16
ENDBRANCH   1  12
BRANCH   5  17
ATOM     17  C   UNL     1       2.365   2.496  17.922  0.00  0.00    +0.000 C 
ATOM     18  F   UNL     1       3.470   1.690  17.994  0.00  0.00    +0.000 F 
ATOM     19  F   UNL     1       1.308   1.645  18.055  0.00  0.00    +0.000 F 
ATOM     20  F   UNL     1       2.342   2.952  16.644  0.00  0.00    +0.000 F 
ENDBRANCH   5  17
BRANCH   6  21
ATOM     21  N   UNL     1       4.245   4.775  18.024  0.00  0.00    +0.000 N 
ATOM     22  H   UNL     1       3.833   4.792  17.094  0.00  0.00    +0.000 HD
BRANCH  21  23
ATOM     23  C   UNL     1       5.281   5.826  18.199  0.00  0.00    +0.000 C 
ATOM     24  C   UNL     1       5.450   6.835  17.025  0.00  0.00    +0.000 C 
ATOM     25  N   UNL     1       6.852   6.919  16.511  0.00  0.00    +0.000 NA
ATOM     26  C   UNL     1       7.765   7.279  17.616  0.00  0.00    +0.000 C 
ATOM     27  C   UNL     1       7.693   6.254  18.760  0.00  0.00    +0.000 C 
ATOM     28  C   UNL     1       6.670   5.151  18.409  0.00  0.00    +0.000 C 
ATOM     29  C   UNL     1       7.151   4.516  17.086  0.00  0.00    +0.000 C 
ATOM     30  C   UNL     1       7.258   5.595  15.999  0.00  0.00    +0.000 C 
ENDBRANCH  21  23
ENDBRANCH   6  21
TORSDOF 5
ENDMDL
MODEL 3
REMARK VINA RESULT:      -8.1      1.244      1.842
REMARK  Name = 
REMARK  5 active torsions:
REMARK  status: ('A' for Active; 'I' for Inactive)
REMARK    1  A    between atoms: C_2  and  C_3
REMARK    2  A    between atoms: C_6  and  N_7
REMARK    3  A    between atoms: C_11  and  C_12
REMARK    4  A    between atoms: C_16  and  N_17
REMARK    5  A    between atoms: N_17  and  C_18
REMARK                            x       y       z     vdW  Elec       q    Type
REMARK                         _______ _______ _______ _____ _____    ______ ____
ROOT
ATOM      1  N   UNL     1       1.825   7.124  21.251  0.00  0.00    +0.000 N 
ATOM      2  C   UNL     1       2.192   5.930  20.615  0.00  0.00    +0.000 A 
ATOM      3  N   UNL     1       1.756   4.826  21.221  0.00  0.00    +0.000 NA
ATOM      4  C   UNL     1       1.765   3.715  20.474  0.00  0.00    +0.000 A 
ATOM      5  C   UNL     1       2.168   3.679  19.153  0.00  0.00    +0.000 A 
ATOM      6  C   UNL     1       2.763   4.825  18.659  0.00  0.00    +0.000 A 
ATOM      7  N   UNL     1       2.762   5.951  19.394  0.00  0.00    +0.000 NA
ATOM      8  H   UNL     1       1.216   6.814  22.007  0.00  0.00    +0.000 HD
ENDROOT
BRANCH   1  12
ATOM      9  C   UNL     1       0.075  10.322  19.261  0.00  0.00    +0.000 A 
ATOM     10  C   UNL     1      -0.403   9.979  20.513  0.00  0.00    +0.000 A 
ATOM     11  C   UNL     1       0.189   8.900  21.171  0.00  0.00    +0.000 A 
ATOM     12  C   UNL     1       1.259   8.226  20.582  0.00  0.00    +0.000 A 
ATOM     13  C   UNL     1       1.627   8.633  19.296  0.00  0.00    +0.000 A 
ATOM     14  N   UNL     1       1.065   9.663  18.622  0.00  0.00    +0.000 NA
BRANCH   9  16
ATOM     15  N   UNL     1      -0.966  12.333  18.006  0.00  0.00    +0.000 NA
ATOM     16  C   UNL     1      -0.484  11.429  18.546  0.00  0.00    +0.000 C 
ENDBRANCH   9  16
ENDBRANCH   1  12
BRANCH   5  17
ATOM     17  C   UNL     1       1.894   2.456  18.356  0.00  0.00    +0.000 C 
ATOM     18  F   UNL     1       2.682   1.400  18.730  0.00  0.00    +0.000 F 
ATOM     19  F   UNL     1       0.616   2.007  18.519  0.00  0.00    +0.000 F 
ATOM     20  F   UNL     1       2.093   2.591  17.020  0.00  0.00    +0.000 F 
ENDBRANCH   5  17
BRANCH   6  21
ATOM     21  N   UNL     1       3.226   4.891  17.338  0.00  0.00    +0.000 N 
ATOM     22  H   UNL     1       3.056   5.822  16.964  0.00  0.00    +0.000 HD
BRANCH  21  23
ATOM     23  C   UNL     1       4.589   4.395  17.015  0.00  0.00    +0.000 C 
ATOM     24  C   UNL     1       5.607   4.350  18.192  0.00  0.00    +0.000 C 
ATOM     25  N   UNL     1       6.875   5.092  17.910  0.00  0.00    +0.000 NA
ATOM     26  C   UNL     1       7.502   4.555  16.684  0.00  0.00    +0.000 C 
ATOM     27  C   UNL     1       6.558   4.666  15.476  0.00  0.00    +0.000 C 
ATOM     28  C   UNL     1       5.220   5.302  15.915  0.00  0.00    +0.000 C 
ATOM     29  C   UNL     1       5.569   6.683  16.510  0.00  0.00    +0.000 C 
ATOM     30  C   UNL     1       6.558   6.515  17.673  0.00  0.00    +0.000 C 
ENDBRANCH  21  23
ENDBRANCH   6  21
TORSDOF 5
ENDMDL
MODEL 4
REMARK VINA RESULT:      -8.0      1.377      1.971
REMARK  Name = 
REMARK  5 active torsions:
REMARK  status: ('A' for Active; 'I' for Inactive)
REMARK    1  A    between atoms: C_2  and  C_3
REMARK    2  A    between atoms: C_6  and  N_7
REMARK    3  A    between atoms: C_11  and  C_12
REMARK    4  A    between atoms: C_16  and  N_17
REMARK    5  A    between atoms: N_17  and  C_18
REMARK                            x       y       z     vdW  Elec       q    Type
REMARK                         _______ _______ _______ _____ _____    ______ ____
ROOT
ATOM      1  N   UNL     1       1.843   7.158  21.154  0.00  0.00    +0.000 N 
ATOM      2  C   UNL     1       2.234   5.956  20.548  0.00  0.00    +0.000 A 
ATOM      3  N   UNL     1       1.861   4.859  21.208  0.00  0.00    +0.000 NA
ATOM      4  C   UNL     1       1.887   3.722  20.502  0.00  0.00    +0.000 A 
ATOM      5  C   UNL     1       2.246   3.652  19.169  0.00  0.00    +0.000 A 
ATOM      6  C   UNL     1       2.780   4.801  18.614  0.00  0.00    +0.000 A 
ATOM      7  N   UNL     1       2.761   5.952  19.308  0.00  0.00    +0.000 NA
ATOM      8  H   UNL     1       1.273   6.853  21.941  0.00  0.00    +0.000 HD
ENDROOT
BRANCH   1  12
ATOM      9  C   UNL     1       0.063  10.323  19.140  0.00  0.00    +0.000 A 
ATOM     10  C   UNL     1       1.120   9.666  18.537  0.00  0.00    +0.000 A 
ATOM     11  C   UNL     1       1.714   8.607  19.225  0.00  0.00    +0.000 A 
ATOM     12  C   UNL     1       1.213   8.212  20.466  0.00  0.00    +0.000 A 
ATOM     13  C   UNL     1       0.170   8.978  20.995  0.00  0.00    +0.000 A 
ATOM     14  N   UNL     1      -0.418  10.021  20.364  0.00  0.00    +0.000 NA
BRANCH   9  16
ATOM     15  N   UNL     1      -1.163  12.281  17.970  0.00  0.00    +0.000 NA
ATOM     16  C   UNL     1      -0.595  11.408  18.475  0.00  0.00    +0.000 C 
ENDBRANCH   9  16
ENDBRANCH   1  12
BRANCH   5  17
ATOM     17  C   UNL     1       1.992   2.391  18.427  0.00  0.00    +0.000 C 
ATOM     18  F   UNL     1       0.729   1.905  18.638  0.00  0.00    +0.000 F 
ATOM     19  F   UNL     1       2.074   2.561  17.076  0.00  0.00    +0.000 F 
ATOM     20  F   UNL     1       2.824   1.367  18.743  0.00  0.00    +0.000 F 
ENDBRANCH   5  17
BRANCH   6  21
ATOM     21  N   UNL     1       3.195   4.834  17.276  0.00  0.00    +0.000 N 
ATOM     22  H   UNL     1       2.975   5.743  16.874  0.00  0.00    +0.000 HD
BRANCH  21  23
ATOM     23  C   UNL     1       4.566   4.381  16.923  0.00  0.00    +0.000 C 
ATOM     24  C   UNL     1       5.573   4.239  18.102  0.00  0.00    +0.000 C 
ATOM     25  N   UNL     1       6.836   5.014  17.901  0.00  0.00    +0.000 NA
ATOM     26  C   UNL     1       7.480   4.595  16.638  0.00  0.00    +0.000 C 
ATOM     27  C   UNL     1       6.546   4.806  15.435  0.00  0.00    +0.000 C 
ATOM     28  C   UNL     1       5.199   5.389  15.917  0.00  0.00    +0.000 C 
ATOM     29  C   UNL     1       5.529   6.714  16.636  0.00  0.00    +0.000 C 
ATOM     30  C   UNL     1       6.508   6.450  17.789  0.00  0.00    +0.000 C 
ENDBRANCH  21  23
ENDBRANCH   6  21
TORSDOF 5
ENDMDL
MODEL 5
REMARK VINA RESULT:      -8.0      1.404      1.858
REMARK  Name = 
REMARK  5 active torsions:
REMARK  status: ('A' for Active; 'I' for Inactive)
REMARK    1  A    between atoms: C_2  and  C_3
REMARK    2  A    between atoms: C_6  and  N_7
REMARK    3  A    between atoms: C_11  and  C_12
REMARK    4  A    between atoms: C_16  and  N_17
REMARK    5  A    between atoms: N_17  and  C_18
REMARK                            x       y       z     vdW  Elec       q    Type
REMARK                         _______ _______ _______ _____ _____    ______ ____
ROOT
ATOM      1  N   UNL     1       1.734   7.265  21.184  0.00  0.00    +0.000 N 
ATOM      2  C   UNL     1       2.192   6.111  20.535  0.00  0.00    +0.000 A 
ATOM      3  N   UNL     1       1.792   4.968  21.092  0.00  0.00    +0.000 NA
ATOM      4  C   UNL     1       1.894   3.880  20.319  0.00  0.00    +0.000 A 
ATOM      5  C   UNL     1       2.355   3.903  19.016  0.00  0.00    +0.000 A 
ATOM      6  C   UNL     1       2.907   5.093  18.578  0.00  0.00    +0.000 A 
ATOM      7  N   UNL     1       2.813   6.195  19.341  0.00  0.00    +0.000 NA
ATOM      8  H   UNL     1       1.111   6.901  21.904  0.00  0.00    +0.000 HD
ENDROOT
BRANCH   1  12
ATOM      9  C   UNL     1       0.055  10.526  19.238  0.00  0.00    +0.000 A 
ATOM     10  C   UNL     1       1.094   9.851  18.623  0.00  0.00    +0.000 A 
ATOM     11  C   UNL     1       1.653   8.760  19.288  0.00  0.00    +0.000 A 
ATOM     12  C   UNL     1       1.138   8.353  20.518  0.00  0.00    +0.000 A 
ATOM     13  C   UNL     1       0.116   9.137  21.062  0.00  0.00    +0.000 A 
ATOM     14  N   UNL     1      -0.439  10.211  20.454  0.00  0.00    +0.000 NA
BRANCH   9  16
ATOM     15  N   UNL     1      -1.111  12.543  18.106  0.00  0.00    +0.000 NA
ATOM     16  C   UNL     1      -0.568  11.644  18.596  0.00  0.00    +0.000 C 
ENDBRANCH   9  16
ENDBRANCH   1  12
BRANCH   5  17
ATOM     17  C   UNL     1       2.183   2.690  18.177  0.00  0.00    +0.000 C 
ATOM     18  F   UNL     1       3.174   1.767  18.381  0.00  0.00    +0.000 F 
ATOM     19  F   UNL     1       1.028   2.023  18.462  0.00  0.00    +0.000 F 
ATOM     20  F   UNL     1       2.182   2.919  16.839  0.00  0.00    +0.000 F 
ENDBRANCH   5  17
BRANCH   6  21
ATOM     21  N   UNL     1       3.422   5.219  17.282  0.00  0.00    +0.000 N 
ATOM     22  H   UNL     1       2.815   5.824  16.732  0.00  0.00    +0.000 HD
BRANCH  21  23
ATOM     23  C   UNL     1       4.860   5.545  17.094  0.00  0.00    +0.000 C 
ATOM     24  C   UNL     1       5.230   6.322  15.796  0.00  0.00    +0.000 C 
ATOM     25  N   UNL     1       6.286   5.645  14.979  0.00  0.00    +0.000 NA
ATOM     26  C   UNL     1       7.496   5.442  15.804  0.00  0.00    +0.000 C 
ATOM     27  C   UNL     1       7.188   4.600  17.053  0.00  0.00    +0.000 C 
ATOM     28  C   UNL     1       5.689   4.226  17.074  0.00  0.00    +0.000 C 
ATOM     29  C   UNL     1       5.415   3.451  15.768  0.00  0.00    +0.000 C 
ATOM     30  C   UNL     1       5.793   4.318  14.559  0.00  0.00    +0.000 C 
ENDBRANCH  21  23
ENDBRANCH   6  21
TORSDOF 5
ENDMDL
MODEL 6
REMARK VINA RESULT:      -7.9      1.344      1.628
REMARK  Name = 
REMARK  5 active torsions:
REMARK  status: ('A' for Active; 'I' for Inactive)
REMARK    1  A    between atoms: C_2  and  C_3
REMARK    2  A    between atoms: C_6  and  N_7
REMARK    3  A    between atoms: C_11  and  C_12
REMARK    4  A    between atoms: C_16  and  N_17
REMARK    5  A    between atoms: N_17  and  C_18
REMARK                            x       y       z     vdW  Elec       q    Type
REMARK                         _______ _______ _______ _____ _____    ______ ____
ROOT
ATOM      1  N   UNL     1       1.569   7.598  21.323  0.00  0.00    +0.000 N 
ATOM      2  C   UNL     1       1.974   6.429  20.663  0.00  0.00    +0.000 A 
ATOM      3  N   UNL     1       1.471   5.305  21.172  0.00  0.00    +0.000 NA
ATOM      4  C   UNL     1       1.531   4.231  20.375  0.00  0.00    +0.000 A 
ATOM      5  C   UNL     1       2.050   4.252  19.094  0.00  0.00    +0.000 A 
ATOM      6  C   UNL     1       2.702   5.410  18.712  0.00  0.00    +0.000 A 
ATOM      7  N   UNL     1       2.651   6.499  19.500  0.00  0.00    +0.000 NA
ATOM      8  H   UNL     1       0.891   7.262  22.007  0.00  0.00    +0.000 HD
ENDROOT
BRANCH   1  12
ATOM      9  C   UNL     1       0.041  10.924  19.362  0.00  0.00    +0.000 A 
ATOM     10  C   UNL     1      -0.418  10.637  20.635  0.00  0.00    +0.000 A 
ATOM     11  C   UNL     1       0.099   9.514  21.283  0.00  0.00    +0.000 A 
ATOM     12  C   UNL     1       1.079   8.740  20.663  0.00  0.00    +0.000 A 
ATOM     13  C   UNL     1       1.434   9.101  19.359  0.00  0.00    +0.000 A 
ATOM     14  N   UNL     1       0.941  10.172  18.694  0.00  0.00    +0.000 NA
BRANCH   9  16
ATOM     15  N   UNL     1      -0.790  13.003  18.063  0.00  0.00    +0.000 NA
ATOM     16  C   UNL     1      -0.444  12.071  18.655  0.00  0.00    +0.000 C 
ENDBRANCH   9  16
ENDBRANCH   1  12
BRANCH   5  17
ATOM     17  C   UNL     1       1.831   3.075  18.216  0.00  0.00    +0.000 C 
ATOM     18  F   UNL     1       2.759   2.089  18.422  0.00  0.00    +0.000 F 
ATOM     19  F   UNL     1       0.630   2.471  18.449  0.00  0.00    +0.000 F 
ATOM     20  F   UNL     1       1.884   3.339  16.886  0.00  0.00    +0.000 F 
ENDBRANCH   5  17
BRANCH   6  21
ATOM     21  N   UNL     1       3.281   5.531  17.443  0.00  0.00    +0.000 N 
ATOM     22  H   UNL     1       2.730   6.174  16.877  0.00  0.00    +0.000 HD
BRANCH  21  23
ATOM     23  C   UNL     1       4.740   5.789  17.325  0.00  0.00    +0.000 C 
ATOM     24  C   UNL     1       5.214   6.504  16.025  0.00  0.00    +0.000 C 
ATOM     25  N   UNL     1       6.282   5.755  15.291  0.00  0.00    +0.000 NA
ATOM     26  C   UNL     1       7.435   5.529  16.187  0.00  0.00    +0.000 C 
ATOM     27  C   UNL     1       7.023   4.744  17.444  0.00  0.00    +0.000 C 
ATOM     28  C   UNL     1       5.510   4.435  17.394  0.00  0.00    +0.000 C 
ATOM     29  C   UNL     1       5.272   3.629  16.099  0.00  0.00    +0.000 C 
ATOM     30  C   UNL     1       5.755   4.437  14.886  0.00  0.00    +0.000 C 
ENDBRANCH  21  23
ENDBRANCH   6  21
TORSDOF 5
ENDMDL
MODEL 7
REMARK VINA RESULT:      -7.8      1.488      1.943
REMARK  Name = 
REMARK  5 active torsions:
REMARK  status: ('A' for Active; 'I' for Inactive)
REMARK    1  A    between atoms: C_2  and  C_3
REMARK    2  A    between atoms: C_6  and  N_7
REMARK    3  A    between atoms: C_11  and  C_12
REMARK    4  A    between atoms: C_16  and  N_17
REMARK    5  A    between atoms: N_17  and  C_18
REMARK                            x       y       z     vdW  Elec       q    Type
REMARK                         _______ _______ _______ _____ _____    ______ ____
ROOT
ATOM      1  N   UNL     1       1.593   7.906  21.320  0.00  0.00    +0.000 N 
ATOM      2  C   UNL     1       1.949   6.721  20.661  0.00  0.00    +0.000 A 
ATOM      3  N   UNL     1       1.394   5.620  21.168  0.00  0.00    +0.000 NA
ATOM      4  C   UNL     1       1.410   4.544  20.371  0.00  0.00    +0.000 A 
ATOM      5  C   UNL     1       1.935   4.542  19.093  0.00  0.00    +0.000 A 
ATOM      6  C   UNL     1       2.639   5.670  18.713  0.00  0.00    +0.000 A 
ATOM      7  N   UNL     1       2.633   6.760  19.501  0.00  0.00    +0.000 NA
ATOM      8  H   UNL     1       0.898   7.601  22.000  0.00  0.00    +0.000 HD
ENDROOT
BRANCH   1  12
ATOM      9  C   UNL     1       0.399  11.354  19.338  0.00  0.00    +0.000 A 
ATOM     10  C   UNL     1       0.797  10.263  18.587  0.00  0.00    +0.000 A 
ATOM     11  C   UNL     1       1.200   9.111  19.263  0.00  0.00    +0.000 A 
ATOM     12  C   UNL     1       1.157   9.069  20.657  0.00  0.00    +0.000 A 
ATOM     13  C   UNL     1       0.779  10.246  21.310  0.00  0.00    +0.000 A 
ATOM     14  N   UNL     1       0.398  11.386  20.687  0.00  0.00    +0.000 NA
BRANCH   9  16
ATOM     15  N   UNL     1      -0.410  13.504  18.143  0.00  0.00    +0.000 NA
ATOM     16  C   UNL     1      -0.038  12.558  18.698  0.00  0.00    +0.000 C 
ENDBRANCH   9  16
ENDBRANCH   1  12
BRANCH   5  17
ATOM     17  C   UNL     1       1.668   3.375  18.214  0.00  0.00    +0.000 C 
ATOM     18  F   UNL     1       1.401   3.744  16.922  0.00  0.00    +0.000 F 
ATOM     19  F   UNL     1       2.742   2.541  18.119  0.00  0.00    +0.000 F 
ATOM     20  F   UNL     1       0.611   2.610  18.589  0.00  0.00    +0.000 F 
ENDBRANCH   5  17
BRANCH   6  21
ATOM     21  N   UNL     1       3.228   5.765  17.446  0.00  0.00    +0.000 N 
ATOM     22  H   UNL     1       2.731   6.458  16.891  0.00  0.00    +0.000 HD
BRANCH  21  23
ATOM     23  C   UNL     1       4.704   5.908  17.334  0.00  0.00    +0.000 C 
ATOM     24  C   UNL     1       5.237   6.583  16.035  0.00  0.00    +0.000 C 
ATOM     25  N   UNL     1       6.245   5.753  15.306  0.00  0.00    +0.000 NA
ATOM     26  C   UNL     1       7.374   5.439  16.207  0.00  0.00    +0.000 C 
ATOM     27  C   UNL     1       6.898   4.690  17.462  0.00  0.00    +0.000 C 
ATOM     28  C   UNL     1       5.366   4.499  17.407  0.00  0.00    +0.000 C 
ATOM     29  C   UNL     1       5.071   3.712  16.112  0.00  0.00    +0.000 C 
ATOM     30  C   UNL     1       5.619   4.479  14.900  0.00  0.00    +0.000 C 
ENDBRANCH  21  23
ENDBRANCH   6  21
TORSDOF 5
ENDMDL
MODEL 8
REMARK VINA RESULT:      -7.8      0.957      1.183
REMARK  Name = 
REMARK  5 active torsions:
REMARK  status: ('A' for Active; 'I' for Inactive)
REMARK    1  A    between atoms: C_2  and  C_3
REMARK    2  A    between atoms: C_6  and  N_7
REMARK    3  A    between atoms: C_11  and  C_12
REMARK    4  A    between atoms: C_16  and  N_17
REMARK    5  A    between atoms: N_17  and  C_18
REMARK                            x       y       z     vdW  Elec       q    Type
REMARK                         _______ _______ _______ _____ _____    ______ ____
ROOT
ATOM      1  N   UNL     1       1.623   7.072  21.304  0.00  0.00    +0.000 N 
ATOM      2  C   UNL     1       2.130   5.972  20.599  0.00  0.00    +0.000 A 
ATOM      3  N   UNL     1       1.636   4.795  20.985  0.00  0.00    +0.000 NA
ATOM      4  C   UNL     1       1.806   3.786  20.122  0.00  0.00    +0.000 A 
ATOM      5  C   UNL     1       2.424   3.920  18.893  0.00  0.00    +0.000 A 
ATOM      6  C   UNL     1       3.054   5.126  18.648  0.00  0.00    +0.000 A 
ATOM      7  N   UNL     1       2.893   6.151  19.503  0.00  0.00    +0.000 NA
ATOM      8  H   UNL     1       0.908   6.662  21.903  0.00  0.00    +0.000 HD
ENDROOT
BRANCH   1  12
ATOM      9  C   UNL     1       0.112  10.476  19.466  0.00  0.00    +0.000 A 
ATOM     10  C   UNL     1      -0.380  10.121  20.710  0.00  0.00    +0.000 A 
ATOM     11  C   UNL     1       0.132   8.973  21.316  0.00  0.00    +0.000 A 
ATOM     12  C   UNL     1       1.139   8.241  20.687  0.00  0.00    +0.000 A 
ATOM     13  C   UNL     1       1.526   8.670  19.413  0.00  0.00    +0.000 A 
ATOM     14  N   UNL     1       1.040   9.768  18.788  0.00  0.00    +0.000 NA
BRANCH   9  16
ATOM     15  N   UNL     1      -0.780  12.574  18.239  0.00  0.00    +0.000 NA
ATOM     16  C   UNL     1      -0.366  11.652  18.803  0.00  0.00    +0.000 C 
ENDBRANCH   9  16
ENDBRANCH   1  12
BRANCH   5  17
ATOM     17  C   UNL     1       2.326   2.802  17.920  0.00  0.00    +0.000 C 
ATOM     18  F   UNL     1       2.064   3.238  16.648  0.00  0.00    +0.000 F 
ATOM     19  F   UNL     1       3.494   2.107  17.812  0.00  0.00    +0.000 F 
ATOM     20  F   UNL     1       1.354   1.895  18.190  0.00  0.00    +0.000 F 
ENDBRANCH   5  17
BRANCH   6  21
ATOM     21  N   UNL     1       3.726   5.361  17.443  0.00  0.00    +0.000 N 
ATOM     22  H   UNL     1       3.057   5.640  16.728  0.00  0.00    +0.000 HD
BRANCH  21  23
ATOM     23  C   UNL     1       4.943   6.216  17.437  0.00  0.00    +0.000 C 
ATOM     24  C   UNL     1       5.557   6.537  16.043  0.00  0.00    +0.000 C 
ATOM     25  N   UNL     1       7.004   6.175  15.933  0.00  0.00    +0.000 NA
ATOM     26  C   UNL     1       7.771   6.868  16.990  0.00  0.00    +0.000 C 
ATOM     27  C   UNL     1       7.250   6.504  18.390  0.00  0.00    +0.000 C 
ATOM     28  C   UNL     1       6.064   5.522  18.268  0.00  0.00    +0.000 C 
ATOM     29  C   UNL     1       6.597   4.289  17.506  0.00  0.00    +0.000 C 
ATOM     30  C   UNL     1       7.154   4.721  16.142  0.00  0.00    +0.000 C 
ENDBRANCH  21  23
ENDBRANCH   6  21
TORSDOF 5
ENDMDL
MODEL 9
REMARK VINA RESULT:      -7.4      2.483      4.905
REMARK  Name = 
REMARK  5 active torsions:
REMARK  status: ('A' for Active; 'I' for Inactive)
REMARK    1  A    between atoms: C_2  and  C_3
REMARK    2  A    between atoms: C_6  and  N_7
REMARK    3  A    between atoms: C_11  and  C_12
REMARK    4  A    between atoms: C_16  and  N_17
REMARK    5  A    between atoms: N_17  and  C_18
REMARK                            x       y       z     vdW  Elec       q    Type
REMARK                         _______ _______ _______ _____ _____    ______ ____
ROOT
ATOM      1  N   UNL     1       2.398   8.339  17.653  0.00  0.00    +0.000 N 
ATOM      2  C   UNL     1       3.413   7.373  17.628  0.00  0.00    +0.000 A 
ATOM      3  N   UNL     1       4.451   7.682  16.851  0.00  0.00    +0.000 NA
ATOM      4  C   UNL     1       5.572   6.986  17.076  0.00  0.00    +0.000 A 
ATOM      5  C   UNL     1       5.692   6.020  18.057  0.00  0.00    +0.000 A 
ATOM      6  C   UNL     1       4.526   5.644  18.699  0.00  0.00    +0.000 A 
ATOM      7  N   UNL     1       3.392   6.332  18.485  0.00  0.00    +0.000 NA
ATOM      8  H   UNL     1       2.785   9.104  17.102  0.00  0.00    +0.000 HD
ENDROOT
BRANCH   1  12
ATOM      9  C   UNL     1       0.602   9.719  21.133  0.00  0.00    +0.000 A 
ATOM     10  C   UNL     1       1.207   8.476  21.149  0.00  0.00    +0.000 A 
ATOM     11  C   UNL     1       1.804   8.020  19.973  0.00  0.00    +0.000 A 
ATOM     12  C   UNL     1       1.813   8.829  18.836  0.00  0.00    +0.000 A 
ATOM     13  C   UNL     1       1.133  10.047  18.926  0.00  0.00    +0.000 A 
ATOM     14  N   UNL     1       0.530  10.513  20.044  0.00  0.00    +0.000 NA
BRANCH   9  16
ATOM     15  N   UNL     1      -0.542  10.696  23.241  0.00  0.00    +0.000 NA
ATOM     16  C   UNL     1      -0.014  10.245  22.314  0.00  0.00    +0.000 C 
ENDBRANCH   9  16
ENDBRANCH   1  12
BRANCH   5  17
ATOM     17  C   UNL     1       7.045   5.500  18.384  0.00  0.00    +0.000 C 
ATOM     18  F   UNL     1       8.043   6.234  17.800  0.00  0.00    +0.000 F 
ATOM     19  F   UNL     1       7.312   5.558  19.721  0.00  0.00    +0.000 F 
ATOM     20  F   UNL     1       7.272   4.220  17.995  0.00  0.00    +0.000 F 
ENDBRANCH   5  17
BRANCH   6  21
ATOM     21  N   UNL     1       4.532   4.660  19.695  0.00  0.00    +0.000 N 
ATOM     22  H   UNL     1       4.261   5.074  20.584  0.00  0.00    +0.000 HD
BRANCH  21  23
ATOM     23  C   UNL     1       3.849   3.362  19.448  0.00  0.00    +0.000 C 
ATOM     24  C   UNL     1       3.446   3.062  17.975  0.00  0.00    +0.000 C 
ATOM     25  N   UNL     1       1.995   2.738  17.810  0.00  0.00    +0.000 NA
ATOM     26  C   UNL     1       1.642   1.589  18.671  0.00  0.00    +0.000 C 
ATOM     27  C   UNL     1       1.943   1.883  20.150  0.00  0.00    +0.000 C 
ATOM     28  C   UNL     1       2.539   3.301  20.290  0.00  0.00    +0.000 C 
ATOM     29  C   UNL     1       1.492   4.273  19.704  0.00  0.00    +0.000 C 
ATOM     30  C   UNL     1       1.189   3.897  18.247  0.00  0.00    +0.000 C 
ENDBRANCH  21  23
ENDBRANCH   6  21
TORSDOF 5
ENDMDL
