MODEL 1
REMARK VINA RESULT:      -7.6      0.000      0.000
REMARK  Name = 
REMARK  14 active torsions:
REMARK  status: ('A' for Active; 'I' for Inactive)
REMARK    1  A    between atoms: C_2  and  O_3
REMARK    2  A    between atoms: C_2  and  C_4
REMARK    3  A    between atoms: C_4  and  C_5
REMARK    4  A    between atoms: C_5  and  N_6
REMARK    5  A    between atoms: N_6  and  C_7
REMARK    6  A    between atoms: C_7  and  N_9
REMARK    7  A    between atoms: N_9  and  C_10
REMARK    8  A    between atoms: C_10  and  C_11
REMARK    9  A    between atoms: C_11  and  C_12
REMARK   10  A    between atoms: C_12  and  N_13
REMARK   11  A    between atoms: CA_16  and  C_17
REMARK   12  A    between atoms: C_17  and  OXT_19
REMARK   13  A    between atoms: N_22  and  C_23
REMARK   14  A    between atoms: C_23  and  C_24
REMARK                            x       y       z     vdW  Elec       q    Type
REMARK                         _______ _______ _______ _____ _____    ______ ____
ROOT
ATOM      1  N   UNL     1       4.049   5.248  17.589  0.00  0.00    +0.000 N 
ATOM      2  C   UNL     1       3.333   5.101  18.779  0.00  0.00    +0.000 A 
ATOM      3  C   UNL     1       3.355   3.935  19.507  0.00  0.00    +0.000 A 
ATOM      4  CA  UNL     1       2.612   3.940  20.662  0.00  0.00    +0.000 A 
ATOM      5  N   UNL     1       1.912   4.991  21.126  0.00  0.00    +0.000 NA
ATOM      6  C   UNL     1       1.979   6.100  20.379  0.00  0.00    +0.000 A 
ATOM      7  N   UNL     1       1.340   7.181  20.907  0.00  0.00    +0.000 N 
ATOM      8  N   UNL     1       2.669   6.183  19.221  0.00  0.00    +0.000 NA
ATOM      9  H   UNL     1       3.717   6.086  17.117  0.00  0.00    +0.000 HD
ATOM     10  H   UNL     1       0.388   6.991  21.195  0.00  0.00    +0.000 HD
ENDROOT
BRANCH   4  11
ATOM     11  C   UNL     1       2.605   2.716  21.507  0.00  0.00    +0.000 C 
ATOM     12  O   UNL     1       1.629   2.335  22.131  0.00  0.00    +0.000 OA
BRANCH  11  13
ATOM     13  OXT UNL     1       3.780   2.054  21.450  0.00  0.00    +0.000 OA
ATOM     14  HXT UNL     1       4.535   2.662  21.610  0.00  0.00    +0.000 HD
ENDBRANCH  11  13
ENDBRANCH   4  11
BRANCH   1  15
ATOM     15  C   UNL     1       4.287   4.072  16.760  0.00  0.00    +0.000 C 
BRANCH  15  16
ATOM     16  C   UNL     1       5.514   4.233  15.854  0.00  0.00    +0.000 C 
BRANCH  16  17
ATOM     17  C   UNL     1       5.827   5.726  15.739  0.00  0.00    +0.000 C 
BRANCH  17  18
ATOM     18  N   UNL     1       7.158   6.123  16.182  0.00  0.00    +0.000 N 
ATOM     19  H   UNL     1       7.955   5.803  15.647  0.00  0.00    +0.000 HD
BRANCH  18  20
ATOM     20  C   UNL     1       7.407   6.659  17.437  0.00  0.00    +0.000 C 
ATOM     21  S   UNL     1       7.503   5.764  18.848  0.00  0.00    +0.000 S 
BRANCH  20  22
ATOM     22  N   UNL     1       7.643   8.017  17.357  0.00  0.00    +0.000 N 
ATOM     23  H   UNL     1       7.031   8.545  16.746  0.00  0.00    +0.000 HD
BRANCH  22  24
ATOM     24  C   UNL     1       8.454   8.800  18.297  0.00  0.00    +0.000 C 
BRANCH  24  25
ATOM     25  C   UNL     1       8.454  10.277  17.907  0.00  0.00    +0.000 C 
BRANCH  25  27
ATOM     26  O   UNL     1      10.554  11.430  17.655  0.00  0.00    +0.000 OA
ATOM     27  C   UNL     1       9.701  10.959  18.386  0.00  0.00    +0.000 C 
BRANCH  27  28
ATOM     28  O   UNL     1       9.834  10.958  19.735  0.00  0.00    +0.000 OA
ATOM     29  H   UNL     1       9.971  11.838  20.132  0.00  0.00    +0.000 HD
ENDBRANCH  27  28
ENDBRANCH  25  27
ENDBRANCH  24  25
ENDBRANCH  22  24
ENDBRANCH  20  22
ENDBRANCH  18  20
ENDBRANCH  17  18
ENDBRANCH  16  17
ENDBRANCH  15  16
ENDBRANCH   1  15
BRANCH   7  30
ATOM     30  C   UNL     1       1.663   8.516  20.471  0.00  0.00    +0.000 C 
BRANCH  30  31
ATOM     31  C   UNL     1       0.783   9.486  21.236  0.00  0.00    +0.000 A 
ATOM     32  C   UNL     1       0.639  10.811  20.790  0.00  0.00    +0.000 A 
ATOM     33  C   UNL     1      -0.151  11.721  21.496  0.00  0.00    +0.000 A 
ATOM     34  C   UNL     1      -0.798  11.321  22.664  0.00  0.00    +0.000 A 
ATOM     35  C   UNL     1      -0.648  10.016  23.128  0.00  0.00    +0.000 A 
ATOM     36  C   UNL     1       0.143   9.103  22.422  0.00  0.00    +0.000 A 
ENDBRANCH  30  31
ENDBRANCH   7  30
TORSDOF 14
ENDMDL
MODEL 2
REMARK VINA RESULT:      -7.4      5.680      9.971
REMARK  Name = 
REMARK  14 active torsions:
REMARK  status: ('A' for Active; 'I' for Inactive)
REMARK    1  A    between atoms: C_2  and  O_3
REMARK    2  A    between atoms: C_2  and  C_4
REMARK    3  A    between atoms: C_4  and  C_5
REMARK    4  A    between atoms: C_5  and  N_6
REMARK    5  A    between atoms: N_6  and  C_7
REMARK    6  A    between atoms: C_7  and  N_9
REMARK    7  A    between atoms: N_9  and  C_10
REMARK    8  A    between atoms: C_10  and  C_11
REMARK    9  A    between atoms: C_11  and  C_12
REMARK   10  A    between atoms: C_12  and  N_13
REMARK   11  A    between atoms: CA_16  and  C_17
REMARK   12  A    between atoms: C_17  and  OXT_19
REMARK   13  A    between atoms: N_22  and  C_23
REMARK   14  A    between atoms: C_23  and  C_24
REMARK                            x       y       z     vdW  Elec       q    Type
REMARK                         _______ _______ _______ _____ _____    ______ ____
ROOT
ATOM      1  N   UNL     1       0.601  11.040  18.442  0.00  0.00    +0.000 N 
ATOM      2  C   UNL     1       0.812  10.237  19.564  0.00  0.00    +0.000 A 
ATOM      3  C   UNL     1       0.301  10.557  20.800  0.00  0.00    +0.000 A 
ATOM      4  CA  UNL     1       0.580   9.666  21.809  0.00  0.00    +0.000 A 
ATOM      5  N   UNL     1       1.273   8.523  21.660  0.00  0.00    +0.000 NA
ATOM      6  C   UNL     1       1.697   8.267  20.417  0.00  0.00    +0.000 A 
ATOM      7  N   UNL     1       2.319   7.064  20.264  0.00  0.00    +0.000 N 
ATOM      8  N   UNL     1       1.486   9.090  19.368  0.00  0.00    +0.000 NA
ATOM      9  H   UNL     1       1.240  10.741  17.710  0.00  0.00    +0.000 HD
ATOM     10  H   UNL     1       3.051   6.895  20.943  0.00  0.00    +0.000 HD
ENDROOT
BRANCH   4  11
ATOM     11  C   UNL     1       0.042   9.943  23.167  0.00  0.00    +0.000 C 
ATOM     12  O   UNL     1       0.281   9.246  24.140  0.00  0.00    +0.000 OA
BRANCH  11  13
ATOM     13  OXT UNL     1      -0.685  11.079  23.205  0.00  0.00    +0.000 OA
ATOM     14  HXT UNL     1      -1.646  10.880  23.253  0.00  0.00    +0.000 HD
ENDBRANCH  11  13
ENDBRANCH   4  11
BRANCH   1  15
ATOM     15  C   UNL     1       0.432  12.477  18.626  0.00  0.00    +0.000 C 
BRANCH  15  16
ATOM     16  C   UNL     1      -0.904  12.985  18.070  0.00  0.00    +0.000 C 
BRANCH  16  17
ATOM     17  C   UNL     1      -2.011  12.056  18.568  0.00  0.00    +0.000 C 
BRANCH  17  18
ATOM     18  N   UNL     1      -3.286  12.169  17.869  0.00  0.00    +0.000 N 
ATOM     19  H   UNL     1      -3.921  12.905  18.150  0.00  0.00    +0.000 HD
BRANCH  18  20
ATOM     20  C   UNL     1      -3.792  11.166  17.055  0.00  0.00    +0.000 C 
ATOM     21  S   UNL     1      -2.951   9.788  16.615  0.00  0.00    +0.000 S 
BRANCH  20  22
ATOM     22  N   UNL     1      -5.108  11.417  16.722  0.00  0.00    +0.000 N 
ATOM     23  H   UNL     1      -5.534  10.782  16.058  0.00  0.00    +0.000 HD
BRANCH  22  24
ATOM     24  C   UNL     1      -6.026  12.290  17.465  0.00  0.00    +0.000 C 
BRANCH  24  25
ATOM     25  C   UNL     1      -6.988  11.462  18.314  0.00  0.00    +0.000 C 
BRANCH  25  27
ATOM     26  O   UNL     1      -6.961  10.569  20.551  0.00  0.00    +0.000 OA
ATOM     27  C   UNL     1      -6.469  11.301  19.712  0.00  0.00    +0.000 C 
BRANCH  27  28
ATOM     28  O   UNL     1      -5.413  12.103  19.992  0.00  0.00    +0.000 OA
ATOM     29  H   UNL     1      -4.566  11.635  20.114  0.00  0.00    +0.000 HD
ENDBRANCH  27  28
ENDBRANCH  25  27
ENDBRANCH  24  25
ENDBRANCH  22  24
ENDBRANCH  20  22
ENDBRANCH  18  20
ENDBRANCH  17  18
ENDBRANCH  16  17
ENDBRANCH  15  16
ENDBRANCH   1  15
BRANCH   7  30
ATOM     30  C   UNL     1       2.447   6.458  18.964  0.00  0.00    +0.000 C 
BRANCH  30  31
ATOM     31  C   UNL     1       2.025   5.005  19.078  0.00  0.00    +0.000 A 
ATOM     32  C   UNL     1       2.203   4.131  17.993  0.00  0.00    +0.000 A 
ATOM     33  C   UNL     1       1.799   2.796  18.078  0.00  0.00    +0.000 A 
ATOM     34  C   UNL     1       1.201   2.322  19.245  0.00  0.00    +0.000 A 
ATOM     35  C   UNL     1       1.000   3.184  20.320  0.00  0.00    +0.000 A 
ATOM     36  C   UNL     1       1.404   4.521  20.238  0.00  0.00    +0.000 A 
ENDBRANCH  30  31
ENDBRANCH   7  30
TORSDOF 14
ENDMDL
MODEL 3
REMARK VINA RESULT:      -7.4      0.730      1.275
REMARK  Name = 
REMARK  14 active torsions:
REMARK  status: ('A' for Active; 'I' for Inactive)
REMARK    1  A    between atoms: C_2  and  O_3
REMARK    2  A    between atoms: C_2  and  C_4
REMARK    3  A    between atoms: C_4  and  C_5
REMARK    4  A    between atoms: C_5  and  N_6
REMARK    5  A    between atoms: N_6  and  C_7
REMARK    6  A    between atoms: C_7  and  N_9
REMARK    7  A    between atoms: N_9  and  C_10
REMARK    8  A    between atoms: C_10  and  C_11
REMARK    9  A    between atoms: C_11  and  C_12
REMARK   10  A    between atoms: C_12  and  N_13
REMARK   11  A    between atoms: CA_16  and  C_17
REMARK   12  A    between atoms: C_17  and  OXT_19
REMARK   13  A    between atoms: N_22  and  C_23
REMARK   14  A    between atoms: C_23  and  C_24
REMARK                            x       y       z     vdW  Elec       q    Type
REMARK                         _______ _______ _______ _____ _____    ______ ____
ROOT
ATOM      1  N   UNL     1       4.289   5.368  16.880  0.00  0.00    +0.000 N 
ATOM      2  C   UNL     1       3.736   5.123  18.138  0.00  0.00    +0.000 A 
ATOM      3  C   UNL     1       4.016   3.982  18.852  0.00  0.00    +0.000 A 
ATOM      4  CA  UNL     1       3.408   3.883  20.080  0.00  0.00    +0.000 A 
ATOM      5  N   UNL     1       2.607   4.817  20.623  0.00  0.00    +0.000 NA
ATOM      6  C   UNL     1       2.422   5.915  19.881  0.00  0.00    +0.000 A 
ATOM      7  N   UNL     1       1.682   6.889  20.481  0.00  0.00    +0.000 N 
ATOM      8  N   UNL     1       2.962   6.093  18.657  0.00  0.00    +0.000 NA
ATOM      9  H   UNL     1       3.782   6.139  16.452  0.00  0.00    +0.000 HD
ATOM     10  H   UNL     1       0.807   6.556  20.868  0.00  0.00    +0.000 HD
ENDROOT
BRANCH   4  11
ATOM     11  C   UNL     1       3.682   2.681  20.912  0.00  0.00    +0.000 C 
ATOM     12  O   UNL     1       4.638   1.944  20.736  0.00  0.00    +0.000 OA
BRANCH  11  13
ATOM     13  OXT UNL     1       2.786   2.541  21.912  0.00  0.00    +0.000 OA
ATOM     14  HXT UNL     1       2.485   3.417  22.240  0.00  0.00    +0.000 HD
ENDBRANCH  11  13
ENDBRANCH   4  11
BRANCH   1  15
ATOM     15  C   UNL     1       4.617   4.235  16.022  0.00  0.00    +0.000 C 
BRANCH  15  16
ATOM     16  C   UNL     1       5.810   4.523  15.103  0.00  0.00    +0.000 C 
BRANCH  16  17
ATOM     17  C   UNL     1       7.057   4.678  15.976  0.00  0.00    +0.000 C 
BRANCH  17  18
ATOM     18  N   UNL     1       7.475   6.052  16.232  0.00  0.00    +0.000 N 
ATOM     19  H   UNL     1       7.979   6.541  15.503  0.00  0.00    +0.000 HD
BRANCH  18  20
ATOM     20  C   UNL     1       7.480   6.616  17.499  0.00  0.00    +0.000 C 
ATOM     21  S   UNL     1       7.392   5.745  18.925  0.00  0.00    +0.000 S 
BRANCH  20  22
ATOM     22  N   UNL     1       7.645   7.985  17.430  0.00  0.00    +0.000 N 
ATOM     23  H   UNL     1       6.958   8.496  16.888  0.00  0.00    +0.000 HD
BRANCH  22  24
ATOM     24  C   UNL     1       8.502   8.787  18.312  0.00  0.00    +0.000 C 
BRANCH  24  25
ATOM     25  C   UNL     1       8.527  10.245  17.858  0.00  0.00    +0.000 C 
BRANCH  25  27
ATOM     26  O   UNL     1      10.476  11.653  18.019  0.00  0.00    +0.000 OA
ATOM     27  C   UNL     1       9.599  11.013  18.573  0.00  0.00    +0.000 C 
BRANCH  27  28
ATOM     28  O   UNL     1       9.548  10.886  19.920  0.00  0.00    +0.000 OA
ATOM     29  H   UNL     1       8.648  10.850  20.293  0.00  0.00    +0.000 HD
ENDBRANCH  27  28
ENDBRANCH  25  27
ENDBRANCH  24  25
ENDBRANCH  22  24
ENDBRANCH  20  22
ENDBRANCH  18  20
ENDBRANCH  17  18
ENDBRANCH  16  17
ENDBRANCH  15  16
ENDBRANCH   1  15
BRANCH   7  30
ATOM     30  C   UNL     1       1.745   8.254  20.023  0.00  0.00    +0.000 C 
BRANCH  30  31
ATOM     31  C   UNL     1       0.937   9.110  20.980  0.00  0.00    +0.000 A 
ATOM     32  C   UNL     1       0.660   8.649  22.278  0.00  0.00    +0.000 A 
ATOM     33  C   UNL     1      -0.102   9.417  23.161  0.00  0.00    +0.000 A 
ATOM     34  C   UNL     1      -0.607  10.651  22.753  0.00  0.00    +0.000 A 
ATOM     35  C   UNL     1      -0.357  11.110  21.462  0.00  0.00    +0.000 A 
ATOM     36  C   UNL     1       0.406  10.342  20.576  0.00  0.00    +0.000 A 
ENDBRANCH  30  31
ENDBRANCH   7  30
TORSDOF 14
ENDMDL
MODEL 4
REMARK VINA RESULT:      -7.3      4.395      8.644
REMARK  Name = 
REMARK  14 active torsions:
REMARK  status: ('A' for Active; 'I' for Inactive)
REMARK    1  A    between atoms: C_2  and  O_3
REMARK    2  A    between atoms: C_2  and  C_4
REMARK    3  A    between atoms: C_4  and  C_5
REMARK    4  A    between atoms: C_5  and  N_6
REMARK    5  A    between atoms: N_6  and  C_7
REMARK    6  A    between atoms: C_7  and  N_9
REMARK    7  A    between atoms: N_9  and  C_10
REMARK    8  A    between atoms: C_10  and  C_11
REMARK    9  A    between atoms: C_11  and  C_12
REMARK   10  A    between atoms: C_12  and  N_13
REMARK   11  A    between atoms: CA_16  and  C_17
REMARK   12  A    between atoms: C_17  and  OXT_19
REMARK   13  A    between atoms: N_22  and  C_23
REMARK   14  A    between atoms: C_23  and  C_24
REMARK                            x       y       z     vdW  Elec       q    Type
REMARK                         _______ _______ _______ _____ _____    ______ ____
ROOT
ATOM      1  N   UNL     1       3.166   7.608  17.791  0.00  0.00    +0.000 N 
ATOM      2  C   UNL     1       3.475   6.247  17.810  0.00  0.00    +0.000 A 
ATOM      3  C   UNL     1       2.550   5.290  18.152  0.00  0.00    +0.000 A 
ATOM      4  CA  UNL     1       2.994   3.990  18.114  0.00  0.00    +0.000 A 
ATOM      5  N   UNL     1       4.230   3.607  17.745  0.00  0.00    +0.000 NA
ATOM      6  C   UNL     1       5.054   4.598  17.387  0.00  0.00    +0.000 A 
ATOM      7  N   UNL     1       6.271   4.188  16.931  0.00  0.00    +0.000 N 
ATOM      8  N   UNL     1       4.712   5.904  17.409  0.00  0.00    +0.000 NA
ATOM      9  H   UNL     1       4.034   8.133  17.732  0.00  0.00    +0.000 HD
ATOM     10  H   UNL     1       6.735   3.529  17.544  0.00  0.00    +0.000 HD
ENDROOT
BRANCH   4  11
ATOM     11  C   UNL     1       2.039   2.904  18.457  0.00  0.00    +0.000 C 
ATOM     12  O   UNL     1       1.386   2.881  19.487  0.00  0.00    +0.000 OA
BRANCH  11  13
ATOM     13  OXT UNL     1       1.939   1.986  17.472  0.00  0.00    +0.000 OA
ATOM     14  HXT UNL     1       2.405   1.155  17.717  0.00  0.00    +0.000 HD
ENDBRANCH  11  13
ENDBRANCH   4  11
BRANCH   1  15
ATOM     15  C   UNL     1       2.149   8.111  18.708  0.00  0.00    +0.000 C 
BRANCH  15  16
ATOM     16  C   UNL     1       1.252   9.174  18.061  0.00  0.00    +0.000 C 
BRANCH  16  17
ATOM     17  C   UNL     1       1.924  10.536  18.239  0.00  0.00    +0.000 C 
BRANCH  17  18
ATOM     18  N   UNL     1       1.022  11.646  18.526  0.00  0.00    +0.000 N 
ATOM     19  H   UNL     1       1.380  12.588  18.432  0.00  0.00    +0.000 HD
BRANCH  18  20
ATOM     20  C   UNL     1      -0.186  11.485  19.189  0.00  0.00    +0.000 C 
ATOM     21  S   UNL     1      -1.689  11.605  18.463  0.00  0.00    +0.000 S 
BRANCH  20  22
ATOM     22  N   UNL     1       0.018  11.135  20.509  0.00  0.00    +0.000 N 
ATOM     23  H   UNL     1       0.692  10.398  20.681  0.00  0.00    +0.000 HD
BRANCH  22  24
ATOM     24  C   UNL     1      -0.385  11.930  21.676  0.00  0.00    +0.000 C 
BRANCH  24  25
ATOM     25  C   UNL     1      -1.018  11.038  22.742  0.00  0.00    +0.000 C 
BRANCH  25  27
ATOM     26  O   UNL     1       0.645   9.610  23.740  0.00  0.00    +0.000 OA
ATOM     27  C   UNL     1      -0.237   9.770  22.915  0.00  0.00    +0.000 C 
BRANCH  27  28
ATOM     28  O   UNL     1      -0.560   8.809  22.016  0.00  0.00    +0.000 OA
ATOM     29  H   UNL     1      -1.431   8.394  22.158  0.00  0.00    +0.000 HD
ENDBRANCH  27  28
ENDBRANCH  25  27
ENDBRANCH  24  25
ENDBRANCH  22  24
ENDBRANCH  20  22
ENDBRANCH  18  20
ENDBRANCH  17  18
ENDBRANCH  16  17
ENDBRANCH  15  16
ENDBRANCH   1  15
BRANCH   7  30
ATOM     30  C   UNL     1       7.090   5.058  16.125  0.00  0.00    +0.000 C 
BRANCH  30  31
ATOM     31  C   UNL     1       6.927   4.647  14.674  0.00  0.00    +0.000 A 
ATOM     32  C   UNL     1       7.744   5.216  13.683  0.00  0.00    +0.000 A 
ATOM     33  C   UNL     1       7.590   4.863  12.341  0.00  0.00    +0.000 A 
ATOM     34  C   UNL     1       6.608   3.945  11.970  0.00  0.00    +0.000 A 
ATOM     35  C   UNL     1       5.778   3.389  12.941  0.00  0.00    +0.000 A 
ATOM     36  C   UNL     1       5.931   3.741  14.286  0.00  0.00    +0.000 A 
ENDBRANCH  30  31
ENDBRANCH   7  30
TORSDOF 14
ENDMDL
MODEL 5
REMARK VINA RESULT:      -7.2      6.185     10.433
REMARK  Name = 
REMARK  14 active torsions:
REMARK  status: ('A' for Active; 'I' for Inactive)
REMARK    1  A    between atoms: C_2  and  O_3
REMARK    2  A    between atoms: C_2  and  C_4
REMARK    3  A    between atoms: C_4  and  C_5
REMARK    4  A    between atoms: C_5  and  N_6
REMARK    5  A    between atoms: N_6  and  C_7
REMARK    6  A    between atoms: C_7  and  N_9
REMARK    7  A    between atoms: N_9  and  C_10
REMARK    8  A    between atoms: C_10  and  C_11
REMARK    9  A    between atoms: C_11  and  C_12
REMARK   10  A    between atoms: C_12  and  N_13
REMARK   11  A    between atoms: CA_16  and  C_17
REMARK   12  A    between atoms: C_17  and  OXT_19
REMARK   13  A    between atoms: N_22  and  C_23
REMARK   14  A    between atoms: C_23  and  C_24
REMARK                            x       y       z     vdW  Elec       q    Type
REMARK                         _______ _______ _______ _____ _____    ______ ____
ROOT
ATOM      1  N   UNL     1      -0.451  10.592  18.218  0.00  0.00    +0.000 N 
ATOM      2  C   UNL     1       0.059  10.023  19.386  0.00  0.00    +0.000 A 
ATOM      3  C   UNL     1      -0.406  10.368  20.632  0.00  0.00    +0.000 A 
ATOM      4  CA  UNL     1       0.182   9.717  21.690  0.00  0.00    +0.000 A 
ATOM      5  N   UNL     1       1.131   8.770  21.581  0.00  0.00    +0.000 NA
ATOM      6  C   UNL     1       1.497   8.464  20.331  0.00  0.00    +0.000 A 
ATOM      7  N   UNL     1       2.393   7.442  20.235  0.00  0.00    +0.000 N 
ATOM      8  N   UNL     1       0.988   9.063  19.234  0.00  0.00    +0.000 NA
ATOM      9  H   UNL     1       0.177  10.365  17.450  0.00  0.00    +0.000 HD
ATOM     10  H   UNL     1       3.201   7.551  20.836  0.00  0.00    +0.000 HD
ENDROOT
BRANCH   4  11
ATOM     11  C   UNL     1      -0.287  10.030  23.065  0.00  0.00    +0.000 C 
ATOM     12  O   UNL     1      -1.319  10.636  23.303  0.00  0.00    +0.000 OA
BRANCH  11  13
ATOM     13  OXT UNL     1       0.530   9.517  24.010  0.00  0.00    +0.000 OA
ATOM     14  HXT UNL     1       0.740  10.189  24.696  0.00  0.00    +0.000 HD
ENDBRANCH  11  13
ENDBRANCH   4  11
BRANCH   1  15
ATOM     15  C   UNL     1      -0.969  11.955  18.267  0.00  0.00    +0.000 C 
BRANCH  15  16
ATOM     16  C   UNL     1      -2.475  11.997  18.556  0.00  0.00    +0.000 C 
BRANCH  16  17
ATOM     17  C   UNL     1      -3.205  11.360  17.373  0.00  0.00    +0.000 C 
BRANCH  17  18
ATOM     18  N   UNL     1      -4.530  10.827  17.668  0.00  0.00    +0.000 N 
ATOM     19  H   UNL     1      -4.758   9.901  17.329  0.00  0.00    +0.000 HD
BRANCH  18  20
ATOM     20  C   UNL     1      -5.576  11.615  18.123  0.00  0.00    +0.000 C 
ATOM     21  S   UNL     1      -6.281  12.854  17.247  0.00  0.00    +0.000 S 
BRANCH  20  22
ATOM     22  N   UNL     1      -6.011  11.191  19.363  0.00  0.00    +0.000 N 
ATOM     23  H   UNL     1      -5.312  11.140  20.094  0.00  0.00    +0.000 HD
BRANCH  22  24
ATOM     24  C   UNL     1      -7.412  11.128  19.801  0.00  0.00    +0.000 C 
BRANCH  24  25
ATOM     25  C   UNL     1      -7.563  11.711  21.205  0.00  0.00    +0.000 C 
BRANCH  25  27
ATOM     26  O   UNL     1      -5.512  12.346  22.297  0.00  0.00    +0.000 OA
ATOM     27  C   UNL     1      -6.420  12.624  21.534  0.00  0.00    +0.000 C 
BRANCH  27  28
ATOM     28  O   UNL     1      -6.510  13.839  20.942  0.00  0.00    +0.000 OA
ATOM     29  H   UNL     1      -7.374  14.031  20.533  0.00  0.00    +0.000 HD
ENDBRANCH  27  28
ENDBRANCH  25  27
ENDBRANCH  24  25
ENDBRANCH  22  24
ENDBRANCH  20  22
ENDBRANCH  18  20
ENDBRANCH  17  18
ENDBRANCH  16  17
ENDBRANCH  15  16
ENDBRANCH   1  15
BRANCH   7  30
ATOM     30  C   UNL     1       2.559   6.719  19.000  0.00  0.00    +0.000 C 
BRANCH  30  31
ATOM     31  C   UNL     1       1.984   5.327  19.189  0.00  0.00    +0.000 A 
ATOM     32  C   UNL     1       1.636   4.876  20.473  0.00  0.00    +0.000 A 
ATOM     33  C   UNL     1       1.127   3.590  20.665  0.00  0.00    +0.000 A 
ATOM     34  C   UNL     1       0.970   2.734  19.575  0.00  0.00    +0.000 A 
ATOM     35  C   UNL     1       1.330   3.162  18.300  0.00  0.00    +0.000 A 
ATOM     36  C   UNL     1       1.840   4.450  18.106  0.00  0.00    +0.000 A 
ENDBRANCH  30  31
ENDBRANCH   7  30
TORSDOF 14
ENDMDL
MODEL 6
REMARK VINA RESULT:      -7.2      4.047      8.510
REMARK  Name = 
REMARK  14 active torsions:
REMARK  status: ('A' for Active; 'I' for Inactive)
REMARK    1  A    between atoms: C_2  and  O_3
REMARK    2  A    between atoms: C_2  and  C_4
REMARK    3  A    between atoms: C_4  and  C_5
REMARK    4  A    between atoms: C_5  and  N_6
REMARK    5  A    between atoms: N_6  and  C_7
REMARK    6  A    between atoms: C_7  and  N_9
REMARK    7  A    between atoms: N_9  and  C_10
REMARK    8  A    between atoms: C_10  and  C_11
REMARK    9  A    between atoms: C_11  and  C_12
REMARK   10  A    between atoms: C_12  and  N_13
REMARK   11  A    between atoms: CA_16  and  C_17
REMARK   12  A    between atoms: C_17  and  OXT_19
REMARK   13  A    between atoms: N_22  and  C_23
REMARK   14  A    between atoms: C_23  and  C_24
REMARK                            x       y       z     vdW  Elec       q    Type
REMARK                         _______ _______ _______ _____ _____    ______ ____
ROOT
ATOM      1  N   UNL     1       3.222   7.681  17.736  0.00  0.00    +0.000 N 
ATOM      2  C   UNL     1       3.536   6.321  17.749  0.00  0.00    +0.000 A 
ATOM      3  C   UNL     1       2.620   5.361  18.108  0.00  0.00    +0.000 A 
ATOM      4  CA  UNL     1       3.068   4.063  18.062  0.00  0.00    +0.000 A 
ATOM      5  N   UNL     1       4.298   3.684  17.671  0.00  0.00    +0.000 NA
ATOM      6  C   UNL     1       5.113   4.677  17.298  0.00  0.00    +0.000 A 
ATOM      7  N   UNL     1       6.323   4.272  16.821  0.00  0.00    +0.000 N 
ATOM      8  N   UNL     1       4.767   5.982  17.327  0.00  0.00    +0.000 NA
ATOM      9  H   UNL     1       4.088   8.209  17.662  0.00  0.00    +0.000 HD
ATOM     10  H   UNL     1       6.800   3.614  17.425  0.00  0.00    +0.000 HD
ENDROOT
BRANCH   4  11
ATOM     11  C   UNL     1       2.122   2.973  18.422  0.00  0.00    +0.000 C 
ATOM     12  O   UNL     1       2.418   2.036  19.145  0.00  0.00    +0.000 OA
BRANCH  11  13
ATOM     13  OXT UNL     1       0.892   3.177  17.904  0.00  0.00    +0.000 OA
ATOM     14  HXT UNL     1       0.906   3.900  17.238  0.00  0.00    +0.000 HD
ENDBRANCH  11  13
ENDBRANCH   4  11
BRANCH   1  15
ATOM     15  C   UNL     1       2.220   8.181  18.671  0.00  0.00    +0.000 C 
BRANCH  15  16
ATOM     16  C   UNL     1       1.230   9.146  18.007  0.00  0.00    +0.000 C 
BRANCH  16  17
ATOM     17  C   UNL     1       1.767  10.568  18.173  0.00  0.00    +0.000 C 
BRANCH  17  18
ATOM     18  N   UNL     1       0.799  11.552  18.643  0.00  0.00    +0.000 N 
ATOM     19  H   UNL     1       0.261  12.061  17.953  0.00  0.00    +0.000 HD
BRANCH  18  20
ATOM     20  C   UNL     1       0.783  12.032  19.945  0.00  0.00    +0.000 C 
ATOM     21  S   UNL     1       1.667  13.348  20.481  0.00  0.00    +0.000 S 
BRANCH  20  22
ATOM     22  N   UNL     1      -0.119  11.330  20.719  0.00  0.00    +0.000 N 
ATOM     23  H   UNL     1      -0.497  10.481  20.313  0.00  0.00    +0.000 HD
BRANCH  22  24
ATOM     24  C   UNL     1      -0.324  11.505  22.162  0.00  0.00    +0.000 C 
BRANCH  24  25
ATOM     25  C   UNL     1      -0.437  10.150  22.859  0.00  0.00    +0.000 C 
BRANCH  25  27
ATOM     26  O   UNL     1       0.063   8.238  21.482  0.00  0.00    +0.000 OA
ATOM     27  C   UNL     1       0.454   9.135  22.207  0.00  0.00    +0.000 C 
BRANCH  27  28
ATOM     28  O   UNL     1       1.759   9.265  22.545  0.00  0.00    +0.000 OA
ATOM     29  H   UNL     1       2.326   9.642  21.847  0.00  0.00    +0.000 HD
ENDBRANCH  27  28
ENDBRANCH  25  27
ENDBRANCH  24  25
ENDBRANCH  22  24
ENDBRANCH  20  22
ENDBRANCH  18  20
ENDBRANCH  17  18
ENDBRANCH  16  17
ENDBRANCH  15  16
ENDBRANCH   1  15
BRANCH   7  30
ATOM     30  C   UNL     1       7.124   5.144  16.001  0.00  0.00    +0.000 C 
BRANCH  30  31
ATOM     31  C   UNL     1       6.978   4.700  14.558  0.00  0.00    +0.000 A 
ATOM     32  C   UNL     1       7.792   5.262  13.560  0.00  0.00    +0.000 A 
ATOM     33  C   UNL     1       7.653   4.878  12.225  0.00  0.00    +0.000 A 
ATOM     34  C   UNL     1       6.691   3.934  11.868  0.00  0.00    +0.000 A 
ATOM     35  C   UNL     1       5.864   3.384  12.845  0.00  0.00    +0.000 A 
ATOM     36  C   UNL     1       6.001   3.767  14.183  0.00  0.00    +0.000 A 
ENDBRANCH  30  31
ENDBRANCH   7  30
TORSDOF 14
ENDMDL
MODEL 7
REMARK VINA RESULT:      -7.2      4.689      9.344
REMARK  Name = 
REMARK  14 active torsions:
REMARK  status: ('A' for Active; 'I' for Inactive)
REMARK    1  A    between atoms: C_2  and  O_3
REMARK    2  A    between atoms: C_2  and  C_4
REMARK    3  A    between atoms: C_4  and  C_5
REMARK    4  A    between atoms: C_5  and  N_6
REMARK    5  A    between atoms: N_6  and  C_7
REMARK    6  A    between atoms: C_7  and  N_9
REMARK    7  A    between atoms: N_9  and  C_10
REMARK    8  A    between atoms: C_10  and  C_11
REMARK    9  A    between atoms: C_11  and  C_12
REMARK   10  A    between atoms: C_12  and  N_13
REMARK   11  A    between atoms: CA_16  and  C_17
REMARK   12  A    between atoms: C_17  and  OXT_19
REMARK   13  A    between atoms: N_22  and  C_23
REMARK   14  A    between atoms: C_23  and  C_24
REMARK                            x       y       z     vdW  Elec       q    Type
REMARK                         _______ _______ _______ _____ _____    ______ ____
ROOT
ATOM      1  N   UNL     1       2.851   7.909  17.982  0.00  0.00    +0.000 N 
ATOM      2  C   UNL     1       3.176   6.552  17.942  0.00  0.00    +0.000 A 
ATOM      3  C   UNL     1       2.294   5.576  18.343  0.00  0.00    +0.000 A 
ATOM      4  CA  UNL     1       2.748   4.283  18.237  0.00  0.00    +0.000 A 
ATOM      5  N   UNL     1       3.950   3.924  17.752  0.00  0.00    +0.000 NA
ATOM      6  C   UNL     1       4.729   4.933  17.345  0.00  0.00    +0.000 A 
ATOM      7  N   UNL     1       5.906   4.549  16.775  0.00  0.00    +0.000 N 
ATOM      8  N   UNL     1       4.376   6.233  17.427  0.00  0.00    +0.000 NA
ATOM      9  H   UNL     1       3.705   8.447  17.859  0.00  0.00    +0.000 HD
ATOM     10  H   UNL     1       6.429   3.883  17.330  0.00  0.00    +0.000 HD
ENDROOT
BRANCH   4  11
ATOM     11  C   UNL     1       1.838   3.177  18.637  0.00  0.00    +0.000 C 
ATOM     12  O   UNL     1       2.029   2.009  18.342  0.00  0.00    +0.000 OA
BRANCH  11  13
ATOM     13  OXT UNL     1       0.819   3.612  19.408  0.00  0.00    +0.000 OA
ATOM     14  HXT UNL     1       0.306   2.856  19.771  0.00  0.00    +0.000 HD
ENDBRANCH  11  13
ENDBRANCH   4  11
BRANCH   1  15
ATOM     15  C   UNL     1       1.914   8.379  18.995  0.00  0.00    +0.000 C 
BRANCH  15  16
ATOM     16  C   UNL     1       1.424   9.807  18.722  0.00  0.00    +0.000 C 
BRANCH  16  17
ATOM     17  C   UNL     1       0.202  10.068  19.604  0.00  0.00    +0.000 C 
BRANCH  17  18
ATOM     18  N   UNL     1      -0.964  10.607  18.914  0.00  0.00    +0.000 N 
ATOM     19  H   UNL     1      -1.496   9.986  18.318  0.00  0.00    +0.000 HD
BRANCH  18  20
ATOM     20  C   UNL     1      -1.211  11.967  18.799  0.00  0.00    +0.000 C 
ATOM     21  S   UNL     1      -0.214  13.167  19.406  0.00  0.00    +0.000 S 
BRANCH  20  22
ATOM     22  N   UNL     1      -2.346  12.202  18.048  0.00  0.00    +0.000 N 
ATOM     23  H   UNL     1      -2.200  12.517  17.096  0.00  0.00    +0.000 HD
BRANCH  22  24
ATOM     24  C   UNL     1      -3.699  11.733  18.376  0.00  0.00    +0.000 C 
BRANCH  24  25
ATOM     25  C   UNL     1      -4.174  10.703  17.353  0.00  0.00    +0.000 C 
BRANCH  25  27
ATOM     26  O   UNL     1      -2.321   9.723  16.165  0.00  0.00    +0.000 OA
ATOM     27  C   UNL     1      -3.193  10.572  16.226  0.00  0.00    +0.000 C 
BRANCH  27  28
ATOM     28  O   UNL     1      -3.320  11.537  15.283  0.00  0.00    +0.000 OA
ATOM     29  H   UNL     1      -2.825  12.356  15.469  0.00  0.00    +0.000 HD
ENDBRANCH  27  28
ENDBRANCH  25  27
ENDBRANCH  24  25
ENDBRANCH  22  24
ENDBRANCH  20  22
ENDBRANCH  18  20
ENDBRANCH  17  18
ENDBRANCH  16  17
ENDBRANCH  15  16
ENDBRANCH   1  15
BRANCH   7  30
ATOM     30  C   UNL     1       6.641   5.447  15.921  0.00  0.00    +0.000 C 
BRANCH  30  31
ATOM     31  C   UNL     1       6.631   4.874  14.516  0.00  0.00    +0.000 A 
ATOM     32  C   UNL     1       5.619   3.981  14.125  0.00  0.00    +0.000 A 
ATOM     33  C   UNL     1       5.610   3.429  12.842  0.00  0.00    +0.000 A 
ATOM     34  C   UNL     1       6.620   3.754  11.937  0.00  0.00    +0.000 A 
ATOM     35  C   UNL     1       7.640   4.622  12.319  0.00  0.00    +0.000 A 
ATOM     36  C   UNL     1       7.651   5.176  13.603  0.00  0.00    +0.000 A 
ENDBRANCH  30  31
ENDBRANCH   7  30
TORSDOF 14
ENDMDL
MODEL 8
REMARK VINA RESULT:      -7.2      4.952      9.420
REMARK  Name = 
REMARK  14 active torsions:
REMARK  status: ('A' for Active; 'I' for Inactive)
REMARK    1  A    between atoms: C_2  and  O_3
REMARK    2  A    between atoms: C_2  and  C_4
REMARK    3  A    between atoms: C_4  and  C_5
REMARK    4  A    between atoms: C_5  and  N_6
REMARK    5  A    between atoms: N_6  and  C_7
REMARK    6  A    between atoms: C_7  and  N_9
REMARK    7  A    between atoms: N_9  and  C_10
REMARK    8  A    between atoms: C_10  and  C_11
REMARK    9  A    between atoms: C_11  and  C_12
REMARK   10  A    between atoms: C_12  and  N_13
REMARK   11  A    between atoms: CA_16  and  C_17
REMARK   12  A    between atoms: C_17  and  OXT_19
REMARK   13  A    between atoms: N_22  and  C_23
REMARK   14  A    between atoms: C_23  and  C_24
REMARK                            x       y       z     vdW  Elec       q    Type
REMARK                         _______ _______ _______ _____ _____    ______ ____
ROOT
ATOM      1  N   UNL     1       3.146   7.757  17.636  0.00  0.00    +0.000 N 
ATOM      2  C   UNL     1       3.473   6.401  17.697  0.00  0.00    +0.000 A 
ATOM      3  C   UNL     1       2.564   5.445  18.083  0.00  0.00    +0.000 A 
ATOM      4  CA  UNL     1       3.025   4.151  18.083  0.00  0.00    +0.000 A 
ATOM      5  N   UNL     1       4.261   3.771  17.712  0.00  0.00    +0.000 NA
ATOM      6  C   UNL     1       5.068   4.759  17.310  0.00  0.00    +0.000 A 
ATOM      7  N   UNL     1       6.285   4.350  16.853  0.00  0.00    +0.000 N 
ATOM      8  N   UNL     1       4.709   6.060  17.293  0.00  0.00    +0.000 NA
ATOM      9  H   UNL     1       4.006   8.291  17.549  0.00  0.00    +0.000 HD
ATOM     10  H   UNL     1       6.765   3.718  17.482  0.00  0.00    +0.000 HD
ENDROOT
BRANCH   4  11
ATOM     11  C   UNL     1       2.088   3.064  18.474  0.00  0.00    +0.000 C 
ATOM     12  O   UNL     1       2.360   2.203  19.294  0.00  0.00    +0.000 OA
BRANCH  11  13
ATOM     13  OXT UNL     1       0.891   3.181  17.861  0.00  0.00    +0.000 OA
ATOM     14  HXT UNL     1       0.334   3.859  18.303  0.00  0.00    +0.000 HD
ENDBRANCH  11  13
ENDBRANCH   4  11
BRANCH   1  15
ATOM     15  C   UNL     1       2.133   8.278  18.548  0.00  0.00    +0.000 C 
BRANCH  15  16
ATOM     16  C   UNL     1       1.539   9.607  18.065  0.00  0.00    +0.000 C 
BRANCH  16  17
ATOM     17  C   UNL     1       0.050   9.616  18.412  0.00  0.00    +0.000 C 
BRANCH  17  18
ATOM     18  N   UNL     1      -0.771  10.531  17.627  0.00  0.00    +0.000 N 
ATOM     19  H   UNL     1      -0.698  10.492  16.618  0.00  0.00    +0.000 HD
BRANCH  18  20
ATOM     20  C   UNL     1      -1.413  11.630  18.178  0.00  0.00    +0.000 C 
ATOM     21  S   UNL     1      -0.723  13.145  18.350  0.00  0.00    +0.000 S 
BRANCH  20  22
ATOM     22  N   UNL     1      -2.724  11.330  18.493  0.00  0.00    +0.000 N 
ATOM     23  H   UNL     1      -3.169  11.922  19.184  0.00  0.00    +0.000 HD
BRANCH  22  24
ATOM     24  C   UNL     1      -3.616  10.470  17.705  0.00  0.00    +0.000 C 
BRANCH  24  25
ATOM     25  C   UNL     1      -4.078  11.189  16.439  0.00  0.00    +0.000 C 
BRANCH  25  27
ATOM     26  O   UNL     1      -2.361  10.490  14.900  0.00  0.00    +0.000 OA
ATOM     27  C   UNL     1      -3.539  10.516  15.212  0.00  0.00    +0.000 C 
BRANCH  27  28
ATOM     28  O   UNL     1      -4.500   9.974  14.426  0.00  0.00    +0.000 OA
ATOM     29  H   UNL     1      -5.348  10.454  14.429  0.00  0.00    +0.000 HD
ENDBRANCH  27  28
ENDBRANCH  25  27
ENDBRANCH  24  25
ENDBRANCH  22  24
ENDBRANCH  20  22
ENDBRANCH  18  20
ENDBRANCH  17  18
ENDBRANCH  16  17
ENDBRANCH  15  16
ENDBRANCH   1  15
BRANCH   7  30
ATOM     30  C   UNL     1       7.083   5.203  16.009  0.00  0.00    +0.000 C 
BRANCH  30  31
ATOM     31  C   UNL     1       6.936   4.719  14.579  0.00  0.00    +0.000 A 
ATOM     32  C   UNL     1       7.740   5.263  13.563  0.00  0.00    +0.000 A 
ATOM     33  C   UNL     1       7.600   4.842  12.239  0.00  0.00    +0.000 A 
ATOM     34  C   UNL     1       6.646   3.880  11.911  0.00  0.00    +0.000 A 
ATOM     35  C   UNL     1       5.829   3.347  12.905  0.00  0.00    +0.000 A 
ATOM     36  C   UNL     1       5.967   3.767  14.232  0.00  0.00    +0.000 A 
ENDBRANCH  30  31
ENDBRANCH   7  30
TORSDOF 14
ENDMDL
MODEL 9
REMARK VINA RESULT:      -7.2      4.442      6.464
REMARK  Name = 
REMARK  14 active torsions:
REMARK  status: ('A' for Active; 'I' for Inactive)
REMARK    1  A    between atoms: C_2  and  O_3
REMARK    2  A    between atoms: C_2  and  C_4
REMARK    3  A    between atoms: C_4  and  C_5
REMARK    4  A    between atoms: C_5  and  N_6
REMARK    5  A    between atoms: N_6  and  C_7
REMARK    6  A    between atoms: C_7  and  N_9
REMARK    7  A    between atoms: N_9  and  C_10
REMARK    8  A    between atoms: C_10  and  C_11
REMARK    9  A    between atoms: C_11  and  C_12
REMARK   10  A    between atoms: C_12  and  N_13
REMARK   11  A    between atoms: CA_16  and  C_17
REMARK   12  A    between atoms: C_17  and  OXT_19
REMARK   13  A    between atoms: N_22  and  C_23
REMARK   14  A    between atoms: C_23  and  C_24
REMARK                            x       y       z     vdW  Elec       q    Type
REMARK                         _______ _______ _______ _____ _____    ______ ____
ROOT
ATOM      1  N   UNL     1       7.449   6.966  18.225  0.00  0.00    +0.000 N 
ATOM      2  C   UNL     1       6.895   5.997  17.388  0.00  0.00    +0.000 A 
ATOM      3  C   UNL     1       7.259   5.874  16.068  0.00  0.00    +0.000 A 
ATOM      4  CA  UNL     1       6.638   4.866  15.370  0.00  0.00    +0.000 A 
ATOM      5  N   UNL     1       5.748   4.002  15.889  0.00  0.00    +0.000 NA
ATOM      6  C   UNL     1       5.481   4.165  17.190  0.00  0.00    +0.000 A 
ATOM      7  N   UNL     1       4.647   3.229  17.722  0.00  0.00    +0.000 N 
ATOM      8  N   UNL     1       6.029   5.136  17.951  0.00  0.00    +0.000 NA
ATOM      9  H   UNL     1       6.886   7.021  19.070  0.00  0.00    +0.000 HD
ATOM     10  H   UNL     1       3.797   3.090  17.189  0.00  0.00    +0.000 HD
ENDROOT
BRANCH   4  11
ATOM     11  C   UNL     1       6.999   4.667  13.941  0.00  0.00    +0.000 C 
ATOM     12  O   UNL     1       7.716   5.430  13.315  0.00  0.00    +0.000 OA
BRANCH  11  13
ATOM     13  OXT UNL     1       6.491   3.519  13.444  0.00  0.00    +0.000 OA
ATOM     14  HXT UNL     1       7.119   2.773  13.568  0.00  0.00    +0.000 HD
ENDBRANCH  11  13
ENDBRANCH   4  11
BRANCH   1  15
ATOM     15  C   UNL     1       7.892   8.229  17.644  0.00  0.00    +0.000 C 
BRANCH  15  16
ATOM     16  C   UNL     1       8.729   9.062  18.623  0.00  0.00    +0.000 C 
BRANCH  16  17
ATOM     17  C   UNL     1       8.730  10.511  18.134  0.00  0.00    +0.000 C 
BRANCH  17  18
ATOM     18  N   UNL     1      10.038  11.154  18.082  0.00  0.00    +0.000 N 
ATOM     19  H   UNL     1      10.636  10.957  17.290  0.00  0.00    +0.000 HD
BRANCH  18  20
ATOM     20  C   UNL     1      10.616  11.777  19.178  0.00  0.00    +0.000 C 
ATOM     21  S   UNL     1      12.263  11.877  19.453  0.00  0.00    +0.000 S 
BRANCH  20  22
ATOM     22  N   UNL     1       9.655  12.373  19.972  0.00  0.00    +0.000 N 
ATOM     23  H   UNL     1       8.878  12.808  19.489  0.00  0.00    +0.000 HD
BRANCH  22  24
ATOM     24  C   UNL     1       9.481  12.153  21.413  0.00  0.00    +0.000 C 
BRANCH  24  25
ATOM     25  C   UNL     1       8.712  13.311  22.046  0.00  0.00    +0.000 C 
BRANCH  25  27
ATOM     26  O   UNL     1       7.398  14.439  20.371  0.00  0.00    +0.000 OA
ATOM     27  C   UNL     1       8.419  14.377  21.033  0.00  0.00    +0.000 C 
BRANCH  27  28
ATOM     28  O   UNL     1       9.434  15.259  20.867  0.00  0.00    +0.000 OA
ATOM     29  H   UNL     1       9.205  16.186  21.065  0.00  0.00    +0.000 HD
ENDBRANCH  27  28
ENDBRANCH  25  27
ENDBRANCH  24  25
ENDBRANCH  22  24
ENDBRANCH  20  22
ENDBRANCH  18  20
ENDBRANCH  17  18
ENDBRANCH  16  17
ENDBRANCH  15  16
ENDBRANCH   1  15
BRANCH   7  30
ATOM     30  C   UNL     1       4.600   3.003  19.144  0.00  0.00    +0.000 C 
BRANCH  30  31
ATOM     31  C   UNL     1       3.254   3.483  19.653  0.00  0.00    +0.000 A 
ATOM     32  C   UNL     1       2.140   2.627  19.619  0.00  0.00    +0.000 A 
ATOM     33  C   UNL     1       0.890   3.064  20.063  0.00  0.00    +0.000 A 
ATOM     34  C   UNL     1       0.735   4.366  20.537  0.00  0.00    +0.000 A 
ATOM     35  C   UNL     1       1.827   5.231  20.557  0.00  0.00    +0.000 A 
ATOM     36  C   UNL     1       3.080   4.796  20.112  0.00  0.00    +0.000 A 
ENDBRANCH  30  31
ENDBRANCH   7  30
TORSDOF 14
ENDMDL
