MODEL 1
REMARK VINA RESULT:      -9.1      0.000      0.000
REMARK  Name = 
REMARK  5 active torsions:
REMARK  status: ('A' for Active; 'I' for Inactive)
REMARK    1  A    between atoms: C_1  and  C_2
REMARK    2  A    between atoms: C_2  and  N_3
REMARK    3  A    between atoms: C_2  and  C_19
REMARK    4  A    between atoms: N_3  and  C_4
REMARK    5  A    between atoms: C_14  and  O_15
REMARK                            x       y       z     vdW  Elec       q    Type
REMARK                         _______ _______ _______ _____ _____    ______ ____
ROOT
ATOM      1  C   UNL     1       4.095   4.454  17.922  0.00  0.00    +0.000 A 
ATOM      2  N   UNL     1       4.472   3.216  18.333  0.00  0.00    +0.000 NA
ATOM      3  C   UNL     1       4.203   2.815  19.585  0.00  0.00    +0.000 A 
ATOM      4  N   UNL     1       4.685   1.574  19.955  0.00  0.00    +0.000 N 
ATOM      5  N   UNL     1       3.496   3.483  20.501  0.00  0.00    +0.000 NA
ATOM      6  C   UNL     1       3.118   4.691  20.066  0.00  0.00    +0.000 A 
ATOM      7  N   UNL     1       2.394   5.581  20.804  0.00  0.00    +0.000 N 
ATOM      8  C   UNL     1       2.177   6.735  20.088  0.00  0.00    +0.000 A 
ATOM      9  C   UNL     1       1.492   7.903  20.448  0.00  0.00    +0.000 A 
ATOM     10  C   UNL     1       1.424   8.935  19.506  0.00  0.00    +0.000 A 
ATOM     11  C   UNL     1       2.017   8.786  18.260  0.00  0.00    +0.000 A 
ATOM     12  C   UNL     1       2.693   7.618  17.908  0.00  0.00    +0.000 A 
ATOM     13  C   UNL     1       2.785   6.562  18.840  0.00  0.00    +0.000 A 
ATOM     14  C   UNL     1       3.379   5.256  18.831  0.00  0.00    +0.000 A 
ATOM     15  H   UNL     1       4.849   1.012  19.133  0.00  0.00    +0.000 HD
ATOM     16  H   UNL     1       4.112   1.186  20.691  0.00  0.00    +0.000 HD
ATOM     17  H   UNL     1       2.074   5.400  21.743  0.00  0.00    +0.000 HD
ENDROOT
BRANCH   1  18
ATOM     18  N   UNL     1       4.444   4.898  16.667  0.00  0.00    +0.000 N 
ATOM     19  H   UNL     1       3.714   5.042  15.990  0.00  0.00    +0.000 HD
BRANCH  18  21
ATOM     20  C   UNL     1       5.805   5.159  14.676  0.00  0.00    +0.000 C 
ATOM     21  C   UNL     1       5.804   4.814  16.171  0.00  0.00    +0.000 C 
BRANCH  21  22
ATOM     22  C   UNL     1       6.671   5.734  17.014  0.00  0.00    +0.000 A 
ATOM     23  C   UNL     1       7.317   5.202  18.141  0.00  0.00    +0.000 A 
ATOM     24  C   UNL     1       8.104   6.011  18.963  0.00  0.00    +0.000 A 
ATOM     25  C   UNL     1       8.245   7.366  18.677  0.00  0.00    +0.000 A 
ATOM     26  C   UNL     1       7.594   7.914  17.576  0.00  0.00    +0.000 A 
ATOM     27  C   UNL     1       6.808   7.105  16.752  0.00  0.00    +0.000 A 
ENDBRANCH  21  22
ENDBRANCH  18  21
ENDBRANCH   1  18
BRANCH  11  28
ATOM     28  O   UNL     1       1.962   9.779  17.324  0.00  0.00    +0.000 OA
ATOM     29  H   UNL     1       2.385  10.573  17.689  0.00  0.00    +0.000 HD
ENDBRANCH  11  28
TORSDOF 4
ENDMDL
MODEL 2
REMARK VINA RESULT:      -8.8      0.450      1.082
REMARK  Name = 
REMARK  5 active torsions:
REMARK  status: ('A' for Active; 'I' for Inactive)
REMARK    1  A    between atoms: C_1  and  C_2
REMARK    2  A    between atoms: C_2  and  N_3
REMARK    3  A    between atoms: C_2  and  C_19
REMARK    4  A    between atoms: N_3  and  C_4
REMARK    5  A    between atoms: C_14  and  O_15
REMARK                            x       y       z     vdW  Elec       q    Type
REMARK                         _______ _______ _______ _____ _____    ______ ____
ROOT
ATOM      1  C   UNL     1       3.777   4.760  18.095  0.00  0.00    +0.000 A 
ATOM      2  N   UNL     1       4.066   3.513  18.549  0.00  0.00    +0.000 NA
ATOM      3  C   UNL     1       3.719   3.156  19.794  0.00  0.00    +0.000 A 
ATOM      4  N   UNL     1       4.114   1.899  20.213  0.00  0.00    +0.000 N 
ATOM      5  N   UNL     1       3.008   3.882  20.663  0.00  0.00    +0.000 NA
ATOM      6  C   UNL     1       2.717   5.099  20.185  0.00  0.00    +0.000 A 
ATOM      7  N   UNL     1       2.010   6.043  20.870  0.00  0.00    +0.000 N 
ATOM      8  C   UNL     1       1.889   7.189  20.121  0.00  0.00    +0.000 A 
ATOM      9  C   UNL     1       1.253   8.401  20.424  0.00  0.00    +0.000 A 
ATOM     10  C   UNL     1       1.286   9.413  19.459  0.00  0.00    +0.000 A 
ATOM     11  C   UNL     1       1.926   9.203  18.246  0.00  0.00    +0.000 A 
ATOM     12  C   UNL     1       2.552   7.993  17.950  0.00  0.00    +0.000 A 
ATOM     13  C   UNL     1       2.544   6.956  18.906  0.00  0.00    +0.000 A 
ATOM     14  C   UNL     1       3.065   5.619  18.952  0.00  0.00    +0.000 A 
ATOM     15  H   UNL     1       4.284   1.311  19.411  0.00  0.00    +0.000 HD
ATOM     16  H   UNL     1       3.488   1.560  20.928  0.00  0.00    +0.000 HD
ATOM     17  H   UNL     1       1.638   5.901  21.797  0.00  0.00    +0.000 HD
ENDROOT
BRANCH   1  18
ATOM     18  N   UNL     1       4.207   5.155  16.848  0.00  0.00    +0.000 N 
ATOM     19  H   UNL     1       3.516   5.380  16.153  0.00  0.00    +0.000 HD
BRANCH  18  21
ATOM     20  C   UNL     1       5.629   5.209  14.885  0.00  0.00    +0.000 C 
ATOM     21  C   UNL     1       5.560   4.912  16.388  0.00  0.00    +0.000 C 
BRANCH  21  22
ATOM     22  C   UNL     1       6.502   5.761  17.225  0.00  0.00    +0.000 A 
ATOM     23  C   UNL     1       6.702   7.102  16.859  0.00  0.00    +0.000 A 
ATOM     24  C   UNL     1       7.577   7.917  17.578  0.00  0.00    +0.000 A 
ATOM     25  C   UNL     1       8.275   7.401  18.666  0.00  0.00    +0.000 A 
ATOM     26  C   UNL     1       8.105   6.068  19.030  0.00  0.00    +0.000 A 
ATOM     27  C   UNL     1       7.228   5.251  18.312  0.00  0.00    +0.000 A 
ENDBRANCH  21  22
ENDBRANCH  18  21
ENDBRANCH   1  18
BRANCH  11  28
ATOM     28  O   UNL     1       1.969  10.176  17.288  0.00  0.00    +0.000 OA
ATOM     29  H   UNL     1       2.207   9.768  16.441  0.00  0.00    +0.000 HD
ENDBRANCH  11  28
TORSDOF 4
ENDMDL
MODEL 3
REMARK VINA RESULT:      -8.7      0.997      1.103
REMARK  Name = 
REMARK  5 active torsions:
REMARK  status: ('A' for Active; 'I' for Inactive)
REMARK    1  A    between atoms: C_1  and  C_2
REMARK    2  A    between atoms: C_2  and  N_3
REMARK    3  A    between atoms: C_2  and  C_19
REMARK    4  A    between atoms: N_3  and  C_4
REMARK    5  A    between atoms: C_14  and  O_15
REMARK                            x       y       z     vdW  Elec       q    Type
REMARK                         _______ _______ _______ _____ _____    ______ ____
ROOT
ATOM      1  C   UNL     1       3.293   4.962  18.590  0.00  0.00    +0.000 A 
ATOM      2  N   UNL     1       3.418   3.738  19.165  0.00  0.00    +0.000 NA
ATOM      3  C   UNL     1       2.962   3.534  20.410  0.00  0.00    +0.000 A 
ATOM      4  N   UNL     1       3.193   2.286  20.958  0.00  0.00    +0.000 N 
ATOM      5  N   UNL     1       2.284   4.404  21.164  0.00  0.00    +0.000 NA
ATOM      6  C   UNL     1       2.155   5.596  20.567  0.00  0.00    +0.000 A 
ATOM      7  N   UNL     1       1.516   6.666  21.122  0.00  0.00    +0.000 N 
ATOM      8  C   UNL     1       1.564   7.747  20.273  0.00  0.00    +0.000 A 
ATOM      9  C   UNL     1       1.047   9.040  20.429  0.00  0.00    +0.000 A 
ATOM     10  C   UNL     1       1.245   9.951  19.387  0.00  0.00    +0.000 A 
ATOM     11  C   UNL     1       1.929   9.568  18.242  0.00  0.00    +0.000 A 
ATOM     12  C   UNL     1       2.437   8.278  18.091  0.00  0.00    +0.000 A 
ATOM     13  C   UNL     1       2.260   7.338  19.129  0.00  0.00    +0.000 A 
ATOM     14  C   UNL     1       2.630   5.964  19.322  0.00  0.00    +0.000 A 
ATOM     15  H   UNL     1       3.345   1.613  20.221  0.00  0.00    +0.000 HD
ATOM     16  H   UNL     1       2.493   2.079  21.655  0.00  0.00    +0.000 HD
ATOM     17  H   UNL     1       1.077   6.647  22.029  0.00  0.00    +0.000 HD
ENDROOT
BRANCH   1  18
ATOM     18  N   UNL     1       3.835   5.196  17.347  0.00  0.00    +0.000 N 
ATOM     19  H   UNL     1       3.228   5.520  16.613  0.00  0.00    +0.000 HD
BRANCH  18  21
ATOM     20  C   UNL     1       5.143   4.482  15.433  0.00  0.00    +0.000 C 
ATOM     21  C   UNL     1       5.125   4.661  16.957  0.00  0.00    +0.000 C 
BRANCH  21  22
ATOM     22  C   UNL     1       6.201   5.599  17.476  0.00  0.00    +0.000 A 
ATOM     23  C   UNL     1       7.003   5.174  18.549  0.00  0.00    +0.000 A 
ATOM     24  C   UNL     1       7.988   6.008  19.080  0.00  0.00    +0.000 A 
ATOM     25  C   UNL     1       8.179   7.283  18.555  0.00  0.00    +0.000 A 
ATOM     26  C   UNL     1       7.379   7.729  17.506  0.00  0.00    +0.000 A 
ATOM     27  C   UNL     1       6.393   6.894  16.973  0.00  0.00    +0.000 A 
ENDBRANCH  21  22
ENDBRANCH  18  21
ENDBRANCH   1  18
BRANCH  11  28
ATOM     28  O   UNL     1       2.133  10.440  17.211  0.00  0.00    +0.000 OA
ATOM     29  H   UNL     1       1.328  10.968  17.087  0.00  0.00    +0.000 HD
ENDBRANCH  11  28
TORSDOF 4
ENDMDL
MODEL 4
REMARK VINA RESULT:      -8.4      1.109      2.797
REMARK  Name = 
REMARK  5 active torsions:
REMARK  status: ('A' for Active; 'I' for Inactive)
REMARK    1  A    between atoms: C_1  and  C_2
REMARK    2  A    between atoms: C_2  and  N_3
REMARK    3  A    between atoms: C_2  and  C_19
REMARK    4  A    between atoms: N_3  and  C_4
REMARK    5  A    between atoms: C_14  and  O_15
REMARK                            x       y       z     vdW  Elec       q    Type
REMARK                         _______ _______ _______ _____ _____    ______ ____
ROOT
ATOM      1  C   UNL     1       4.186   4.705  17.686  0.00  0.00    +0.000 A 
ATOM      2  N   UNL     1       4.594   3.463  18.055  0.00  0.00    +0.000 NA
ATOM      3  C   UNL     1       4.350   3.020  19.297  0.00  0.00    +0.000 A 
ATOM      4  N   UNL     1       4.862   1.778  19.624  0.00  0.00    +0.000 N 
ATOM      5  N   UNL     1       3.641   3.645  20.242  0.00  0.00    +0.000 NA
ATOM      6  C   UNL     1       3.232   4.857  19.848  0.00  0.00    +0.000 A 
ATOM      7  N   UNL     1       2.500   5.709  20.622  0.00  0.00    +0.000 N 
ATOM      8  C   UNL     1       2.249   6.879  19.944  0.00  0.00    +0.000 A 
ATOM      9  C   UNL     1       1.545   8.021  20.347  0.00  0.00    +0.000 A 
ATOM     10  C   UNL     1       1.444   9.079  19.438  0.00  0.00    +0.000 A 
ATOM     11  C   UNL     1       2.023   8.979  18.180  0.00  0.00    +0.000 A 
ATOM     12  C   UNL     1       2.718   7.837  17.784  0.00  0.00    +0.000 A 
ATOM     13  C   UNL     1       2.845   6.756  18.683  0.00  0.00    +0.000 A 
ATOM     14  C   UNL     1       3.466   5.464  18.627  0.00  0.00    +0.000 A 
ATOM     15  H   UNL     1       5.026   1.245  18.783  0.00  0.00    +0.000 HD
ATOM     16  H   UNL     1       4.307   1.356  20.354  0.00  0.00    +0.000 HD
ATOM     17  H   UNL     1       2.196   5.493  21.559  0.00  0.00    +0.000 HD
ENDROOT
BRANCH   1  18
ATOM     18  N   UNL     1       4.509   5.193  16.440  0.00  0.00    +0.000 N 
ATOM     19  H   UNL     1       3.875   5.019  15.679  0.00  0.00    +0.000 HD
BRANCH  18  21
ATOM     20  C   UNL     1       6.797   5.202  17.243  0.00  0.00    +0.000 C 
ATOM     21  C   UNL     1       5.855   5.611  16.103  0.00  0.00    +0.000 C 
BRANCH  21  22
ATOM     22  C   UNL     1       6.217   4.999  14.761  0.00  0.00    +0.000 A 
ATOM     23  C   UNL     1       7.380   5.444  14.110  0.00  0.00    +0.000 A 
ATOM     24  C   UNL     1       7.742   4.933  12.863  0.00  0.00    +0.000 A 
ATOM     25  C   UNL     1       6.941   3.978  12.242  0.00  0.00    +0.000 A 
ATOM     26  C   UNL     1       5.774   3.542  12.862  0.00  0.00    +0.000 A 
ATOM     27  C   UNL     1       5.411   4.052  14.111  0.00  0.00    +0.000 A 
ENDBRANCH  21  22
ENDBRANCH  18  21
ENDBRANCH   1  18
BRANCH  11  28
ATOM     28  O   UNL     1       1.935   9.999  17.276  0.00  0.00    +0.000 OA
ATOM     29  H   UNL     1       1.257  10.624  17.577  0.00  0.00    +0.000 HD
ENDBRANCH  11  28
TORSDOF 4
ENDMDL
MODEL 5
REMARK VINA RESULT:      -8.2      2.365      4.975
REMARK  Name = 
REMARK  5 active torsions:
REMARK  status: ('A' for Active; 'I' for Inactive)
REMARK    1  A    between atoms: C_1  and  C_2
REMARK    2  A    between atoms: C_2  and  N_3
REMARK    3  A    between atoms: C_2  and  C_19
REMARK    4  A    between atoms: N_3  and  C_4
REMARK    5  A    between atoms: C_14  and  O_15
REMARK                            x       y       z     vdW  Elec       q    Type
REMARK                         _______ _______ _______ _____ _____    ______ ____
ROOT
ATOM      1  C   UNL     1       5.124   4.186  17.192  0.00  0.00    +0.000 A 
ATOM      2  N   UNL     1       5.948   3.876  16.158  0.00  0.00    +0.000 NA
ATOM      3  C   UNL     1       6.144   4.761  15.170  0.00  0.00    +0.000 A 
ATOM      4  N   UNL     1       6.934   4.346  14.114  0.00  0.00    +0.000 N 
ATOM      5  N   UNL     1       5.674   6.011  15.113  0.00  0.00    +0.000 NA
ATOM      6  C   UNL     1       4.881   6.300  16.153  0.00  0.00    +0.000 A 
ATOM      7  N   UNL     1       4.263   7.502  16.336  0.00  0.00    +0.000 N 
ATOM      8  C   UNL     1       3.509   7.484  17.485  0.00  0.00    +0.000 A 
ATOM      9  C   UNL     1       2.713   8.486  18.057  0.00  0.00    +0.000 A 
ATOM     10  C   UNL     1       2.049   8.189  19.251  0.00  0.00    +0.000 A 
ATOM     11  C   UNL     1       2.189   6.939  19.838  0.00  0.00    +0.000 A 
ATOM     12  C   UNL     1       2.986   5.948  19.265  0.00  0.00    +0.000 A 
ATOM     13  C   UNL     1       3.663   6.216  18.056  0.00  0.00    +0.000 A 
ATOM     14  C   UNL     1       4.543   5.467  17.204  0.00  0.00    +0.000 A 
ATOM     15  H   UNL     1       7.530   3.588  14.411  0.00  0.00    +0.000 HD
ATOM     16  H   UNL     1       7.364   5.144  13.669  0.00  0.00    +0.000 HD
ATOM     17  H   UNL     1       4.358   8.282  15.704  0.00  0.00    +0.000 HD
ENDROOT
BRANCH   1  18
ATOM     18  N   UNL     1       4.857   3.248  18.164  0.00  0.00    +0.000 N 
ATOM     19  H   UNL     1       5.588   3.007  18.811  0.00  0.00    +0.000 HD
BRANCH  18  21
ATOM     20  C   UNL     1       4.249   0.903  18.035  0.00  0.00    +0.000 C 
ATOM     21  C   UNL     1       3.726   2.345  18.071  0.00  0.00    +0.000 C 
BRANCH  21  22
ATOM     22  C   UNL     1       2.798   2.631  19.239  0.00  0.00    +0.000 A 
ATOM     23  C   UNL     1       3.320   2.581  20.541  0.00  0.00    +0.000 A 
ATOM     24  C   UNL     1       2.503   2.810  21.650  0.00  0.00    +0.000 A 
ATOM     25  C   UNL     1       1.149   3.080  21.473  0.00  0.00    +0.000 A 
ATOM     26  C   UNL     1       0.610   3.113  20.190  0.00  0.00    +0.000 A 
ATOM     27  C   UNL     1       1.427   2.885  19.080  0.00  0.00    +0.000 A 
ENDBRANCH  21  22
ENDBRANCH  18  21
ENDBRANCH   1  18
BRANCH  11  28
ATOM     28  O   UNL     1       1.550   6.627  21.004  0.00  0.00    +0.000 OA
ATOM     29  H   UNL     1       1.419   5.666  21.039  0.00  0.00    +0.000 HD
ENDBRANCH  11  28
TORSDOF 4
ENDMDL
MODEL 6
REMARK VINA RESULT:      -8.1      2.142      4.908
REMARK  Name = 
REMARK  5 active torsions:
REMARK  status: ('A' for Active; 'I' for Inactive)
REMARK    1  A    between atoms: C_1  and  C_2
REMARK    2  A    between atoms: C_2  and  N_3
REMARK    3  A    between atoms: C_2  and  C_19
REMARK    4  A    between atoms: N_3  and  C_4
REMARK    5  A    between atoms: C_14  and  O_15
REMARK                            x       y       z     vdW  Elec       q    Type
REMARK                         _______ _______ _______ _____ _____    ______ ____
ROOT
ATOM      1  C   UNL     1       5.448   4.648  18.197  0.00  0.00    +0.000 A 
ATOM      2  N   UNL     1       6.379   4.266  17.285  0.00  0.00    +0.000 NA
ATOM      3  C   UNL     1       6.497   4.935  16.128  0.00  0.00    +0.000 A 
ATOM      4  N   UNL     1       7.413   4.442  15.217  0.00  0.00    +0.000 N 
ATOM      5  N   UNL     1       5.838   6.044  15.777  0.00  0.00    +0.000 NA
ATOM      6  C   UNL     1       4.942   6.412  16.701  0.00  0.00    +0.000 A 
ATOM      7  N   UNL     1       4.129   7.502  16.589  0.00  0.00    +0.000 N 
ATOM      8  C   UNL     1       3.311   7.606  17.690  0.00  0.00    +0.000 A 
ATOM      9  C   UNL     1       2.329   8.557  17.996  0.00  0.00    +0.000 A 
ATOM     10  C   UNL     1       1.641   8.417  19.206  0.00  0.00    +0.000 A 
ATOM     11  C   UNL     1       1.939   7.367  20.063  0.00  0.00    +0.000 A 
ATOM     12  C   UNL     1       2.921   6.427  19.753  0.00  0.00    +0.000 A 
ATOM     13  C   UNL     1       3.627   6.537  18.536  0.00  0.00    +0.000 A 
ATOM     14  C   UNL     1       4.670   5.782  17.902  0.00  0.00    +0.000 A 
ATOM     15  H   UNL     1       8.101   3.880  15.696  0.00  0.00    +0.000 HD
ATOM     16  H   UNL     1       7.739   5.186  14.618  0.00  0.00    +0.000 HD
ATOM     17  H   UNL     1       4.140   8.130  15.801  0.00  0.00    +0.000 HD
ENDROOT
BRANCH   1  18
ATOM     18  N   UNL     1       5.269   3.911  19.346  0.00  0.00    +0.000 N 
ATOM     19  H   UNL     1       5.831   4.134  20.149  0.00  0.00    +0.000 HD
BRANCH  18  21
ATOM     20  C   UNL     1       5.189   1.754  20.452  0.00  0.00    +0.000 C 
ATOM     21  C   UNL     1       4.594   2.628  19.340  0.00  0.00    +0.000 C 
BRANCH  21  22
ATOM     22  C   UNL     1       3.103   2.879  19.490  0.00  0.00    +0.000 A 
ATOM     23  C   UNL     1       2.578   3.062  20.780  0.00  0.00    +0.000 A 
ATOM     24  C   UNL     1       1.211   3.269  20.973  0.00  0.00    +0.000 A 
ATOM     25  C   UNL     1       0.348   3.285  19.882  0.00  0.00    +0.000 A 
ATOM     26  C   UNL     1       0.848   3.083  18.598  0.00  0.00    +0.000 A 
ATOM     27  C   UNL     1       2.216   2.877  18.403  0.00  0.00    +0.000 A 
ENDBRANCH  21  22
ENDBRANCH  18  21
ENDBRANCH   1  18
BRANCH  11  28
ATOM     28  O   UNL     1       1.281   7.211  21.250  0.00  0.00    +0.000 OA
ATOM     29  H   UNL     1       0.374   7.540  21.148  0.00  0.00    +0.000 HD
ENDBRANCH  11  28
TORSDOF 4
ENDMDL
MODEL 7
REMARK VINA RESULT:      -8.0      2.773      6.058
REMARK  Name = 
REMARK  5 active torsions:
REMARK  status: ('A' for Active; 'I' for Inactive)
REMARK    1  A    between atoms: C_1  and  C_2
REMARK    2  A    between atoms: C_2  and  N_3
REMARK    3  A    between atoms: C_2  and  C_19
REMARK    4  A    between atoms: N_3  and  C_4
REMARK    5  A    between atoms: C_14  and  O_15
REMARK                            x       y       z     vdW  Elec       q    Type
REMARK                         _______ _______ _______ _____ _____    ______ ____
ROOT
ATOM      1  C   UNL     1       5.657   4.019  17.483  0.00  0.00    +0.000 A 
ATOM      2  N   UNL     1       6.086   4.500  18.678  0.00  0.00    +0.000 NA
ATOM      3  C   UNL     1       7.150   5.315  18.730  0.00  0.00    +0.000 A 
ATOM      4  N   UNL     1       7.574   5.702  19.987  0.00  0.00    +0.000 N 
ATOM      5  N   UNL     1       7.825   5.811  17.688  0.00  0.00    +0.000 NA
ATOM      6  C   UNL     1       7.371   5.339  16.520  0.00  0.00    +0.000 A 
ATOM      7  N   UNL     1       7.889   5.675  15.304  0.00  0.00    +0.000 N 
ATOM      8  C   UNL     1       7.219   5.018  14.299  0.00  0.00    +0.000 A 
ATOM      9  C   UNL     1       7.411   5.058  12.911  0.00  0.00    +0.000 A 
ATOM     10  C   UNL     1       6.570   4.275  12.115  0.00  0.00    +0.000 A 
ATOM     11  C   UNL     1       5.581   3.494  12.696  0.00  0.00    +0.000 A 
ATOM     12  C   UNL     1       5.394   3.462  14.078  0.00  0.00    +0.000 A 
ATOM     13  C   UNL     1       6.232   4.235  14.909  0.00  0.00    +0.000 A 
ATOM     14  C   UNL     1       6.331   4.449  16.325  0.00  0.00    +0.000 A 
ATOM     15  H   UNL     1       6.816   5.610  20.646  0.00  0.00    +0.000 HD
ATOM     16  H   UNL     1       8.053   6.589  19.933  0.00  0.00    +0.000 HD
ATOM     17  H   UNL     1       8.656   6.318  15.180  0.00  0.00    +0.000 HD
ENDROOT
BRANCH   1  18
ATOM     18  N   UNL     1       4.619   3.116  17.437  0.00  0.00    +0.000 N 
ATOM     19  H   UNL     1       4.837   2.143  17.310  0.00  0.00    +0.000 HD
BRANCH  18  21
ATOM     20  C   UNL     1       2.328   2.322  17.408  0.00  0.00    +0.000 C 
ATOM     21  C   UNL     1       3.250   3.529  17.196  0.00  0.00    +0.000 C 
BRANCH  21  22
ATOM     22  C   UNL     1       2.944   4.703  18.109  0.00  0.00    +0.000 A 
ATOM     23  C   UNL     1       2.505   4.441  19.418  0.00  0.00    +0.000 A 
ATOM     24  C   UNL     1       2.185   5.484  20.288  0.00  0.00    +0.000 A 
ATOM     25  C   UNL     1       2.287   6.804  19.860  0.00  0.00    +0.000 A 
ATOM     26  C   UNL     1       2.699   7.082  18.560  0.00  0.00    +0.000 A 
ATOM     27  C   UNL     1       3.021   6.039  17.688  0.00  0.00    +0.000 A 
ENDBRANCH  21  22
ENDBRANCH  18  21
ENDBRANCH   1  18
BRANCH  11  28
ATOM     28  O   UNL     1       4.748   2.722  11.937  0.00  0.00    +0.000 OA
ATOM     29  H   UNL     1       4.963   1.789  12.092  0.00  0.00    +0.000 HD
ENDBRANCH  11  28
TORSDOF 4
ENDMDL
MODEL 8
REMARK VINA RESULT:      -7.9      3.361      6.468
REMARK  Name = 
REMARK  5 active torsions:
REMARK  status: ('A' for Active; 'I' for Inactive)
REMARK    1  A    between atoms: C_1  and  C_2
REMARK    2  A    between atoms: C_2  and  N_3
REMARK    3  A    between atoms: C_2  and  C_19
REMARK    4  A    between atoms: N_3  and  C_4
REMARK    5  A    between atoms: C_14  and  O_15
REMARK                            x       y       z     vdW  Elec       q    Type
REMARK                         _______ _______ _______ _____ _____    ______ ____
ROOT
ATOM      1  C   UNL     1       4.839   4.352  16.975  0.00  0.00    +0.000 A 
ATOM      2  N   UNL     1       5.274   4.745  18.200  0.00  0.00    +0.000 NA
ATOM      3  C   UNL     1       6.540   5.156  18.361  0.00  0.00    +0.000 A 
ATOM      4  N   UNL     1       6.932   5.468  19.649  0.00  0.00    +0.000 N 
ATOM      5  N   UNL     1       7.454   5.318  17.399  0.00  0.00    +0.000 NA
ATOM      6  C   UNL     1       6.996   4.943  16.198  0.00  0.00    +0.000 A 
ATOM      7  N   UNL     1       7.726   4.996  15.048  0.00  0.00    +0.000 N 
ATOM      8  C   UNL     1       6.986   4.531  13.987  0.00  0.00    +0.000 A 
ATOM      9  C   UNL     1       7.330   4.404  12.634  0.00  0.00    +0.000 A 
ATOM     10  C   UNL     1       6.364   3.894  11.762  0.00  0.00    +0.000 A 
ATOM     11  C   UNL     1       5.110   3.536  12.237  0.00  0.00    +0.000 A 
ATOM     12  C   UNL     1       4.773   3.670  13.583  0.00  0.00    +0.000 A 
ATOM     13  C   UNL     1       5.730   4.174  14.490  0.00  0.00    +0.000 A 
ATOM     14  C   UNL     1       5.741   4.444  15.900  0.00  0.00    +0.000 A 
ATOM     15  H   UNL     1       6.121   5.685  20.209  0.00  0.00    +0.000 HD
ATOM     16  H   UNL     1       7.689   6.135  19.629  0.00  0.00    +0.000 HD
ATOM     17  H   UNL     1       8.677   5.332  15.003  0.00  0.00    +0.000 HD
ENDROOT
BRANCH   1  18
ATOM     18  N   UNL     1       3.565   3.851  16.826  0.00  0.00    +0.000 N 
ATOM     19  H   UNL     1       2.849   4.463  16.474  0.00  0.00    +0.000 HD
BRANCH  18  21
ATOM     20  C   UNL     1       4.330   1.670  17.562  0.00  0.00    +0.000 C 
ATOM     21  C   UNL     1       3.136   2.631  17.481  0.00  0.00    +0.000 C 
BRANCH  21  22
ATOM     22  C   UNL     1       2.555   3.002  18.834  0.00  0.00    +0.000 A 
ATOM     23  C   UNL     1       3.149   2.470  19.990  0.00  0.00    +0.000 A 
ATOM     24  C   UNL     1       2.637   2.759  21.256  0.00  0.00    +0.000 A 
ATOM     25  C   UNL     1       1.516   3.573  21.385  0.00  0.00    +0.000 A 
ATOM     26  C   UNL     1       0.901   4.091  20.248  0.00  0.00    +0.000 A 
ATOM     27  C   UNL     1       1.413   3.804  18.981  0.00  0.00    +0.000 A 
ENDBRANCH  21  22
ENDBRANCH  18  21
ENDBRANCH   1  18
BRANCH  11  28
ATOM     28  O   UNL     1       4.150   3.037  11.402  0.00  0.00    +0.000 OA
ATOM     29  H   UNL     1       3.836   2.192  11.761  0.00  0.00    +0.000 HD
ENDBRANCH  11  28
TORSDOF 4
ENDMDL
MODEL 9
REMARK VINA RESULT:      -7.8      2.032      5.607
REMARK  Name = 
REMARK  5 active torsions:
REMARK  status: ('A' for Active; 'I' for Inactive)
REMARK    1  A    between atoms: C_1  and  C_2
REMARK    2  A    between atoms: C_2  and  N_3
REMARK    3  A    between atoms: C_2  and  C_19
REMARK    4  A    between atoms: N_3  and  C_4
REMARK    5  A    between atoms: C_14  and  O_15
REMARK                            x       y       z     vdW  Elec       q    Type
REMARK                         _______ _______ _______ _____ _____    ______ ____
ROOT
ATOM      1  C   UNL     1       2.323   5.278  19.634  0.00  0.00    +0.000 A 
ATOM      2  N   UNL     1       1.839   4.647  20.735  0.00  0.00    +0.000 NA
ATOM      3  C   UNL     1       2.399   3.501  21.149  0.00  0.00    +0.000 A 
ATOM      4  N   UNL     1       1.805   2.876  22.230  0.00  0.00    +0.000 N 
ATOM      5  N   UNL     1       3.487   2.914  20.640  0.00  0.00    +0.000 NA
ATOM      6  C   UNL     1       3.957   3.566  19.569  0.00  0.00    +0.000 A 
ATOM      7  N   UNL     1       5.051   3.176  18.853  0.00  0.00    +0.000 N 
ATOM      8  C   UNL     1       5.273   4.040  17.807  0.00  0.00    +0.000 A 
ATOM      9  C   UNL     1       6.271   4.026  16.822  0.00  0.00    +0.000 A 
ATOM     10  C   UNL     1       6.255   5.046  15.866  0.00  0.00    +0.000 A 
ATOM     11  C   UNL     1       5.280   6.032  15.908  0.00  0.00    +0.000 A 
ATOM     12  C   UNL     1       4.293   6.042  16.893  0.00  0.00    +0.000 A 
ATOM     13  C   UNL     1       4.277   5.021  17.868  0.00  0.00    +0.000 A 
ATOM     14  C   UNL     1       3.445   4.716  18.997  0.00  0.00    +0.000 A 
ATOM     15  H   UNL     1       1.272   3.548  22.762  0.00  0.00    +0.000 HD
ATOM     16  H   UNL     1       2.484   2.312  22.720  0.00  0.00    +0.000 HD
ATOM     17  H   UNL     1       5.606   2.364  19.077  0.00  0.00    +0.000 HD
ENDROOT
BRANCH   1  18
ATOM     18  N   UNL     1       1.697   6.408  19.159  0.00  0.00    +0.000 N 
ATOM     19  H   UNL     1       0.979   6.300  18.462  0.00  0.00    +0.000 HD
BRANCH  18  21
ATOM     20  C   UNL     1       2.470   8.364  17.951  0.00  0.00    +0.000 C 
ATOM     21  C   UNL     1       2.262   7.732  19.333  0.00  0.00    +0.000 C 
BRANCH  21  22
ATOM     22  C   UNL     1       1.333   8.525  20.236  0.00  0.00    +0.000 A 
ATOM     23  C   UNL     1       0.687   9.656  19.710  0.00  0.00    +0.000 A 
ATOM     24  C   UNL     1      -0.156  10.434  20.505  0.00  0.00    +0.000 A 
ATOM     25  C   UNL     1      -0.356  10.101  21.841  0.00  0.00    +0.000 A 
ATOM     26  C   UNL     1       0.294   8.996  22.386  0.00  0.00    +0.000 A 
ATOM     27  C   UNL     1       1.136   8.216  21.590  0.00  0.00    +0.000 A 
ENDBRANCH  21  22
ENDBRANCH  18  21
ENDBRANCH   1  18
BRANCH  11  28
ATOM     28  O   UNL     1       5.247   7.038  14.985  0.00  0.00    +0.000 OA
ATOM     29  H   UNL     1       5.271   7.889  15.451  0.00  0.00    +0.000 HD
ENDBRANCH  11  28
TORSDOF 4
ENDMDL
