MODEL 1
REMARK VINA RESULT:      -7.8      0.000      0.000
REMARK  Name = 
REMARK  3 active torsions:
REMARK  status: ('A' for Active; 'I' for Inactive)
REMARK    1  A    between atoms: C_1  and  C_2
REMARK    2  A    between atoms: C_2  and  C_3
REMARK    3  A    between atoms: N_8  and  C_9
REMARK                            x       y       z     vdW  Elec       q    Type
REMARK                         _______ _______ _______ _____ _____    ______ ____
ROOT
ATOM      1  C   UNL     1       5.229   5.164  16.591  0.00  0.00    +0.000 A 
ATOM      2  N   UNL     1       5.685   6.403  16.473  0.00  0.00    +0.000 NA
ATOM      3  N   UNL     1       4.856   7.251  17.153  0.00  0.00    +0.000 NA
ATOM      4  C   UNL     1       3.904   6.510  17.676  0.00  0.00    +0.000 A 
ATOM      5  C   UNL     1       2.789   6.989  18.448  0.00  0.00    +0.000 A 
ATOM      6  N   UNL     1       2.632   8.333  18.724  0.00  0.00    +0.000 N 
ATOM      7  N   UNL     1       1.931   6.107  18.893  0.00  0.00    +0.000 NA
ATOM      8  C   UNL     1       2.091   4.742  18.599  0.00  0.00    +0.000 A 
ATOM      9  C   UNL     1       1.122   3.874  19.107  0.00  0.00    +0.000 A 
ATOM     10  C   UNL     1       1.198   2.506  18.860  0.00  0.00    +0.000 A 
ATOM     11  C   UNL     1       2.247   2.001  18.094  0.00  0.00    +0.000 A 
ATOM     12  C   UNL     1       3.224   2.857  17.566  0.00  0.00    +0.000 A 
ATOM     13  C   UNL     1       3.152   4.227  17.823  0.00  0.00    +0.000 A 
ATOM     14  N   UNL     1       4.078   5.184  17.362  0.00  0.00    +0.000 N 
ATOM     15  H   UNL     1       3.384   8.943  18.416  0.00  0.00    +0.000 HD
ENDROOT
BRANCH   6  16
ATOM     16  C   UNL     1       1.393   9.000  18.859  0.00  0.00    +0.000 A 
ATOM     17  C   UNL     1       0.687   9.462  17.737  0.00  0.00    +0.000 A 
ATOM     18  C   UNL     1      -0.535  10.123  17.864  0.00  0.00    +0.000 A 
ATOM     19  C   UNL     1      -1.090  10.321  19.124  0.00  0.00    +0.000 A 
ATOM     20  C   UNL     1      -0.419   9.859  20.255  0.00  0.00    +0.000 A 
ATOM     21  C   UNL     1       0.815   9.209  20.125  0.00  0.00    +0.000 A 
ATOM     22 BR   UNL     1       1.664   8.595  21.710  0.00  0.00    +0.000 Br
ENDBRANCH   6  16
BRANCH   1  24
ATOM     23  C   UNL     1       5.915   4.129  14.436  0.00  0.00    +0.000 C 
ATOM     24  C   UNL     1       5.895   3.999  15.952  0.00  0.00    +0.000 C 
ENDBRANCH   1  24
TORSDOF 2
ENDMDL
MODEL 2
REMARK VINA RESULT:      -7.5      1.381      1.892
REMARK  Name = 
REMARK  3 active torsions:
REMARK  status: ('A' for Active; 'I' for Inactive)
REMARK    1  A    between atoms: C_1  and  C_2
REMARK    2  A    between atoms: C_2  and  C_3
REMARK    3  A    between atoms: N_8  and  C_9
REMARK                            x       y       z     vdW  Elec       q    Type
REMARK                         _______ _______ _______ _____ _____    ______ ____
ROOT
ATOM      1  C   UNL     1       4.420   5.135  16.932  0.00  0.00    +0.000 A 
ATOM      2  N   UNL     1       4.932   6.358  16.913  0.00  0.00    +0.000 NA
ATOM      3  N   UNL     1       4.338   7.106  17.891  0.00  0.00    +0.000 NA
ATOM      4  C   UNL     1       3.470   6.323  18.492  0.00  0.00    +0.000 A 
ATOM      5  C   UNL     1       2.591   6.703  19.565  0.00  0.00    +0.000 A 
ATOM      6  N   UNL     1       2.600   7.984  20.081  0.00  0.00    +0.000 N 
ATOM      7  N   UNL     1       1.787   5.791  20.047  0.00  0.00    +0.000 NA
ATOM      8  C   UNL     1       1.776   4.492  19.511  0.00  0.00    +0.000 A 
ATOM      9  C   UNL     1       0.878   3.586  20.081  0.00  0.00    +0.000 A 
ATOM     10  C   UNL     1       0.795   2.280  19.609  0.00  0.00    +0.000 A 
ATOM     11  C   UNL     1       1.610   1.875  18.552  0.00  0.00    +0.000 A 
ATOM     12  C   UNL     1       2.509   2.772  17.959  0.00  0.00    +0.000 A 
ATOM     13  C   UNL     1       2.599   4.078  18.441  0.00  0.00    +0.000 A 
ATOM     14  N   UNL     1       3.471   5.066  17.939  0.00  0.00    +0.000 N 
ATOM     15  H   UNL     1       3.310   8.609  19.711  0.00  0.00    +0.000 HD
ENDROOT
BRANCH   6  16
ATOM     16  C   UNL     1       1.475   8.664  20.600  0.00  0.00    +0.000 A 
ATOM     17  C   UNL     1       1.133   8.578  21.960  0.00  0.00    +0.000 A 
ATOM     18  C   UNL     1       0.023   9.246  22.478  0.00  0.00    +0.000 A 
ATOM     19  C   UNL     1      -0.764  10.033  21.644  0.00  0.00    +0.000 A 
ATOM     20  C   UNL     1      -0.440  10.150  20.294  0.00  0.00    +0.000 A 
ATOM     21  C   UNL     1       0.667   9.466  19.774  0.00  0.00    +0.000 A 
ATOM     22 BR   UNL     1       1.054   9.684  17.926  0.00  0.00    +0.000 Br
ENDBRANCH   6  16
BRANCH   1  24
ATOM     23  C   UNL     1       5.581   4.657  14.785  0.00  0.00    +0.000 C 
ATOM     24  C   UNL     1       4.840   4.075  15.980  0.00  0.00    +0.000 C 
ENDBRANCH   1  24
TORSDOF 2
ENDMDL
MODEL 3
REMARK VINA RESULT:      -7.1      2.788      7.801
REMARK  Name = 
REMARK  3 active torsions:
REMARK  status: ('A' for Active; 'I' for Inactive)
REMARK    1  A    between atoms: C_1  and  C_2
REMARK    2  A    between atoms: C_2  and  C_3
REMARK    3  A    between atoms: N_8  and  C_9
REMARK                            x       y       z     vdW  Elec       q    Type
REMARK                         _______ _______ _______ _____ _____    ______ ____
ROOT
ATOM      1  C   UNL     1      -0.613  10.976  22.625  0.00  0.00    +0.000 A 
ATOM      2  N   UNL     1       0.160  10.319  23.478  0.00  0.00    +0.000 NA
ATOM      3  N   UNL     1       0.871   9.370  22.797  0.00  0.00    +0.000 NA
ATOM      4  C   UNL     1       0.517   9.466  21.534  0.00  0.00    +0.000 A 
ATOM      5  C   UNL     1       0.990   8.636  20.459  0.00  0.00    +0.000 A 
ATOM      6  N   UNL     1       1.909   7.630  20.680  0.00  0.00    +0.000 N 
ATOM      7  N   UNL     1       0.529   8.873  19.258  0.00  0.00    +0.000 NA
ATOM      8  C   UNL     1      -0.414   9.892  19.042  0.00  0.00    +0.000 A 
ATOM      9  C   UNL     1      -0.858  10.067  17.728  0.00  0.00    +0.000 A 
ATOM     10  C   UNL     1      -1.796  11.049  17.424  0.00  0.00    +0.000 A 
ATOM     11  C   UNL     1      -2.302  11.859  18.439  0.00  0.00    +0.000 A 
ATOM     12  C   UNL     1      -1.878  11.692  19.765  0.00  0.00    +0.000 A 
ATOM     13  C   UNL     1      -0.929  10.714  20.067  0.00  0.00    +0.000 A 
ATOM     14  N   UNL     1      -0.414  10.460  21.355  0.00  0.00    +0.000 N 
ATOM     15  H   UNL     1       2.282   7.565  21.623  0.00  0.00    +0.000 HD
ENDROOT
BRANCH   6  16
ATOM     16  C   UNL     1       1.971   6.409  19.971  0.00  0.00    +0.000 A 
ATOM     17  C   UNL     1       1.433   5.226  20.507  0.00  0.00    +0.000 A 
ATOM     18  C   UNL     1       1.492   4.018  19.812  0.00  0.00    +0.000 A 
ATOM     19  C   UNL     1       2.078   3.969  18.552  0.00  0.00    +0.000 A 
ATOM     20  C   UNL     1       2.605   5.130  17.989  0.00  0.00    +0.000 A 
ATOM     21  C   UNL     1       2.558   6.338  18.695  0.00  0.00    +0.000 A 
ATOM     22 BR   UNL     1       3.285   7.882  17.858  0.00  0.00    +0.000 Br
ENDBRANCH   6  16
BRANCH   1  24
ATOM     23  C   UNL     1      -0.897  13.437  22.851  0.00  0.00    +0.000 C 
ATOM     24  C   UNL     1      -1.528  12.067  23.049  0.00  0.00    +0.000 C 
ENDBRANCH   1  24
TORSDOF 2
ENDMDL
MODEL 4
REMARK VINA RESULT:      -6.9      2.721      6.881
REMARK  Name = 
REMARK  3 active torsions:
REMARK  status: ('A' for Active; 'I' for Inactive)
REMARK    1  A    between atoms: C_1  and  C_2
REMARK    2  A    between atoms: C_2  and  C_3
REMARK    3  A    between atoms: N_8  and  C_9
REMARK                            x       y       z     vdW  Elec       q    Type
REMARK                         _______ _______ _______ _____ _____    ______ ____
ROOT
ATOM      1  C   UNL     1       2.119   2.870  19.061  0.00  0.00    +0.000 A 
ATOM      2  N   UNL     1       2.665   1.722  18.686  0.00  0.00    +0.000 NA
ATOM      3  N   UNL     1       3.709   1.980  17.842  0.00  0.00    +0.000 NA
ATOM      4  C   UNL     1       3.781   3.287  17.717  0.00  0.00    +0.000 A 
ATOM      5  C   UNL     1       4.715   4.006  16.892  0.00  0.00    +0.000 A 
ATOM      6  N   UNL     1       5.664   3.345  16.138  0.00  0.00    +0.000 N 
ATOM      7  N   UNL     1       4.643   5.312  16.887  0.00  0.00    +0.000 NA
ATOM      8  C   UNL     1       3.668   5.978  17.648  0.00  0.00    +0.000 A 
ATOM      9  C   UNL     1       3.660   7.373  17.575  0.00  0.00    +0.000 A 
ATOM     10  C   UNL     1       2.724   8.114  18.291  0.00  0.00    +0.000 A 
ATOM     11  C   UNL     1       1.783   7.457  19.082  0.00  0.00    +0.000 A 
ATOM     12  C   UNL     1       1.768   6.057  19.161  0.00  0.00    +0.000 A 
ATOM     13  C   UNL     1       2.713   5.316  18.451  0.00  0.00    +0.000 A 
ATOM     14  N   UNL     1       2.809   3.909  18.460  0.00  0.00    +0.000 N 
ATOM     15  H   UNL     1       5.710   2.337  16.262  0.00  0.00    +0.000 HD
ENDROOT
BRANCH   6  16
ATOM     16  C   UNL     1       6.160   3.776  14.887  0.00  0.00    +0.000 A 
ATOM     17  C   UNL     1       5.751   3.165  13.690  0.00  0.00    +0.000 A 
ATOM     18  C   UNL     1       6.237   3.586  12.452  0.00  0.00    +0.000 A 
ATOM     19  C   UNL     1       7.136   4.645  12.383  0.00  0.00    +0.000 A 
ATOM     20  C   UNL     1       7.548   5.280  13.553  0.00  0.00    +0.000 A 
ATOM     21  C   UNL     1       7.068   4.846  14.795  0.00  0.00    +0.000 A 
ATOM     22 BR   UNL     1       7.664   5.770  16.346  0.00  0.00    +0.000 Br
ENDBRANCH   6  16
BRANCH   1  24
ATOM     23  C   UNL     1       1.367   2.923  21.432  0.00  0.00    +0.000 C 
ATOM     24  C   UNL     1       0.945   2.940  19.970  0.00  0.00    +0.000 C 
ENDBRANCH   1  24
TORSDOF 2
ENDMDL
MODEL 5
REMARK VINA RESULT:      -6.8      1.823      3.668
REMARK  Name = 
REMARK  3 active torsions:
REMARK  status: ('A' for Active; 'I' for Inactive)
REMARK    1  A    between atoms: C_1  and  C_2
REMARK    2  A    between atoms: C_2  and  C_3
REMARK    3  A    between atoms: N_8  and  C_9
REMARK                            x       y       z     vdW  Elec       q    Type
REMARK                         _______ _______ _______ _____ _____    ______ ____
ROOT
ATOM      1  C   UNL     1       3.317   3.518  19.551  0.00  0.00    +0.000 A 
ATOM      2  N   UNL     1       2.078   3.669  19.997  0.00  0.00    +0.000 NA
ATOM      3  N   UNL     1       1.635   4.920  19.670  0.00  0.00    +0.000 NA
ATOM      4  C   UNL     1       2.617   5.513  19.027  0.00  0.00    +0.000 A 
ATOM      5  C   UNL     1       2.605   6.861  18.525  0.00  0.00    +0.000 A 
ATOM      6  N   UNL     1       1.500   7.674  18.677  0.00  0.00    +0.000 N 
ATOM      7  N   UNL     1       3.676   7.291  17.907  0.00  0.00    +0.000 NA
ATOM      8  C   UNL     1       4.801   6.462  17.766  0.00  0.00    +0.000 A 
ATOM      9  C   UNL     1       5.902   7.007  17.101  0.00  0.00    +0.000 A 
ATOM     10  C   UNL     1       7.062   6.259  16.920  0.00  0.00    +0.000 A 
ATOM     11  C   UNL     1       7.127   4.958  17.414  0.00  0.00    +0.000 A 
ATOM     12  C   UNL     1       6.038   4.395  18.094  0.00  0.00    +0.000 A 
ATOM     13  C   UNL     1       4.872   5.143  18.265  0.00  0.00    +0.000 A 
ATOM     14  N   UNL     1       3.708   4.685  18.916  0.00  0.00    +0.000 N 
ATOM     15  H   UNL     1       0.680   7.239  19.092  0.00  0.00    +0.000 HD
ENDROOT
BRANCH   6  16
ATOM     16  C   UNL     1       1.534   9.077  18.847  0.00  0.00    +0.000 A 
ATOM     17  C   UNL     1       2.088   9.917  17.867  0.00  0.00    +0.000 A 
ATOM     18  C   UNL     1       2.125  11.302  18.030  0.00  0.00    +0.000 A 
ATOM     19  C   UNL     1       1.590  11.881  19.176  0.00  0.00    +0.000 A 
ATOM     20  C   UNL     1       1.020  11.072  20.158  0.00  0.00    +0.000 A 
ATOM     21  C   UNL     1       0.997   9.681  19.998  0.00  0.00    +0.000 A 
ATOM     22 BR   UNL     1       0.191   8.645  21.372  0.00  0.00    +0.000 Br
ENDBRANCH   6  16
BRANCH   1  24
ATOM     23  C   UNL     1       3.856   1.267  18.639  0.00  0.00    +0.000 C 
ATOM     24  C   UNL     1       4.098   2.270  19.758  0.00  0.00    +0.000 C 
ENDBRANCH   1  24
TORSDOF 2
ENDMDL
MODEL 6
REMARK VINA RESULT:      -6.8      7.459      9.709
REMARK  Name = 
REMARK  3 active torsions:
REMARK  status: ('A' for Active; 'I' for Inactive)
REMARK    1  A    between atoms: C_1  and  C_2
REMARK    2  A    between atoms: C_2  and  C_3
REMARK    3  A    between atoms: N_8  and  C_9
REMARK                            x       y       z     vdW  Elec       q    Type
REMARK                         _______ _______ _______ _____ _____    ______ ____
ROOT
ATOM      1  C   UNL     1      -3.503  10.986  16.964  0.00  0.00    +0.000 A 
ATOM      2  N   UNL     1      -4.765  11.220  16.633  0.00  0.00    +0.000 NA
ATOM      3  N   UNL     1      -5.374  11.902  17.651  0.00  0.00    +0.000 NA
ATOM      4  C   UNL     1      -4.467  12.072  18.588  0.00  0.00    +0.000 A 
ATOM      5  C   UNL     1      -4.677  12.711  19.859  0.00  0.00    +0.000 A 
ATOM      6  N   UNL     1      -5.907  13.233  20.206  0.00  0.00    +0.000 N 
ATOM      7  N   UNL     1      -3.658  12.793  20.676  0.00  0.00    +0.000 NA
ATOM      8  C   UNL     1      -2.411  12.251  20.320  0.00  0.00    +0.000 A 
ATOM      9  C   UNL     1      -1.383  12.376  21.258  0.00  0.00    +0.000 A 
ATOM     10  C   UNL     1      -0.117  11.863  20.992  0.00  0.00    +0.000 A 
ATOM     11  C   UNL     1       0.124  11.211  19.784  0.00  0.00    +0.000 A 
ATOM     12  C   UNL     1      -0.897  11.066  18.834  0.00  0.00    +0.000 A 
ATOM     13  C   UNL     1      -2.163  11.590  19.097  0.00  0.00    +0.000 A 
ATOM     14  N   UNL     1      -3.265  11.520  18.219  0.00  0.00    +0.000 N 
ATOM     15  H   UNL     1      -6.623  13.205  19.485  0.00  0.00    +0.000 HD
ENDROOT
BRANCH   6  16
ATOM     16  C   UNL     1      -6.436  13.278  21.516  0.00  0.00    +0.000 A 
ATOM     17  C   UNL     1      -6.155  14.349  22.380  0.00  0.00    +0.000 A 
ATOM     18  C   UNL     1      -6.673  14.398  23.675  0.00  0.00    +0.000 A 
ATOM     19  C   UNL     1      -7.503  13.378  24.129  0.00  0.00    +0.000 A 
ATOM     20  C   UNL     1      -7.812  12.311  23.288  0.00  0.00    +0.000 A 
ATOM     21  C   UNL     1      -7.278  12.258  21.994  0.00  0.00    +0.000 A 
ATOM     22 BR   UNL     1      -7.755  10.779  20.900  0.00  0.00    +0.000 Br
ENDBRANCH   6  16
BRANCH   1  24
ATOM     23  C   UNL     1      -3.087  10.172  14.651  0.00  0.00    +0.000 C 
ATOM     24  C   UNL     1      -2.566  10.247  16.078  0.00  0.00    +0.000 C 
ENDBRANCH   1  24
TORSDOF 2
ENDMDL
MODEL 7
REMARK VINA RESULT:      -6.5      2.772      6.608
REMARK  Name = 
REMARK  3 active torsions:
REMARK  status: ('A' for Active; 'I' for Inactive)
REMARK    1  A    between atoms: C_1  and  C_2
REMARK    2  A    between atoms: C_2  and  C_3
REMARK    3  A    between atoms: N_8  and  C_9
REMARK                            x       y       z     vdW  Elec       q    Type
REMARK                         _______ _______ _______ _____ _____    ______ ____
ROOT
ATOM      1  C   UNL     1       3.194   3.107  20.940  0.00  0.00    +0.000 A 
ATOM      2  N   UNL     1       4.051   2.124  20.700  0.00  0.00    +0.000 NA
ATOM      3  N   UNL     1       4.885   2.497  19.683  0.00  0.00    +0.000 NA
ATOM      4  C   UNL     1       4.520   3.707  19.319  0.00  0.00    +0.000 A 
ATOM      5  C   UNL     1       5.102   4.480  18.254  0.00  0.00    +0.000 A 
ATOM      6  N   UNL     1       6.151   3.990  17.502  0.00  0.00    +0.000 N 
ATOM      7  N   UNL     1       4.612   5.672  18.027  0.00  0.00    +0.000 NA
ATOM      8  C   UNL     1       3.538   6.160  18.790  0.00  0.00    +0.000 A 
ATOM      9  C   UNL     1       3.074   7.439  18.472  0.00  0.00    +0.000 A 
ATOM     10  C   UNL     1       2.009   7.999  19.172  0.00  0.00    +0.000 A 
ATOM     11  C   UNL     1       1.397   7.275  20.194  0.00  0.00    +0.000 A 
ATOM     12  C   UNL     1       1.841   5.986  20.521  0.00  0.00    +0.000 A 
ATOM     13  C   UNL     1       2.916   5.430  19.826  0.00  0.00    +0.000 A 
ATOM     14  N   UNL     1       3.461   4.153  20.071  0.00  0.00    +0.000 N 
ATOM     15  H   UNL     1       6.529   3.093  17.794  0.00  0.00    +0.000 HD
ENDROOT
BRANCH   6  16
ATOM     16  C   UNL     1       6.379   4.272  16.136  0.00  0.00    +0.000 A 
ATOM     17  C   UNL     1       5.959   3.389  15.128  0.00  0.00    +0.000 A 
ATOM     18  C   UNL     1       6.182   3.662  13.778  0.00  0.00    +0.000 A 
ATOM     19  C   UNL     1       6.820   4.840  13.404  0.00  0.00    +0.000 A 
ATOM     20  C   UNL     1       7.234   5.742  14.382  0.00  0.00    +0.000 A 
ATOM     21  C   UNL     1       7.021   5.458  15.737  0.00  0.00    +0.000 A 
ATOM     22 BR   UNL     1       7.602   6.743  17.012  0.00  0.00    +0.000 Br
ENDBRANCH   6  16
BRANCH   1  24
ATOM     23  C   UNL     1       0.807   2.572  21.389  0.00  0.00    +0.000 C 
ATOM     24  C   UNL     1       2.137   3.014  21.980  0.00  0.00    +0.000 C 
ENDBRANCH   1  24
TORSDOF 2
ENDMDL
MODEL 8
REMARK VINA RESULT:      -6.5      3.052      8.010
REMARK  Name = 
REMARK  3 active torsions:
REMARK  status: ('A' for Active; 'I' for Inactive)
REMARK    1  A    between atoms: C_1  and  C_2
REMARK    2  A    between atoms: C_2  and  C_3
REMARK    3  A    between atoms: N_8  and  C_9
REMARK                            x       y       z     vdW  Elec       q    Type
REMARK                         _______ _______ _______ _____ _____    ______ ____
ROOT
ATOM      1  C   UNL     1      -1.048  12.151  21.712  0.00  0.00    +0.000 A 
ATOM      2  N   UNL     1      -0.107  11.842  22.593  0.00  0.00    +0.000 NA
ATOM      3  N   UNL     1       0.658  10.826  22.092  0.00  0.00    +0.000 NA
ATOM      4  C   UNL     1       0.167  10.531  20.909  0.00  0.00    +0.000 A 
ATOM      5  C   UNL     1       0.641   9.492  20.034  0.00  0.00    +0.000 A 
ATOM      6  N   UNL     1       1.711   8.692  20.382  0.00  0.00    +0.000 N 
ATOM      7  N   UNL     1       0.031   9.336  18.886  0.00  0.00    +0.000 NA
ATOM      8  C   UNL     1      -1.063  10.147  18.542  0.00  0.00    +0.000 A 
ATOM      9  C   UNL     1      -1.659   9.903  17.302  0.00  0.00    +0.000 A 
ATOM     10  C   UNL     1      -2.753  10.655  16.883  0.00  0.00    +0.000 A 
ATOM     11  C   UNL     1      -3.262  11.654  17.711  0.00  0.00    +0.000 A 
ATOM     12  C   UNL     1      -2.686  11.907  18.964  0.00  0.00    +0.000 A 
ATOM     13  C   UNL     1      -1.583  11.160  19.378  0.00  0.00    +0.000 A 
ATOM     14  N   UNL     1      -0.909  11.328  20.606  0.00  0.00    +0.000 N 
ATOM     15  H   UNL     1       2.183   8.931  21.249  0.00  0.00    +0.000 HD
ENDROOT
BRANCH   6  16
ATOM     16  C   UNL     1       1.872   7.337  20.015  0.00  0.00    +0.000 A 
ATOM     17  C   UNL     1       1.403   6.298  20.835  0.00  0.00    +0.000 A 
ATOM     18  C   UNL     1       1.560   4.958  20.478  0.00  0.00    +0.000 A 
ATOM     19  C   UNL     1       2.179   4.627  19.277  0.00  0.00    +0.000 A 
ATOM     20  C   UNL     1       2.641   5.638  18.436  0.00  0.00    +0.000 A 
ATOM     21  C   UNL     1       2.494   6.982  18.804  0.00  0.00    +0.000 A 
ATOM     22 BR   UNL     1       3.137   8.304  17.600  0.00  0.00    +0.000 Br
ENDBRANCH   6  16
BRANCH   1  24
ATOM     23  C   UNL     1      -3.315  12.644  22.608  0.00  0.00    +0.000 C 
ATOM     24  C   UNL     1      -2.061  13.209  21.957  0.00  0.00    +0.000 C 
ENDBRANCH   1  24
TORSDOF 2
ENDMDL
MODEL 9
REMARK VINA RESULT:      -6.5      2.256      6.062
REMARK  Name = 
REMARK  3 active torsions:
REMARK  status: ('A' for Active; 'I' for Inactive)
REMARK    1  A    between atoms: C_1  and  C_2
REMARK    2  A    between atoms: C_2  and  C_3
REMARK    3  A    between atoms: N_8  and  C_9
REMARK                            x       y       z     vdW  Elec       q    Type
REMARK                         _______ _______ _______ _____ _____    ______ ____
ROOT
ATOM      1  C   UNL     1       1.883   7.658  20.095  0.00  0.00    +0.000 A 
ATOM      2  N   UNL     1       2.102   8.594  19.182  0.00  0.00    +0.000 NA
ATOM      3  N   UNL     1       2.728   8.029  18.105  0.00  0.00    +0.000 NA
ATOM      4  C   UNL     1       2.879   6.753  18.382  0.00  0.00    +0.000 A 
ATOM      5  C   UNL     1       3.524   5.778  17.544  0.00  0.00    +0.000 A 
ATOM      6  N   UNL     1       4.049   6.123  16.315  0.00  0.00    +0.000 N 
ATOM      7  N   UNL     1       3.586   4.546  17.980  0.00  0.00    +0.000 NA
ATOM      8  C   UNL     1       3.058   4.204  19.236  0.00  0.00    +0.000 A 
ATOM      9  C   UNL     1       3.179   2.866  19.624  0.00  0.00    +0.000 A 
ATOM     10  C   UNL     1       2.690   2.440  20.855  0.00  0.00    +0.000 A 
ATOM     11  C   UNL     1       2.082   3.357  21.711  0.00  0.00    +0.000 A 
ATOM     12  C   UNL     1       1.961   4.705  21.346  0.00  0.00    +0.000 A 
ATOM     13  C   UNL     1       2.442   5.129  20.106  0.00  0.00    +0.000 A 
ATOM     14  N   UNL     1       2.367   6.451  19.621  0.00  0.00    +0.000 N 
ATOM     15  H   UNL     1       3.885   7.079  16.012  0.00  0.00    +0.000 HD
ENDROOT
BRANCH   6  16
ATOM     16  C   UNL     1       5.189   5.537  15.720  0.00  0.00    +0.000 A 
ATOM     17  C   UNL     1       5.070   4.606  14.674  0.00  0.00    +0.000 A 
ATOM     18  C   UNL     1       6.192   4.024  14.084  0.00  0.00    +0.000 A 
ATOM     19  C   UNL     1       7.466   4.375  14.518  0.00  0.00    +0.000 A 
ATOM     20  C   UNL     1       7.615   5.307  15.543  0.00  0.00    +0.000 A 
ATOM     21  C   UNL     1       6.486   5.879  16.143  0.00  0.00    +0.000 A 
ATOM     22 BR   UNL     1       6.768   7.153  17.525  0.00  0.00    +0.000 Br
ENDBRANCH   6  16
BRANCH   1  24
ATOM     23  C   UNL     1       0.098   8.952  21.248  0.00  0.00    +0.000 C 
ATOM     24  C   UNL     1       1.231   7.947  21.399  0.00  0.00    +0.000 C 
ENDBRANCH   1  24
TORSDOF 2
ENDMDL
