MODEL 1
REMARK VINA RESULT:      -8.8      0.000      0.000
REMARK  Name = 
REMARK  8 active torsions:
REMARK  status: ('A' for Active; 'I' for Inactive)
REMARK    1  A    between atoms: C_1  and  C_2
REMARK    2  A    between atoms: C_4  and  C_5
REMARK    3  A    between atoms: C_7  and  C_8
REMARK    4  A    between atoms: N_10  and  C_11
REMARK    5  A    between atoms: N_15  and  C_16
REMARK    6  A    between atoms: C_16  and  C_17
REMARK    7  A    between atoms: C_16  and  C_18
REMARK    8  A    between atoms: C_16  and  C_19
REMARK                            x       y       z     vdW  Elec       q    Type
REMARK                         _______ _______ _______ _____ _____    ______ ____
ROOT
ATOM      1  C   UNL     1       3.588   5.477  19.428  0.00  0.00    +0.000 A 
ATOM      2  C   UNL     1       4.703   5.600  18.642  0.00  0.00    +0.000 A 
ATOM      3  C   UNL     1       5.077   4.290  18.321  0.00  0.00    +0.000 A 
ATOM      4  N   UNL     1       4.287   3.375  18.868  0.00  0.00    +0.000 NA
ATOM      5  N   UNL     1       3.348   4.109  19.533  0.00  0.00    +0.000 N 
ATOM      6  C   UNL     1       6.295   4.092  17.504  0.00  0.00    +0.000 C 
ATOM      7  S   UNL     1       7.055   5.747  17.586  0.00  0.00    +0.000 S 
ATOM      8  O   UNL     1       8.038   5.755  18.653  0.00  0.00    +0.000 OA
ATOM      9  O   UNL     1       7.396   6.188  16.240  0.00  0.00    +0.000 OA
ATOM     10  C   UNL     1       5.590   6.676  18.158  0.00  0.00    +0.000 C 
ENDROOT
BRANCH   1  13
ATOM     11  C   UNL     1       2.213   7.467  19.137  0.00  0.00    +0.000 C 
ATOM     12  O   UNL     1       2.208   7.310  17.926  0.00  0.00    +0.000 OA
ATOM     13  N   UNL     1       2.887   6.528  19.992  0.00  0.00    +0.000 N 
ATOM     14  H   UNL     1       2.682   6.514  20.982  0.00  0.00    +0.000 HD
BRANCH  11  21
ATOM     15  C   UNL     1       0.093   9.381  23.251  0.00  0.00    +0.000 C 
ATOM     16  C   UNL     1       0.406   9.468  21.785  0.00  0.00    +0.000 A 
ATOM     17  C   UNL     1      -0.061  10.543  21.011  0.00  0.00    +0.000 A 
ATOM     18  C   UNL     1       0.222  10.623  19.641  0.00  0.00    +0.000 A 
ATOM     19  C   UNL     1      -0.285  11.768  18.814  0.00  0.00    +0.000 C 
ATOM     20  C   UNL     1       0.991   9.618  19.044  0.00  0.00    +0.000 A 
ATOM     21  C   UNL     1       1.448   8.536  19.807  0.00  0.00    +0.000 A 
ATOM     22  C   UNL     1       1.172   8.468  21.177  0.00  0.00    +0.000 A 
ENDBRANCH  11  21
ENDBRANCH   1  13
BRANCH   5  23
ATOM     23  C   UNL     1       2.180   3.433  20.134  0.00  0.00    +0.000 C 
ATOM     24  C   UNL     1       0.915   4.329  20.107  0.00  0.00    +0.000 C 
ATOM     25  C   UNL     1       1.863   2.143  19.356  0.00  0.00    +0.000 C 
ATOM     26  C   UNL     1       2.452   3.084  21.612  0.00  0.00    +0.000 C 
ENDBRANCH   5  23
TORSDOF 3
ENDMDL
MODEL 2
REMARK VINA RESULT:      -8.7      0.076      1.730
REMARK  Name = 
REMARK  8 active torsions:
REMARK  status: ('A' for Active; 'I' for Inactive)
REMARK    1  A    between atoms: C_1  and  C_2
REMARK    2  A    between atoms: C_4  and  C_5
REMARK    3  A    between atoms: C_7  and  C_8
REMARK    4  A    between atoms: N_10  and  C_11
REMARK    5  A    between atoms: N_15  and  C_16
REMARK    6  A    between atoms: C_16  and  C_17
REMARK    7  A    between atoms: C_16  and  C_18
REMARK    8  A    between atoms: C_16  and  C_19
REMARK                            x       y       z     vdW  Elec       q    Type
REMARK                         _______ _______ _______ _____ _____    ______ ____
ROOT
ATOM      1  C   UNL     1       3.577   5.509  19.430  0.00  0.00    +0.000 A 
ATOM      2  C   UNL     1       4.694   5.625  18.646  0.00  0.00    +0.000 A 
ATOM      3  C   UNL     1       5.077   4.311  18.349  0.00  0.00    +0.000 A 
ATOM      4  N   UNL     1       4.289   3.402  18.908  0.00  0.00    +0.000 NA
ATOM      5  N   UNL     1       3.344   4.142  19.557  0.00  0.00    +0.000 N 
ATOM      6  C   UNL     1       6.299   4.106  17.539  0.00  0.00    +0.000 C 
ATOM      7  S   UNL     1       7.050   5.767  17.597  0.00  0.00    +0.000 S 
ATOM      8  O   UNL     1       8.029   5.799  18.667  0.00  0.00    +0.000 OA
ATOM      9  O   UNL     1       7.394   6.187  16.245  0.00  0.00    +0.000 OA
ATOM     10  C   UNL     1       5.578   6.698  18.147  0.00  0.00    +0.000 C 
ENDROOT
BRANCH   1  13
ATOM     11  C   UNL     1       2.201   7.492  19.099  0.00  0.00    +0.000 C 
ATOM     12  O   UNL     1       2.208   7.319  17.890  0.00  0.00    +0.000 OA
ATOM     13  N   UNL     1       2.868   6.566  19.973  0.00  0.00    +0.000 N 
ATOM     14  H   UNL     1       2.653   6.564  20.961  0.00  0.00    +0.000 HD
BRANCH  11  21
ATOM     15  C   UNL     1      -0.111  11.930  18.890  0.00  0.00    +0.000 C 
ATOM     16  C   UNL     1       0.317  10.719  19.667  0.00  0.00    +0.000 A 
ATOM     17  C   UNL     1       0.030  10.603  21.037  0.00  0.00    +0.000 A 
ATOM     18  C   UNL     1       0.435   9.477  21.767  0.00  0.00    +0.000 A 
ATOM     19  C   UNL     1       0.135   9.359  23.233  0.00  0.00    +0.000 C 
ATOM     20  C   UNL     1       1.126   8.452  21.111  0.00  0.00    +0.000 A 
ATOM     21  C   UNL     1       1.427   8.568  19.748  0.00  0.00    +0.000 A 
ATOM     22  C   UNL     1       1.009   9.688  19.023  0.00  0.00    +0.000 A 
ENDBRANCH  11  21
ENDBRANCH   1  13
BRANCH   5  23
ATOM     23  C   UNL     1       2.177   3.470  20.165  0.00  0.00    +0.000 C 
ATOM     24  C   UNL     1       0.909   4.360  20.122  0.00  0.00    +0.000 C 
ATOM     25  C   UNL     1       1.867   2.167  19.404  0.00  0.00    +0.000 C 
ATOM     26  C   UNL     1       2.447   3.142  21.648  0.00  0.00    +0.000 C 
ENDBRANCH   5  23
TORSDOF 3
ENDMDL
MODEL 3
REMARK VINA RESULT:      -8.2      0.906      1.318
REMARK  Name = 
REMARK  8 active torsions:
REMARK  status: ('A' for Active; 'I' for Inactive)
REMARK    1  A    between atoms: C_1  and  C_2
REMARK    2  A    between atoms: C_4  and  C_5
REMARK    3  A    between atoms: C_7  and  C_8
REMARK    4  A    between atoms: N_10  and  C_11
REMARK    5  A    between atoms: N_15  and  C_16
REMARK    6  A    between atoms: C_16  and  C_17
REMARK    7  A    between atoms: C_16  and  C_18
REMARK    8  A    between atoms: C_16  and  C_19
REMARK                            x       y       z     vdW  Elec       q    Type
REMARK                         _______ _______ _______ _____ _____    ______ ____
ROOT
ATOM      1  C   UNL     1       3.382   5.484  18.769  0.00  0.00    +0.000 A 
ATOM      2  C   UNL     1       4.309   5.507  17.761  0.00  0.00    +0.000 A 
ATOM      3  C   UNL     1       4.512   4.166  17.413  0.00  0.00    +0.000 A 
ATOM      4  N   UNL     1       3.793   3.325  18.146  0.00  0.00    +0.000 NA
ATOM      5  N   UNL     1       3.073   4.142  18.969  0.00  0.00    +0.000 N 
ATOM      6  C   UNL     1       5.510   3.859  16.364  0.00  0.00    +0.000 C 
ATOM      7  S   UNL     1       6.386   5.453  16.227  0.00  0.00    +0.000 S 
ATOM      8  O   UNL     1       7.572   5.404  17.061  0.00  0.00    +0.000 OA
ATOM      9  O   UNL     1       6.463   5.840  14.825  0.00  0.00    +0.000 OA
ATOM     10  C   UNL     1       5.147   6.502  17.063  0.00  0.00    +0.000 C 
ENDROOT
BRANCH   1  13
ATOM     11  C   UNL     1       2.101   7.557  18.712  0.00  0.00    +0.000 C 
ATOM     12  O   UNL     1       1.809   7.366  17.541  0.00  0.00    +0.000 OA
ATOM     13  N   UNL     1       2.894   6.597  19.431  0.00  0.00    +0.000 N 
ATOM     14  H   UNL     1       2.921   6.624  20.442  0.00  0.00    +0.000 HD
BRANCH  11  21
ATOM     15  C   UNL     1       0.276   9.437  22.980  0.00  0.00    +0.000 C 
ATOM     16  C   UNL     1       0.680   9.615  21.544  0.00  0.00    +0.000 A 
ATOM     17  C   UNL     1       0.525  10.853  20.901  0.00  0.00    +0.000 A 
ATOM     18  C   UNL     1       0.893  11.020  19.559  0.00  0.00    +0.000 A 
ATOM     19  C   UNL     1       0.719  12.343  18.870  0.00  0.00    +0.000 C 
ATOM     20  C   UNL     1       1.432   9.935  18.860  0.00  0.00    +0.000 A 
ATOM     21  C   UNL     1       1.577   8.694  19.492  0.00  0.00    +0.000 A 
ATOM     22  C   UNL     1       1.219   8.537  20.835  0.00  0.00    +0.000 A 
ENDBRANCH  11  21
ENDBRANCH   1  13
BRANCH   5  23
ATOM     23  C   UNL     1       2.015   3.569  19.826  0.00  0.00    +0.000 C 
ATOM     24  C   UNL     1       2.593   2.606  20.894  0.00  0.00    +0.000 C 
ATOM     25  C   UNL     1       1.266   4.696  20.561  0.00  0.00    +0.000 C 
ATOM     26  C   UNL     1       1.011   2.756  18.984  0.00  0.00    +0.000 C 
ENDBRANCH   5  23
TORSDOF 3
ENDMDL
MODEL 4
REMARK VINA RESULT:      -8.1      0.892      2.144
REMARK  Name = 
REMARK  8 active torsions:
REMARK  status: ('A' for Active; 'I' for Inactive)
REMARK    1  A    between atoms: C_1  and  C_2
REMARK    2  A    between atoms: C_4  and  C_5
REMARK    3  A    between atoms: C_7  and  C_8
REMARK    4  A    between atoms: N_10  and  C_11
REMARK    5  A    between atoms: N_15  and  C_16
REMARK    6  A    between atoms: C_16  and  C_17
REMARK    7  A    between atoms: C_16  and  C_18
REMARK    8  A    between atoms: C_16  and  C_19
REMARK                            x       y       z     vdW  Elec       q    Type
REMARK                         _______ _______ _______ _____ _____    ______ ____
ROOT
ATOM      1  C   UNL     1       3.584   5.568  18.857  0.00  0.00    +0.000 A 
ATOM      2  C   UNL     1       4.487   5.572  17.826  0.00  0.00    +0.000 A 
ATOM      3  C   UNL     1       4.750   4.223  17.558  0.00  0.00    +0.000 A 
ATOM      4  N   UNL     1       4.089   3.396  18.358  0.00  0.00    +0.000 NA
ATOM      5  N   UNL     1       3.347   4.227  19.147  0.00  0.00    +0.000 N 
ATOM      6  C   UNL     1       5.739   3.901  16.505  0.00  0.00    +0.000 C 
ATOM      7  S   UNL     1       6.531   5.523  16.249  0.00  0.00    +0.000 S 
ATOM      8  O   UNL     1       7.736   5.585  17.055  0.00  0.00    +0.000 OA
ATOM      9  O   UNL     1       6.558   5.825  14.824  0.00  0.00    +0.000 OA
ATOM     10  C   UNL     1       5.259   6.561  17.049  0.00  0.00    +0.000 C 
ENDROOT
BRANCH   1  13
ATOM     11  C   UNL     1       2.141   7.527  18.727  0.00  0.00    +0.000 C 
ATOM     12  O   UNL     1       1.785   7.214  17.602  0.00  0.00    +0.000 OA
ATOM     13  N   UNL     1       3.055   6.695  19.461  0.00  0.00    +0.000 N 
ATOM     14  H   UNL     1       3.149   6.811  20.461  0.00  0.00    +0.000 HD
BRANCH  11  21
ATOM     15  C   UNL     1       0.850  12.364  18.865  0.00  0.00    +0.000 C 
ATOM     16  C   UNL     1       0.966  11.026  19.537  0.00  0.00    +0.000 A 
ATOM     17  C   UNL     1       0.588  10.859  20.879  0.00  0.00    +0.000 A 
ATOM     18  C   UNL     1       0.702   9.613  21.511  0.00  0.00    +0.000 A 
ATOM     19  C   UNL     1       0.306   9.438  22.949  0.00  0.00    +0.000 C 
ATOM     20  C   UNL     1       1.191   8.522  20.785  0.00  0.00    +0.000 A 
ATOM     21  C   UNL     1       1.582   8.685  19.450  0.00  0.00    +0.000 A 
ATOM     22  C   UNL     1       1.454   9.928  18.821  0.00  0.00    +0.000 A 
ENDBRANCH  11  21
ENDBRANCH   1  13
BRANCH   5  23
ATOM     23  C   UNL     1       2.337   3.658  20.063  0.00  0.00    +0.000 C 
ATOM     24  C   UNL     1       2.926   2.524  20.941  0.00  0.00    +0.000 C 
ATOM     25  C   UNL     1       1.803   4.754  21.003  0.00  0.00    +0.000 C 
ATOM     26  C   UNL     1       1.162   3.049  19.270  0.00  0.00    +0.000 C 
ENDBRANCH   5  23
TORSDOF 3
ENDMDL
MODEL 5
REMARK VINA RESULT:      -8.0      1.430      2.377
REMARK  Name = 
REMARK  8 active torsions:
REMARK  status: ('A' for Active; 'I' for Inactive)
REMARK    1  A    between atoms: C_1  and  C_2
REMARK    2  A    between atoms: C_4  and  C_5
REMARK    3  A    between atoms: C_7  and  C_8
REMARK    4  A    between atoms: N_10  and  C_11
REMARK    5  A    between atoms: N_15  and  C_16
REMARK    6  A    between atoms: C_16  and  C_17
REMARK    7  A    between atoms: C_16  and  C_18
REMARK    8  A    between atoms: C_16  and  C_19
REMARK                            x       y       z     vdW  Elec       q    Type
REMARK                         _______ _______ _______ _____ _____    ______ ____
ROOT
ATOM      1  C   UNL     1       3.198   5.061  17.775  0.00  0.00    +0.000 A 
ATOM      2  C   UNL     1       4.273   5.154  16.931  0.00  0.00    +0.000 A 
ATOM      3  C   UNL     1       4.767   3.848  16.815  0.00  0.00    +0.000 A 
ATOM      4  N   UNL     1       4.085   2.969  17.540  0.00  0.00    +0.000 NA
ATOM      5  N   UNL     1       3.097   3.715  18.114  0.00  0.00    +0.000 N 
ATOM      6  C   UNL     1       5.975   3.630  15.990  0.00  0.00    +0.000 C 
ATOM      7  S   UNL     1       6.569   5.339  15.765  0.00  0.00    +0.000 S 
ATOM      8  O   UNL     1       7.575   5.618  16.772  0.00  0.00    +0.000 OA
ATOM      9  O   UNL     1       6.829   5.576  14.351  0.00  0.00    +0.000 OA
ATOM     10  C   UNL     1       5.036   6.210  16.238  0.00  0.00    +0.000 C 
ENDROOT
BRANCH   1  13
ATOM     11  C   UNL     1       2.655   6.729  19.466  0.00  0.00    +0.000 C 
ATOM     12  O   UNL     1       3.585   6.353  20.163  0.00  0.00    +0.000 OA
ATOM     13  N   UNL     1       2.411   6.123  18.186  0.00  0.00    +0.000 N 
ATOM     14  H   UNL     1       1.818   6.591  17.513  0.00  0.00    +0.000 HD
BRANCH  11  21
ATOM     15  C   UNL     1       0.583  11.134  18.286  0.00  0.00    +0.000 C 
ATOM     16  C   UNL     1       0.810  10.021  19.269  0.00  0.00    +0.000 A 
ATOM     17  C   UNL     1       0.259  10.077  20.560  0.00  0.00    +0.000 A 
ATOM     18  C   UNL     1       0.475   9.044  21.482  0.00  0.00    +0.000 A 
ATOM     19  C   UNL     1      -0.108   9.109  22.864  0.00  0.00    +0.000 C 
ATOM     20  C   UNL     1       1.244   7.939  21.100  0.00  0.00    +0.000 A 
ATOM     21  C   UNL     1       1.807   7.884  19.820  0.00  0.00    +0.000 A 
ATOM     22  C   UNL     1       1.578   8.912  18.899  0.00  0.00    +0.000 A 
ENDBRANCH  11  21
ENDBRANCH   1  13
BRANCH   5  23
ATOM     23  C   UNL     1       2.018   3.043  18.869  0.00  0.00    +0.000 C 
ATOM     24  C   UNL     1       2.081   3.371  20.382  0.00  0.00    +0.000 C 
ATOM     25  C   UNL     1       0.646   3.500  18.341  0.00  0.00    +0.000 C 
ATOM     26  C   UNL     1       2.131   1.511  18.735  0.00  0.00    +0.000 C 
ENDBRANCH   5  23
TORSDOF 3
ENDMDL
MODEL 6
REMARK VINA RESULT:      -7.9      1.459      1.555
REMARK  Name = 
REMARK  8 active torsions:
REMARK  status: ('A' for Active; 'I' for Inactive)
REMARK    1  A    between atoms: C_1  and  C_2
REMARK    2  A    between atoms: C_4  and  C_5
REMARK    3  A    between atoms: C_7  and  C_8
REMARK    4  A    between atoms: N_10  and  C_11
REMARK    5  A    between atoms: N_15  and  C_16
REMARK    6  A    between atoms: C_16  and  C_17
REMARK    7  A    between atoms: C_16  and  C_18
REMARK    8  A    between atoms: C_16  and  C_19
REMARK                            x       y       z     vdW  Elec       q    Type
REMARK                         _______ _______ _______ _____ _____    ______ ____
ROOT
ATOM      1  C   UNL     1       3.252   5.042  17.745  0.00  0.00    +0.000 A 
ATOM      2  C   UNL     1       4.317   5.153  16.891  0.00  0.00    +0.000 A 
ATOM      3  C   UNL     1       4.825   3.854  16.763  0.00  0.00    +0.000 A 
ATOM      4  N   UNL     1       4.162   2.963  17.489  0.00  0.00    +0.000 NA
ATOM      5  N   UNL     1       3.171   3.693  18.078  0.00  0.00    +0.000 N 
ATOM      6  C   UNL     1       6.028   3.655  15.924  0.00  0.00    +0.000 C 
ATOM      7  S   UNL     1       6.599   5.373  15.703  0.00  0.00    +0.000 S 
ATOM      8  O   UNL     1       7.611   5.658  16.701  0.00  0.00    +0.000 OA
ATOM      9  O   UNL     1       6.841   5.621  14.288  0.00  0.00    +0.000 OA
ATOM     10  C   UNL     1       5.059   6.223  16.197  0.00  0.00    +0.000 C 
ENDROOT
BRANCH   1  13
ATOM     11  C   UNL     1       2.707   6.694  19.453  0.00  0.00    +0.000 C 
ATOM     12  O   UNL     1       3.648   6.325  20.137  0.00  0.00    +0.000 OA
ATOM     13  N   UNL     1       2.456   6.092  18.172  0.00  0.00    +0.000 N 
ATOM     14  H   UNL     1       1.851   6.557  17.508  0.00  0.00    +0.000 HD
BRANCH  11  21
ATOM     15  C   UNL     1      -0.236   9.043  22.755  0.00  0.00    +0.000 C 
ATOM     16  C   UNL     1       0.412   8.978  21.402  0.00  0.00    +0.000 A 
ATOM     17  C   UNL     1       0.180   9.977  20.443  0.00  0.00    +0.000 A 
ATOM     18  C   UNL     1       0.778   9.915  19.177  0.00  0.00    +0.000 A 
ATOM     19  C   UNL     1       0.522  10.980  18.150  0.00  0.00    +0.000 C 
ATOM     20  C   UNL     1       1.624   8.843  18.875  0.00  0.00    +0.000 A 
ATOM     21  C   UNL     1       1.849   7.836  19.822  0.00  0.00    +0.000 A 
ATOM     22  C   UNL     1       1.260   7.910  21.088  0.00  0.00    +0.000 A 
ENDBRANCH  11  21
ENDBRANCH   1  13
BRANCH   5  23
ATOM     23  C   UNL     1       2.108   3.004  18.839  0.00  0.00    +0.000 C 
ATOM     24  C   UNL     1       0.693   3.440  18.381  0.00  0.00    +0.000 C 
ATOM     25  C   UNL     1       2.222   1.482  18.640  0.00  0.00    +0.000 C 
ATOM     26  C   UNL     1       2.215   3.331  20.343  0.00  0.00    +0.000 C 
ENDBRANCH   5  23
TORSDOF 3
ENDMDL
MODEL 7
REMARK VINA RESULT:      -7.8      1.235      2.241
REMARK  Name = 
REMARK  8 active torsions:
REMARK  status: ('A' for Active; 'I' for Inactive)
REMARK    1  A    between atoms: C_1  and  C_2
REMARK    2  A    between atoms: C_4  and  C_5
REMARK    3  A    between atoms: C_7  and  C_8
REMARK    4  A    between atoms: N_10  and  C_11
REMARK    5  A    between atoms: N_15  and  C_16
REMARK    6  A    between atoms: C_16  and  C_17
REMARK    7  A    between atoms: C_16  and  C_18
REMARK    8  A    between atoms: C_16  and  C_19
REMARK                            x       y       z     vdW  Elec       q    Type
REMARK                         _______ _______ _______ _____ _____    ______ ____
ROOT
ATOM      1  C   UNL     1       3.431   5.726  18.059  0.00  0.00    +0.000 A 
ATOM      2  C   UNL     1       4.722   5.922  17.648  0.00  0.00    +0.000 A 
ATOM      3  C   UNL     1       5.240   4.640  17.427  0.00  0.00    +0.000 A 
ATOM      4  N   UNL     1       4.367   3.676  17.691  0.00  0.00    +0.000 NA
ATOM      5  N   UNL     1       3.238   4.347  18.058  0.00  0.00    +0.000 N 
ATOM      6  C   UNL     1       6.655   4.521  17.011  0.00  0.00    +0.000 C 
ATOM      7  S   UNL     1       7.272   6.202  17.353  0.00  0.00    +0.000 S 
ATOM      8  O   UNL     1       7.889   6.212  18.666  0.00  0.00    +0.000 OA
ATOM      9  O   UNL     1       7.980   6.703  16.182  0.00  0.00    +0.000 OA
ATOM     10  C   UNL     1       5.660   7.050  17.476  0.00  0.00    +0.000 C 
ENDROOT
BRANCH   1  13
ATOM     11  C   UNL     1       2.341   7.045  19.795  0.00  0.00    +0.000 C 
ATOM     12  O   UNL     1       2.991   6.479  20.660  0.00  0.00    +0.000 OA
ATOM     13  N   UNL     1       2.541   6.728  18.407  0.00  0.00    +0.000 N 
ATOM     14  H   UNL     1       2.201   7.359  17.693  0.00  0.00    +0.000 HD
BRANCH  11  21
ATOM     15  C   UNL     1      -0.251  11.065  18.311  0.00  0.00    +0.000 C 
ATOM     16  C   UNL     1       0.165  10.108  19.390  0.00  0.00    +0.000 A 
ATOM     17  C   UNL     1      -0.283  10.273  20.711  0.00  0.00    +0.000 A 
ATOM     18  C   UNL     1       0.110   9.386  21.722  0.00  0.00    +0.000 A 
ATOM     19  C   UNL     1      -0.363   9.569  23.136  0.00  0.00    +0.000 C 
ATOM     20  C   UNL     1       0.952   8.316  21.402  0.00  0.00    +0.000 A 
ATOM     21  C   UNL     1       1.413   8.154  20.089  0.00  0.00    +0.000 A 
ATOM     22  C   UNL     1       1.008   9.036  19.082  0.00  0.00    +0.000 A 
ENDBRANCH  11  21
ENDBRANCH   1  13
BRANCH   5  23
ATOM     23  C   UNL     1       1.978   3.603  18.265  0.00  0.00    +0.000 C 
ATOM     24  C   UNL     1       1.487   3.693  19.732  0.00  0.00    +0.000 C 
ATOM     25  C   UNL     1       0.874   4.180  17.360  0.00  0.00    +0.000 C 
ATOM     26  C   UNL     1       2.170   2.107  17.945  0.00  0.00    +0.000 C 
ENDBRANCH   5  23
TORSDOF 3
ENDMDL
MODEL 8
REMARK VINA RESULT:      -7.7      1.242      1.451
REMARK  Name = 
REMARK  8 active torsions:
REMARK  status: ('A' for Active; 'I' for Inactive)
REMARK    1  A    between atoms: C_1  and  C_2
REMARK    2  A    between atoms: C_4  and  C_5
REMARK    3  A    between atoms: C_7  and  C_8
REMARK    4  A    between atoms: N_10  and  C_11
REMARK    5  A    between atoms: N_15  and  C_16
REMARK    6  A    between atoms: C_16  and  C_17
REMARK    7  A    between atoms: C_16  and  C_18
REMARK    8  A    between atoms: C_16  and  C_19
REMARK                            x       y       z     vdW  Elec       q    Type
REMARK                         _______ _______ _______ _____ _____    ______ ____
ROOT
ATOM      1  C   UNL     1       3.401   5.701  18.084  0.00  0.00    +0.000 A 
ATOM      2  C   UNL     1       4.693   5.882  17.666  0.00  0.00    +0.000 A 
ATOM      3  C   UNL     1       5.186   4.595  17.420  0.00  0.00    +0.000 A 
ATOM      4  N   UNL     1       4.300   3.641  17.676  0.00  0.00    +0.000 NA
ATOM      5  N   UNL     1       3.184   4.326  18.062  0.00  0.00    +0.000 N 
ATOM      6  C   UNL     1       6.596   4.458  16.991  0.00  0.00    +0.000 C 
ATOM      7  S   UNL     1       7.245   6.122  17.355  0.00  0.00    +0.000 S 
ATOM      8  O   UNL     1       7.871   6.101  18.663  0.00  0.00    +0.000 OA
ATOM      9  O   UNL     1       7.952   6.630  16.187  0.00  0.00    +0.000 OA
ATOM     10  C   UNL     1       5.648   6.996  17.505  0.00  0.00    +0.000 C 
ENDROOT
BRANCH   1  13
ATOM     11  C   UNL     1       2.347   7.010  19.849  0.00  0.00    +0.000 C 
ATOM     12  O   UNL     1       2.993   6.418  20.700  0.00  0.00    +0.000 OA
ATOM     13  N   UNL     1       2.532   6.712  18.455  0.00  0.00    +0.000 N 
ATOM     14  H   UNL     1       2.197   7.360  17.754  0.00  0.00    +0.000 HD
BRANCH  11  21
ATOM     15  C   UNL     1      -0.385   9.595  23.156  0.00  0.00    +0.000 C 
ATOM     16  C   UNL     1       0.104   9.381  21.752  0.00  0.00    +0.000 A 
ATOM     17  C   UNL     1      -0.327  10.213  20.706  0.00  0.00    +0.000 A 
ATOM     18  C   UNL     1       0.121  10.011  19.393  0.00  0.00    +0.000 A 
ATOM     19  C   UNL     1      -0.347  10.896  18.274  0.00  0.00    +0.000 C 
ATOM     20  C   UNL     1       1.018   8.971  19.131  0.00  0.00    +0.000 A 
ATOM     21  C   UNL     1       1.441   8.129  20.168  0.00  0.00    +0.000 A 
ATOM     22  C   UNL     1       1.000   8.343  21.478  0.00  0.00    +0.000 A 
ENDBRANCH  11  21
ENDBRANCH   1  13
BRANCH   5  23
ATOM     23  C   UNL     1       1.914   3.600  18.267  0.00  0.00    +0.000 C 
ATOM     24  C   UNL     1       1.395   3.740  19.721  0.00  0.00    +0.000 C 
ATOM     25  C   UNL     1       0.833   4.159  17.324  0.00  0.00    +0.000 C 
ATOM     26  C   UNL     1       2.097   2.093  17.997  0.00  0.00    +0.000 C 
ENDBRANCH   5  23
TORSDOF 3
ENDMDL
MODEL 9
REMARK VINA RESULT:      -7.3      1.352      1.607
REMARK  Name = 
REMARK  8 active torsions:
REMARK  status: ('A' for Active; 'I' for Inactive)
REMARK    1  A    between atoms: C_1  and  C_2
REMARK    2  A    between atoms: C_4  and  C_5
REMARK    3  A    between atoms: C_7  and  C_8
REMARK    4  A    between atoms: N_10  and  C_11
REMARK    5  A    between atoms: N_15  and  C_16
REMARK    6  A    between atoms: C_16  and  C_17
REMARK    7  A    between atoms: C_16  and  C_18
REMARK    8  A    between atoms: C_16  and  C_19
REMARK                            x       y       z     vdW  Elec       q    Type
REMARK                         _______ _______ _______ _____ _____    ______ ____
ROOT
ATOM      1  C   UNL     1       3.531   5.985  18.754  0.00  0.00    +0.000 A 
ATOM      2  C   UNL     1       4.767   6.106  18.176  0.00  0.00    +0.000 A 
ATOM      3  C   UNL     1       5.277   4.803  18.116  0.00  0.00    +0.000 A 
ATOM      4  N   UNL     1       4.453   3.899  18.631  0.00  0.00    +0.000 NA
ATOM      5  N   UNL     1       3.360   4.626  19.004  0.00  0.00    +0.000 N 
ATOM      6  C   UNL     1       6.639   4.611  17.571  0.00  0.00    +0.000 C 
ATOM      7  S   UNL     1       7.265   6.324  17.559  0.00  0.00    +0.000 S 
ATOM      8  O   UNL     1       8.021   6.552  18.776  0.00  0.00    +0.000 OA
ATOM      9  O   UNL     1       7.832   6.620  16.251  0.00  0.00    +0.000 OA
ATOM     10  C   UNL     1       5.662   7.186  17.717  0.00  0.00    +0.000 C 
ENDROOT
BRANCH   1  13
ATOM     11  C   UNL     1       2.350   7.974  17.988  0.00  0.00    +0.000 C 
ATOM     12  O   UNL     1       2.785   7.820  16.857  0.00  0.00    +0.000 OA
ATOM     13  N   UNL     1       2.670   7.034  19.027  0.00  0.00    +0.000 N 
ATOM     14  H   UNL     1       2.119   7.015  19.876  0.00  0.00    +0.000 HD
BRANCH  11  21
ATOM     15  C   UNL     1       1.015  11.870  20.839  0.00  0.00    +0.000 C 
ATOM     16  C   UNL     1       0.724  10.915  19.716  0.00  0.00    +0.000 A 
ATOM     17  C   UNL     1      -0.485  10.986  19.006  0.00  0.00    +0.000 A 
ATOM     18  C   UNL     1      -0.762  10.092  17.963  0.00  0.00    +0.000 A 
ATOM     19  C   UNL     1      -2.059  10.164  17.210  0.00  0.00    +0.000 C 
ATOM     20  C   UNL     1       0.188   9.124  17.624  0.00  0.00    +0.000 A 
ATOM     21  C   UNL     1       1.391   9.039  18.338  0.00  0.00    +0.000 A 
ATOM     22  C   UNL     1       1.667   9.942  19.370  0.00  0.00    +0.000 A 
ENDBRANCH  11  21
ENDBRANCH   1  13
BRANCH   5  23
ATOM     23  C   UNL     1       2.142   3.931  19.469  0.00  0.00    +0.000 C 
ATOM     24  C   UNL     1       1.411   4.726  20.580  0.00  0.00    +0.000 C 
ATOM     25  C   UNL     1       1.163   3.746  18.296  0.00  0.00    +0.000 C 
ATOM     26  C   UNL     1       2.494   2.550  20.061  0.00  0.00    +0.000 C 
ENDBRANCH   5  23
TORSDOF 3
ENDMDL
