MODEL 1
REMARK VINA RESULT:      -8.0      0.000      0.000
REMARK  Name = 
REMARK  9 active torsions:
REMARK  status: ('A' for Active; 'I' for Inactive)
REMARK    1  A    between atoms: C_1  and  O_2
REMARK    2  A    between atoms: O_2  and  C_3
REMARK    3  A    between atoms: N_11  and  C_12
REMARK    4  A    between atoms: C_12  and  C_13
REMARK    5  A    between atoms: C_13  and  O_14
REMARK    6  A    between atoms: C_13  and  C_15
REMARK    7  A    between atoms: C_18  and  N_19
REMARK    8  A    between atoms: N_19  and  C_20
REMARK    9  A    between atoms: C_20  and  C_21
REMARK                            x       y       z     vdW  Elec       q    Type
REMARK                         _______ _______ _______ _____ _____    ______ ____
ROOT
ATOM      1  C   UNL     1       1.806   8.770  20.170  0.00  0.00    +0.000 C 
ATOM      2  C   UNL     1       1.168   8.508  21.537  0.00  0.00    +0.000 C 
ATOM      3  C   UNL     1      -0.349   8.685  21.558  0.00  0.00    +0.000 C 
ATOM      4  C   UNL     1      -0.799   9.998  20.894  0.00  0.00    +0.000 C 
ATOM      5  C   UNL     1      -0.116  10.117  19.514  0.00  0.00    +0.000 C 
ATOM      6  O   UNL     1       1.301   9.987  19.594  0.00  0.00    +0.000 OA
ENDROOT
BRANCH   4   7
ATOM      7  N   UNL     1      -0.487  11.116  21.809  0.00  0.00    +0.000 NA
ATOM      8  H   UNL     1      -0.776  11.990  21.363  0.00  0.00    +0.000 HD
BRANCH   7   9
ATOM      9  C   UNL     1      -1.222  11.021  23.079  0.00  0.00    +0.000 C 
BRANCH   9  10
ATOM     10  C   UNL     1      -2.126  12.213  23.316  0.00  0.00    +0.000 A 
ATOM     11  C   UNL     1      -1.670  13.517  23.132  0.00  0.00    +0.000 A 
ATOM     12  C   UNL     1      -2.551  14.578  23.371  0.00  0.00    +0.000 A 
ATOM     13  C   UNL     1      -3.870  14.292  23.723  0.00  0.00    +0.000 A 
ATOM     14  C   UNL     1      -4.238  12.968  23.876  0.00  0.00    +0.000 A 
ATOM     15  N   UNL     1      -3.397  11.929  23.699  0.00  0.00    +0.000 NA
ATOM     16  O   UNL     1      -4.838  15.241  23.891  0.00  0.00    +0.000 OA
ATOM     17  C   UNL     1      -4.357  16.309  24.705  0.00  0.00    +0.000 C 
ATOM     18  C   UNL     1      -3.313  17.172  24.012  0.00  0.00    +0.000 C 
ATOM     19  S   UNL     1      -1.943  16.247  23.237  0.00  0.00    +0.000 S 
ENDBRANCH   9  10
ENDBRANCH   7   9
ENDBRANCH   4   7
BRANCH   1  20
ATOM     20  C   UNL     1       1.823   7.562  19.183  0.00  0.00    +0.000 C 
BRANCH  20  21
ATOM     21  O   UNL     1       2.165   7.893  17.835  0.00  0.00    +0.000 OA
ATOM     22  H   UNL     1       3.100   8.124  17.783  0.00  0.00    +0.000 HD
ENDBRANCH  20  21
BRANCH  20  23
ATOM     23  C   UNL     1       2.724   6.437  19.748  0.00  0.00    +0.000 C 
BRANCH  23  32
ATOM     24  C   UNL     1       5.629   6.232  16.832  0.00  0.00    +0.000 A 
ATOM     25  C   UNL     1       5.737   5.212  15.900  0.00  0.00    +0.000 A 
ATOM     26  C   UNL     1       4.863   4.134  16.001  0.00  0.00    +0.000 A 
ATOM     27  C   UNL     1       3.907   4.124  17.020  0.00  0.00    +0.000 A 
ATOM     28  C   UNL     1       2.994   3.000  17.184  0.00  0.00    +0.000 A 
ATOM     29  C   UNL     1       2.062   3.051  18.136  0.00  0.00    +0.000 A 
ATOM     30  C   UNL     1       1.909   4.231  19.027  0.00  0.00    +0.000 A 
ATOM     31  O   UNL     1       0.963   4.240  19.811  0.00  0.00    +0.000 OA
ATOM     32  N   UNL     1       2.842   5.245  18.900  0.00  0.00    +0.000 N 
ATOM     33  C   UNL     1       3.849   5.216  17.898  0.00  0.00    +0.000 A 
ATOM     34  N   UNL     1       4.693   6.267  17.803  0.00  0.00    +0.000 NA
BRANCH  24  36
ATOM     35  C   UNL     1       7.569   7.173  17.718  0.00  0.00    +0.000 C 
ATOM     36  O   UNL     1       6.545   7.258  16.732  0.00  0.00    +0.000 OA
ENDBRANCH  24  36
ENDBRANCH  23  32
ENDBRANCH  20  23
ENDBRANCH   1  20
TORSDOF 8
ENDMDL
MODEL 2
REMARK VINA RESULT:      -7.9      1.088      1.317
REMARK  Name = 
REMARK  9 active torsions:
REMARK  status: ('A' for Active; 'I' for Inactive)
REMARK    1  A    between atoms: C_1  and  O_2
REMARK    2  A    between atoms: O_2  and  C_3
REMARK    3  A    between atoms: N_11  and  C_12
REMARK    4  A    between atoms: C_12  and  C_13
REMARK    5  A    between atoms: C_13  and  O_14
REMARK    6  A    between atoms: C_13  and  C_15
REMARK    7  A    between atoms: C_18  and  N_19
REMARK    8  A    between atoms: N_19  and  C_20
REMARK    9  A    between atoms: C_20  and  C_21
REMARK                            x       y       z     vdW  Elec       q    Type
REMARK                         _______ _______ _______ _____ _____    ______ ____
ROOT
ATOM      1  C   UNL     1       1.843   8.693  20.117  0.00  0.00    +0.000 C 
ATOM      2  C   UNL     1       1.180   8.509  21.486  0.00  0.00    +0.000 C 
ATOM      3  C   UNL     1      -0.327   8.752  21.484  0.00  0.00    +0.000 C 
ATOM      4  C   UNL     1      -0.713  10.058  20.768  0.00  0.00    +0.000 C 
ATOM      5  C   UNL     1      -0.012  10.098  19.393  0.00  0.00    +0.000 C 
ATOM      6  O   UNL     1       1.398   9.909  19.493  0.00  0.00    +0.000 OA
ENDROOT
BRANCH   4   7
ATOM      7  N   UNL     1      -0.362  11.194  21.646  0.00  0.00    +0.000 NA
ATOM      8  H   UNL     1      -0.702  12.056  21.213  0.00  0.00    +0.000 HD
BRANCH   7   9
ATOM      9  C   UNL     1      -1.000  11.098  22.967  0.00  0.00    +0.000 C 
BRANCH   9  10
ATOM     10  C   UNL     1      -1.769  12.351  23.331  0.00  0.00    +0.000 A 
ATOM     11  C   UNL     1      -3.162  12.362  23.374  0.00  0.00    +0.000 A 
ATOM     12  C   UNL     1      -3.816  13.552  23.713  0.00  0.00    +0.000 A 
ATOM     13  C   UNL     1      -3.051  14.667  24.054  0.00  0.00    +0.000 A 
ATOM     14  C   UNL     1      -1.674  14.566  23.990  0.00  0.00    +0.000 A 
ATOM     15  N   UNL     1      -1.019  13.446  23.622  0.00  0.00    +0.000 NA
ATOM     16  O   UNL     1      -3.579  15.851  24.486  0.00  0.00    +0.000 OA
ATOM     17  C   UNL     1      -4.652  16.260  23.641  0.00  0.00    +0.000 C 
ATOM     18  C   UNL     1      -5.895  15.393  23.784  0.00  0.00    +0.000 C 
ATOM     19  S   UNL     1      -5.596  13.596  23.669  0.00  0.00    +0.000 S 
ENDBRANCH   9  10
ENDBRANCH   7   9
ENDBRANCH   4   7
BRANCH   1  20
ATOM     20  C   UNL     1       1.817   7.450  19.174  0.00  0.00    +0.000 C 
BRANCH  20  21
ATOM     21  O   UNL     1       2.103   7.733  17.802  0.00  0.00    +0.000 OA
ATOM     22  H   UNL     1       2.726   8.467  17.743  0.00  0.00    +0.000 HD
ENDBRANCH  20  21
BRANCH  20  23
ATOM     23  C   UNL     1       2.739   6.344  19.741  0.00  0.00    +0.000 C 
BRANCH  23  32
ATOM     24  C   UNL     1       5.694   6.233  16.872  0.00  0.00    +0.000 A 
ATOM     25  C   UNL     1       5.841   5.225  15.933  0.00  0.00    +0.000 A 
ATOM     26  C   UNL     1       4.991   4.126  16.009  0.00  0.00    +0.000 A 
ATOM     27  C   UNL     1       4.019   4.084  17.012  0.00  0.00    +0.000 A 
ATOM     28  C   UNL     1       3.130   2.939  17.150  0.00  0.00    +0.000 A 
ATOM     29  C   UNL     1       2.181   2.960  18.088  0.00  0.00    +0.000 A 
ATOM     30  C   UNL     1       1.987   4.127  18.986  0.00  0.00    +0.000 A 
ATOM     31  O   UNL     1       1.028   4.107  19.755  0.00  0.00    +0.000 OA
ATOM     32  N   UNL     1       2.898   5.162  18.885  0.00  0.00    +0.000 N 
ATOM     33  C   UNL     1       3.921   5.167  17.898  0.00  0.00    +0.000 A 
ATOM     34  N   UNL     1       4.742   6.238  17.828  0.00  0.00    +0.000 NA
BRANCH  24  36
ATOM     35  C   UNL     1       7.659   7.152  17.726  0.00  0.00    +0.000 C 
ATOM     36  O   UNL     1       6.588   7.281  16.796  0.00  0.00    +0.000 OA
ENDBRANCH  24  36
ENDBRANCH  23  32
ENDBRANCH  20  23
ENDBRANCH   1  20
TORSDOF 8
ENDMDL
MODEL 3
REMARK VINA RESULT:      -7.9      3.196      3.896
REMARK  Name = 
REMARK  9 active torsions:
REMARK  status: ('A' for Active; 'I' for Inactive)
REMARK    1  A    between atoms: C_1  and  O_2
REMARK    2  A    between atoms: O_2  and  C_3
REMARK    3  A    between atoms: N_11  and  C_12
REMARK    4  A    between atoms: C_12  and  C_13
REMARK    5  A    between atoms: C_13  and  O_14
REMARK    6  A    between atoms: C_13  and  C_15
REMARK    7  A    between atoms: C_18  and  N_19
REMARK    8  A    between atoms: N_19  and  C_20
REMARK    9  A    between atoms: C_20  and  C_21
REMARK                            x       y       z     vdW  Elec       q    Type
REMARK                         _______ _______ _______ _____ _____    ______ ____
ROOT
ATOM      1  C   UNL     1       1.056   8.958  18.876  0.00  0.00    +0.000 C 
ATOM      2  C   UNL     1       1.491   9.977  17.818  0.00  0.00    +0.000 C 
ATOM      3  C   UNL     1       2.149  11.228  18.395  0.00  0.00    +0.000 C 
ATOM      4  C   UNL     1       1.346  11.834  19.559  0.00  0.00    +0.000 C 
ATOM      5  C   UNL     1       1.008  10.713  20.567  0.00  0.00    +0.000 C 
ATOM      6  O   UNL     1       0.355   9.605  19.951  0.00  0.00    +0.000 OA
ENDROOT
BRANCH   4   7
ATOM      7  N   UNL     1       0.155  12.511  19.004  0.00  0.00    +0.000 NA
ATOM      8  H   UNL     1      -0.242  11.920  18.270  0.00  0.00    +0.000 HD
BRANCH   7   9
ATOM      9  C   UNL     1      -0.898  12.706  20.012  0.00  0.00    +0.000 C 
BRANCH   9  10
ATOM     10  C   UNL     1      -2.273  12.351  19.488  0.00  0.00    +0.000 A 
ATOM     11  C   UNL     1      -3.427  12.667  20.203  0.00  0.00    +0.000 A 
ATOM     12  C   UNL     1      -4.670  12.309  19.669  0.00  0.00    +0.000 A 
ATOM     13  C   UNL     1      -4.714  11.705  18.412  0.00  0.00    +0.000 A 
ATOM     14  C   UNL     1      -3.521  11.433  17.770  0.00  0.00    +0.000 A 
ATOM     15  N   UNL     1      -2.308  11.725  18.283  0.00  0.00    +0.000 NA
ATOM     16  O   UNL     1      -5.871  11.395  17.755  0.00  0.00    +0.000 OA
ATOM     17  C   UNL     1      -6.780  10.729  18.627  0.00  0.00    +0.000 C 
ATOM     18  C   UNL     1      -7.366  11.639  19.697  0.00  0.00    +0.000 C 
ATOM     19  S   UNL     1      -6.139  12.620  20.627  0.00  0.00    +0.000 S 
ENDBRANCH   9  10
ENDBRANCH   7   9
ENDBRANCH   4   7
BRANCH   1  20
ATOM     20  C   UNL     1       2.154   7.955  19.349  0.00  0.00    +0.000 C 
BRANCH  20  21
ATOM     21  O   UNL     1       1.884   7.316  20.599  0.00  0.00    +0.000 OA
ATOM     22  H   UNL     1       0.957   7.055  20.639  0.00  0.00    +0.000 HD
ENDBRANCH  20  21
BRANCH  20  23
ATOM     23  C   UNL     1       2.445   6.930  18.226  0.00  0.00    +0.000 C 
BRANCH  23  32
ATOM     24  C   UNL     1       6.486   6.848  17.429  0.00  0.00    +0.000 A 
ATOM     25  C   UNL     1       7.310   5.756  17.649  0.00  0.00    +0.000 A 
ATOM     26  C   UNL     1       6.762   4.633  18.262  0.00  0.00    +0.000 A 
ATOM     27  C   UNL     1       5.411   4.641  18.618  0.00  0.00    +0.000 A 
ATOM     28  C   UNL     1       4.804   3.501  19.291  0.00  0.00    +0.000 A 
ATOM     29  C   UNL     1       3.499   3.526  19.569  0.00  0.00    +0.000 A 
ATOM     30  C   UNL     1       2.636   4.675  19.192  0.00  0.00    +0.000 A 
ATOM     31  O   UNL     1       1.428   4.577  19.394  0.00  0.00    +0.000 OA
ATOM     32  N   UNL     1       3.257   5.775  18.629  0.00  0.00    +0.000 N 
ATOM     33  C   UNL     1       4.645   5.779  18.325  0.00  0.00    +0.000 A 
ATOM     34  N   UNL     1       5.171   6.872  17.728  0.00  0.00    +0.000 NA
BRANCH  24  36
ATOM     35  C   UNL     1       7.933   8.642  17.778  0.00  0.00    +0.000 C 
ATOM     36  O   UNL     1       7.077   7.961  16.867  0.00  0.00    +0.000 OA
ENDBRANCH  24  36
ENDBRANCH  23  32
ENDBRANCH  20  23
ENDBRANCH   1  20
TORSDOF 8
ENDMDL
MODEL 4
REMARK VINA RESULT:      -7.8      5.557      9.142
REMARK  Name = 
REMARK  9 active torsions:
REMARK  status: ('A' for Active; 'I' for Inactive)
REMARK    1  A    between atoms: C_1  and  O_2
REMARK    2  A    between atoms: O_2  and  C_3
REMARK    3  A    between atoms: N_11  and  C_12
REMARK    4  A    between atoms: C_12  and  C_13
REMARK    5  A    between atoms: C_13  and  O_14
REMARK    6  A    between atoms: C_13  and  C_15
REMARK    7  A    between atoms: C_18  and  N_19
REMARK    8  A    between atoms: N_19  and  C_20
REMARK    9  A    between atoms: C_20  and  C_21
REMARK                            x       y       z     vdW  Elec       q    Type
REMARK                         _______ _______ _______ _____ _____    ______ ____
ROOT
ATOM      1  C   UNL     1       4.785   5.559  16.892  0.00  0.00    +0.000 C 
ATOM      2  C   UNL     1       5.678   6.043  15.745  0.00  0.00    +0.000 C 
ATOM      3  C   UNL     1       7.167   5.793  15.970  0.00  0.00    +0.000 C 
ATOM      4  C   UNL     1       7.637   6.241  17.365  0.00  0.00    +0.000 C 
ATOM      5  C   UNL     1       6.678   5.656  18.425  0.00  0.00    +0.000 C 
ATOM      6  O   UNL     1       5.314   5.977  18.162  0.00  0.00    +0.000 OA
ENDROOT
BRANCH   4   7
ATOM      7  N   UNL     1       7.710   7.717  17.382  0.00  0.00    +0.000 NA
ATOM      8  H   UNL     1       6.758   8.089  17.381  0.00  0.00    +0.000 HD
BRANCH   7   9
ATOM      9  C   UNL     1       8.368   8.230  18.593  0.00  0.00    +0.000 C 
BRANCH   9  10
ATOM     10  C   UNL     1       8.675   9.710  18.502  0.00  0.00    +0.000 A 
ATOM     11  C   UNL     1       9.648  10.301  19.305  0.00  0.00    +0.000 A 
ATOM     12  C   UNL     1       9.883  11.675  19.179  0.00  0.00    +0.000 A 
ATOM     13  C   UNL     1       9.180  12.391  18.211  0.00  0.00    +0.000 A 
ATOM     14  C   UNL     1       8.236  11.724  17.452  0.00  0.00    +0.000 A 
ATOM     15  N   UNL     1       7.957  10.411  17.586  0.00  0.00    +0.000 NA
ATOM     16  O   UNL     1       9.391  13.713  17.937  0.00  0.00    +0.000 OA
ATOM     17  C   UNL     1       9.437  14.474  19.142  0.00  0.00    +0.000 C 
ATOM     18  C   UNL     1      10.686  14.213  19.972  0.00  0.00    +0.000 C 
ATOM     19  S   UNL     1      11.053  12.451  20.274  0.00  0.00    +0.000 S 
ENDBRANCH   9  10
ENDBRANCH   7   9
ENDBRANCH   4   7
BRANCH   1  20
ATOM     20  C   UNL     1       4.365   4.057  16.843  0.00  0.00    +0.000 C 
BRANCH  20  21
ATOM     21  O   UNL     1       5.070   3.208  17.752  0.00  0.00    +0.000 OA
ATOM     22  H   UNL     1       5.317   3.706  18.540  0.00  0.00    +0.000 HD
ENDBRANCH  20  21
BRANCH  20  23
ATOM     23  C   UNL     1       2.832   3.937  17.010  0.00  0.00    +0.000 C 
BRANCH  23  32
ATOM     24  C   UNL     1       2.072   7.459  19.009  0.00  0.00    +0.000 A 
ATOM     25  C   UNL     1       1.745   7.546  20.353  0.00  0.00    +0.000 A 
ATOM     26  C   UNL     1       1.574   6.363  21.066  0.00  0.00    +0.000 A 
ATOM     27  C   UNL     1       1.749   5.141  20.411  0.00  0.00    +0.000 A 
ATOM     28  C   UNL     1       1.548   3.878  21.109  0.00  0.00    +0.000 A 
ATOM     29  C   UNL     1       1.775   2.734  20.464  0.00  0.00    +0.000 A 
ATOM     30  C   UNL     1       2.250   2.703  19.057  0.00  0.00    +0.000 A 
ATOM     31  O   UNL     1       2.531   1.611  18.569  0.00  0.00    +0.000 OA
ATOM     32  N   UNL     1       2.353   3.914  18.397  0.00  0.00    +0.000 N 
ATOM     33  C   UNL     1       2.113   5.150  19.057  0.00  0.00    +0.000 A 
ATOM     34  N   UNL     1       2.283   6.295  18.360  0.00  0.00    +0.000 NA
BRANCH  24  36
ATOM     35  C   UNL     1       1.095   9.532  18.585  0.00  0.00    +0.000 C 
ATOM     36  O   UNL     1       2.182   8.650  18.324  0.00  0.00    +0.000 OA
ENDBRANCH  24  36
ENDBRANCH  23  32
ENDBRANCH  20  23
ENDBRANCH   1  20
TORSDOF 8
ENDMDL
MODEL 5
REMARK VINA RESULT:      -7.8      3.895     10.547
REMARK  Name = 
REMARK  9 active torsions:
REMARK  status: ('A' for Active; 'I' for Inactive)
REMARK    1  A    between atoms: C_1  and  O_2
REMARK    2  A    between atoms: O_2  and  C_3
REMARK    3  A    between atoms: N_11  and  C_12
REMARK    4  A    between atoms: C_12  and  C_13
REMARK    5  A    between atoms: C_13  and  O_14
REMARK    6  A    between atoms: C_13  and  C_15
REMARK    7  A    between atoms: C_18  and  N_19
REMARK    8  A    between atoms: N_19  and  C_20
REMARK    9  A    between atoms: C_20  and  C_21
REMARK                            x       y       z     vdW  Elec       q    Type
REMARK                         _______ _______ _______ _____ _____    ______ ____
ROOT
ATOM      1  C   UNL     1       0.477  11.535  21.160  0.00  0.00    +0.000 C 
ATOM      2  C   UNL     1       0.556  11.558  19.631  0.00  0.00    +0.000 C 
ATOM      3  C   UNL     1       0.132  10.249  18.967  0.00  0.00    +0.000 C 
ATOM      4  C   UNL     1       0.792   9.019  19.613  0.00  0.00    +0.000 C 
ATOM      5  C   UNL     1       0.607   9.101  21.145  0.00  0.00    +0.000 C 
ATOM      6  O   UNL     1       1.072  10.336  21.685  0.00  0.00    +0.000 OA
ENDROOT
BRANCH   4   7
ATOM      7  N   UNL     1       2.208   8.971  19.189  0.00  0.00    +0.000 NA
ATOM      8  H   UNL     1       2.722   8.376  19.842  0.00  0.00    +0.000 HD
BRANCH   7   9
ATOM      9  C   UNL     1       2.371   8.381  17.852  0.00  0.00    +0.000 C 
BRANCH   9  10
ATOM     10  C   UNL     1       2.841   6.942  17.909  0.00  0.00    +0.000 A 
ATOM     11  C   UNL     1       1.955   5.899  18.172  0.00  0.00    +0.000 A 
ATOM     12  C   UNL     1       2.449   4.590  18.215  0.00  0.00    +0.000 A 
ATOM     13  C   UNL     1       3.797   4.370  17.934  0.00  0.00    +0.000 A 
ATOM     14  C   UNL     1       4.604   5.463  17.677  0.00  0.00    +0.000 A 
ATOM     15  N   UNL     1       4.163   6.738  17.675  0.00  0.00    +0.000 NA
ATOM     16  O   UNL     1       4.368   3.131  17.859  0.00  0.00    +0.000 OA
ATOM     17  C   UNL     1       3.988   2.335  18.978  0.00  0.00    +0.000 C 
ATOM     18  C   UNL     1       2.526   1.912  18.948  0.00  0.00    +0.000 C 
ATOM     19  S   UNL     1       1.340   3.267  18.652  0.00  0.00    +0.000 S 
ENDBRANCH   9  10
ENDBRANCH   7   9
ENDBRANCH   4   7
BRANCH   1  20
ATOM     20  C   UNL     1      -0.916  11.874  21.776  0.00  0.00    +0.000 C 
BRANCH  20  21
ATOM     21  O   UNL     1      -0.880  12.308  23.138  0.00  0.00    +0.000 OA
ATOM     22  H   UNL     1      -1.708  12.079  23.575  0.00  0.00    +0.000 HD
ENDBRANCH  20  21
BRANCH  20  23
ATOM     23  C   UNL     1      -1.659  12.882  20.867  0.00  0.00    +0.000 C 
BRANCH  23  32
ATOM     24  C   UNL     1      -3.226  11.472  17.327  0.00  0.00    +0.000 A 
ATOM     25  C   UNL     1      -4.580  11.352  17.059  0.00  0.00    +0.000 A 
ATOM     26  C   UNL     1      -5.481  11.642  18.079  0.00  0.00    +0.000 A 
ATOM     27  C   UNL     1      -4.993  12.054  19.323  0.00  0.00    +0.000 A 
ATOM     28  C   UNL     1      -5.898  12.337  20.429  0.00  0.00    +0.000 A 
ATOM     29  C   UNL     1      -5.397  12.777  21.584  0.00  0.00    +0.000 A 
ATOM     30  C   UNL     1      -3.942  13.011  21.774  0.00  0.00    +0.000 A 
ATOM     31  O   UNL     1      -3.574  13.512  22.834  0.00  0.00    +0.000 OA
ATOM     32  N   UNL     1      -3.103  12.656  20.733  0.00  0.00    +0.000 N 
ATOM     33  C   UNL     1      -3.607  12.181  19.492  0.00  0.00    +0.000 A 
ATOM     34  N   UNL     1      -2.728  11.902  18.504  0.00  0.00    +0.000 NA
BRANCH  24  36
ATOM     35  C   UNL     1      -2.923  10.160  15.424  0.00  0.00    +0.000 C 
ATOM     36  O   UNL     1      -2.364  11.125  16.308  0.00  0.00    +0.000 OA
ENDBRANCH  24  36
ENDBRANCH  23  32
ENDBRANCH  20  23
ENDBRANCH   1  20
TORSDOF 8
ENDMDL
MODEL 6
REMARK VINA RESULT:      -7.7      3.037      3.730
REMARK  Name = 
REMARK  9 active torsions:
REMARK  status: ('A' for Active; 'I' for Inactive)
REMARK    1  A    between atoms: C_1  and  O_2
REMARK    2  A    between atoms: O_2  and  C_3
REMARK    3  A    between atoms: N_11  and  C_12
REMARK    4  A    between atoms: C_12  and  C_13
REMARK    5  A    between atoms: C_13  and  O_14
REMARK    6  A    between atoms: C_13  and  C_15
REMARK    7  A    between atoms: C_18  and  N_19
REMARK    8  A    between atoms: N_19  and  C_20
REMARK    9  A    between atoms: C_20  and  C_21
REMARK                            x       y       z     vdW  Elec       q    Type
REMARK                         _______ _______ _______ _____ _____    ______ ____
ROOT
ATOM      1  C   UNL     1       0.986   8.254  19.684  0.00  0.00    +0.000 C 
ATOM      2  C   UNL     1       0.699   9.517  18.867  0.00  0.00    +0.000 C 
ATOM      3  C   UNL     1       1.242  10.799  19.493  0.00  0.00    +0.000 C 
ATOM      4  C   UNL     1       0.890  10.922  20.985  0.00  0.00    +0.000 C 
ATOM      5  C   UNL     1       1.263   9.602  21.695  0.00  0.00    +0.000 C 
ATOM      6  O   UNL     1       0.676   8.462  21.073  0.00  0.00    +0.000 OA
ENDROOT
BRANCH   4   7
ATOM      7  N   UNL     1      -0.542  11.272  21.101  0.00  0.00    +0.000 NA
ATOM      8  H   UNL     1      -0.726  11.575  22.060  0.00  0.00    +0.000 HD
BRANCH   7   9
ATOM      9  C   UNL     1      -0.917  12.390  20.221  0.00  0.00    +0.000 C 
BRANCH   9  10
ATOM     10  C   UNL     1      -2.271  12.188  19.575  0.00  0.00    +0.000 A 
ATOM     11  C   UNL     1      -3.441  12.635  20.186  0.00  0.00    +0.000 A 
ATOM     12  C   UNL     1      -4.664  12.415  19.541  0.00  0.00    +0.000 A 
ATOM     13  C   UNL     1      -4.663  11.812  18.283  0.00  0.00    +0.000 A 
ATOM     14  C   UNL     1      -3.455  11.405  17.748  0.00  0.00    +0.000 A 
ATOM     15  N   UNL     1      -2.268  11.563  18.369  0.00  0.00    +0.000 NA
ATOM     16  O   UNL     1      -5.785  11.630  17.525  0.00  0.00    +0.000 OA
ATOM     17  C   UNL     1      -6.837  11.074  18.309  0.00  0.00    +0.000 C 
ATOM     18  C   UNL     1      -7.410  12.050  19.327  0.00  0.00    +0.000 C 
ATOM     19  S   UNL     1      -6.168  12.893  20.366  0.00  0.00    +0.000 S 
ENDBRANCH   9  10
ENDBRANCH   7   9
ENDBRANCH   4   7
BRANCH   1  20
ATOM     20  C   UNL     1       2.373   7.583  19.439  0.00  0.00    +0.000 C 
BRANCH  20  21
ATOM     21  O   UNL     1       2.707   6.542  20.359  0.00  0.00    +0.000 OA
ATOM     22  H   UNL     1       2.664   6.878  21.262  0.00  0.00    +0.000 HD
ENDBRANCH  20  21
BRANCH  20  23
ATOM     23  C   UNL     1       2.472   7.109  17.969  0.00  0.00    +0.000 C 
BRANCH  23  32
ATOM     24  C   UNL     1       6.499   6.918  17.119  0.00  0.00    +0.000 A 
ATOM     25  C   UNL     1       7.180   5.756  16.790  0.00  0.00    +0.000 A 
ATOM     26  C   UNL     1       6.483   4.552  16.831  0.00  0.00    +0.000 A 
ATOM     27  C   UNL     1       5.132   4.558  17.186  0.00  0.00    +0.000 A 
ATOM     28  C   UNL     1       4.372   3.318  17.275  0.00  0.00    +0.000 A 
ATOM     29  C   UNL     1       3.072   3.370  17.566  0.00  0.00    +0.000 A 
ATOM     30  C   UNL     1       2.364   4.658  17.784  0.00  0.00    +0.000 A 
ATOM     31  O   UNL     1       1.146   4.624  17.949  0.00  0.00    +0.000 OA
ATOM     32  N   UNL     1       3.128   5.810  17.773  0.00  0.00    +0.000 N 
ATOM     33  C   UNL     1       4.517   5.786  17.470  0.00  0.00    +0.000 A 
ATOM     34  N   UNL     1       5.187   6.959  17.429  0.00  0.00    +0.000 NA
BRANCH  24  36
ATOM     35  C   UNL     1       8.225   8.106  18.141  0.00  0.00    +0.000 C 
ATOM     36  O   UNL     1       7.235   8.084  17.117  0.00  0.00    +0.000 OA
ENDBRANCH  24  36
ENDBRANCH  23  32
ENDBRANCH  20  23
ENDBRANCH   1  20
TORSDOF 8
ENDMDL
MODEL 7
REMARK VINA RESULT:      -7.7      3.830     10.925
REMARK  Name = 
REMARK  9 active torsions:
REMARK  status: ('A' for Active; 'I' for Inactive)
REMARK    1  A    between atoms: C_1  and  O_2
REMARK    2  A    between atoms: O_2  and  C_3
REMARK    3  A    between atoms: N_11  and  C_12
REMARK    4  A    between atoms: C_12  and  C_13
REMARK    5  A    between atoms: C_13  and  O_14
REMARK    6  A    between atoms: C_13  and  C_15
REMARK    7  A    between atoms: C_18  and  N_19
REMARK    8  A    between atoms: N_19  and  C_20
REMARK    9  A    between atoms: C_20  and  C_21
REMARK                            x       y       z     vdW  Elec       q    Type
REMARK                         _______ _______ _______ _____ _____    ______ ____
ROOT
ATOM      1  C   UNL     1      -0.433  11.560  21.570  0.00  0.00    +0.000 C 
ATOM      2  C   UNL     1      -0.099  10.815  20.274  0.00  0.00    +0.000 C 
ATOM      3  C   UNL     1      -0.467   9.333  20.297  0.00  0.00    +0.000 C 
ATOM      4  C   UNL     1       0.020   8.625  21.573  0.00  0.00    +0.000 C 
ATOM      5  C   UNL     1      -0.414   9.456  22.800  0.00  0.00    +0.000 C 
ATOM      6  O   UNL     1       0.011  10.814  22.716  0.00  0.00    +0.000 OA
ENDROOT
BRANCH   4   7
ATOM      7  N   UNL     1       1.482   8.433  21.473  0.00  0.00    +0.000 NA
ATOM      8  H   UNL     1       1.752   7.669  22.096  0.00  0.00    +0.000 HD
BRANCH   7   9
ATOM      9  C   UNL     1       1.905   8.050  20.118  0.00  0.00    +0.000 C 
BRANCH   9  10
ATOM     10  C   UNL     1       2.199   6.569  20.001  0.00  0.00    +0.000 A 
ATOM     11  C   UNL     1       2.897   6.051  18.911  0.00  0.00    +0.000 A 
ATOM     12  C   UNL     1       3.136   4.673  18.857  0.00  0.00    +0.000 A 
ATOM     13  C   UNL     1       2.721   3.876  19.924  0.00  0.00    +0.000 A 
ATOM     14  C   UNL     1       2.040   4.474  20.968  0.00  0.00    +0.000 A 
ATOM     15  N   UNL     1       1.756   5.791  21.023  0.00  0.00    +0.000 NA
ATOM     16  O   UNL     1       2.978   2.538  20.021  0.00  0.00    +0.000 OA
ATOM     17  C   UNL     1       2.671   1.877  18.796  0.00  0.00    +0.000 C 
ATOM     18  C   UNL     1       3.640   2.212  17.671  0.00  0.00    +0.000 C 
ATOM     19  S   UNL     1       3.936   3.995  17.418  0.00  0.00    +0.000 S 
ENDBRANCH   9  10
ENDBRANCH   7   9
ENDBRANCH   4   7
BRANCH   1  20
ATOM     20  C   UNL     1      -1.891  12.100  21.691  0.00  0.00    +0.000 C 
BRANCH  20  21
ATOM     21  O   UNL     1      -2.174  12.796  22.907  0.00  0.00    +0.000 OA
ATOM     22  H   UNL     1      -1.986  12.225  23.661  0.00  0.00    +0.000 HD
ENDBRANCH  20  21
BRANCH  20  23
ATOM     23  C   UNL     1      -2.240  12.948  20.445  0.00  0.00    +0.000 C 
BRANCH  23  32
ATOM     24  C   UNL     1      -6.129  12.834  21.803  0.00  0.00    +0.000 A 
ATOM     25  C   UNL     1      -7.178  12.224  21.134  0.00  0.00    +0.000 A 
ATOM     26  C   UNL     1      -6.931  11.684  19.875  0.00  0.00    +0.000 A 
ATOM     27  C   UNL     1      -5.642  11.764  19.340  0.00  0.00    +0.000 A 
ATOM     28  C   UNL     1      -5.345  11.243  18.013  0.00  0.00    +0.000 A 
ATOM     29  C   UNL     1      -4.092  11.292  17.559  0.00  0.00    +0.000 A 
ATOM     30  C   UNL     1      -2.979  11.843  18.375  0.00  0.00    +0.000 A 
ATOM     31  O   UNL     1      -1.839  11.759  17.923  0.00  0.00    +0.000 OA
ATOM     32  N   UNL     1      -3.307  12.403  19.596  0.00  0.00    +0.000 N 
ATOM     33  C   UNL     1      -4.634  12.370  20.104  0.00  0.00    +0.000 A 
ATOM     34  N   UNL     1      -4.868  12.893  21.328  0.00  0.00    +0.000 NA
BRANCH  24  36
ATOM     35  C   UNL     1      -5.257  13.711  23.778  0.00  0.00    +0.000 C 
ATOM     36  O   UNL     1      -6.425  13.402  23.024  0.00  0.00    +0.000 OA
ENDBRANCH  24  36
ENDBRANCH  23  32
ENDBRANCH  20  23
ENDBRANCH   1  20
TORSDOF 8
ENDMDL
MODEL 8
REMARK VINA RESULT:      -7.6      3.003      3.509
REMARK  Name = 
REMARK  9 active torsions:
REMARK  status: ('A' for Active; 'I' for Inactive)
REMARK    1  A    between atoms: C_1  and  O_2
REMARK    2  A    between atoms: O_2  and  C_3
REMARK    3  A    between atoms: N_11  and  C_12
REMARK    4  A    between atoms: C_12  and  C_13
REMARK    5  A    between atoms: C_13  and  O_14
REMARK    6  A    between atoms: C_13  and  C_15
REMARK    7  A    between atoms: C_18  and  N_19
REMARK    8  A    between atoms: N_19  and  C_20
REMARK    9  A    between atoms: C_20  and  C_21
REMARK                            x       y       z     vdW  Elec       q    Type
REMARK                         _______ _______ _______ _____ _____    ______ ____
ROOT
ATOM      1  C   UNL     1       1.023   8.846  18.995  0.00  0.00    +0.000 C 
ATOM      2  C   UNL     1       1.253   9.982  17.993  0.00  0.00    +0.000 C 
ATOM      3  C   UNL     1       1.787  11.267  18.623  0.00  0.00    +0.000 C 
ATOM      4  C   UNL     1       0.996  11.683  19.875  0.00  0.00    +0.000 C 
ATOM      5  C   UNL     1       0.871  10.462  20.813  0.00  0.00    +0.000 C 
ATOM      6  O   UNL     1       0.322   9.323  20.155  0.00  0.00    +0.000 OA
ENDROOT
BRANCH   4   7
ATOM      7  N   UNL     1      -0.306  12.235  19.445  0.00  0.00    +0.000 NA
ATOM      8  H   UNL     1      -0.878  11.470  19.081  0.00  0.00    +0.000 HD
BRANCH   7   9
ATOM      9  C   UNL     1      -1.054  12.836  20.559  0.00  0.00    +0.000 C 
BRANCH   9  10
ATOM     10  C   UNL     1      -2.550  12.651  20.418  0.00  0.00    +0.000 A 
ATOM     11  C   UNL     1      -3.117  12.198  19.228  0.00  0.00    +0.000 A 
ATOM     12  C   UNL     1      -4.507  12.051  19.156  0.00  0.00    +0.000 A 
ATOM     13  C   UNL     1      -5.270  12.304  20.296  0.00  0.00    +0.000 A 
ATOM     14  C   UNL     1      -4.625  12.745  21.437  0.00  0.00    +0.000 A 
ATOM     15  N   UNL     1      -3.293  12.939  21.518  0.00  0.00    +0.000 NA
ATOM     16  O   UNL     1      -6.620  12.108  20.369  0.00  0.00    +0.000 OA
ATOM     17  C   UNL     1      -7.271  12.674  19.234  0.00  0.00    +0.000 C 
ATOM     18  C   UNL     1      -7.002  11.914  17.943  0.00  0.00    +0.000 C 
ATOM     19  S   UNL     1      -5.241  11.570  17.607  0.00  0.00    +0.000 S 
ENDBRANCH   9  10
ENDBRANCH   7   9
ENDBRANCH   4   7
BRANCH   1  20
ATOM     20  C   UNL     1       2.268   7.965  19.323  0.00  0.00    +0.000 C 
BRANCH  20  21
ATOM     21  O   UNL     1       2.222   7.313  20.595  0.00  0.00    +0.000 OA
ATOM     22  H   UNL     1       1.972   6.389  20.479  0.00  0.00    +0.000 HD
ENDBRANCH  20  21
BRANCH  20  23
ATOM     23  C   UNL     1       2.521   6.965  18.170  0.00  0.00    +0.000 C 
BRANCH  23  32
ATOM     24  C   UNL     1       6.561   6.796  17.376  0.00  0.00    +0.000 A 
ATOM     25  C   UNL     1       7.352   5.673  17.560  0.00  0.00    +0.000 A 
ATOM     26  C   UNL     1       6.771   4.546  18.133  0.00  0.00    +0.000 A 
ATOM     27  C   UNL     1       5.420   4.580  18.487  0.00  0.00    +0.000 A 
ATOM     28  C   UNL     1       4.779   3.435  19.120  0.00  0.00    +0.000 A 
ATOM     29  C   UNL     1       3.475   3.489  19.396  0.00  0.00    +0.000 A 
ATOM     30  C   UNL     1       2.646   4.674  19.058  0.00  0.00    +0.000 A 
ATOM     31  O   UNL     1       1.435   4.604  19.254  0.00  0.00    +0.000 OA
ATOM     32  N   UNL     1       3.299   5.775  18.533  0.00  0.00    +0.000 N 
ATOM     33  C   UNL     1       4.688   5.749  18.232  0.00  0.00    +0.000 A 
ATOM     34  N   UNL     1       5.246   6.846  17.674  0.00  0.00    +0.000 NA
BRANCH  24  36
ATOM     35  C   UNL     1       8.013   8.567  17.807  0.00  0.00    +0.000 C 
ATOM     36  O   UNL     1       7.184   7.910  16.854  0.00  0.00    +0.000 OA
ENDBRANCH  24  36
ENDBRANCH  23  32
ENDBRANCH  20  23
ENDBRANCH   1  20
TORSDOF 8
ENDMDL
MODEL 9
REMARK VINA RESULT:      -7.6      2.226      2.663
REMARK  Name = 
REMARK  9 active torsions:
REMARK  status: ('A' for Active; 'I' for Inactive)
REMARK    1  A    between atoms: C_1  and  O_2
REMARK    2  A    between atoms: O_2  and  C_3
REMARK    3  A    between atoms: N_11  and  C_12
REMARK    4  A    between atoms: C_12  and  C_13
REMARK    5  A    between atoms: C_13  and  O_14
REMARK    6  A    between atoms: C_13  and  C_15
REMARK    7  A    between atoms: C_18  and  N_19
REMARK    8  A    between atoms: N_19  and  C_20
REMARK    9  A    between atoms: C_20  and  C_21
REMARK                            x       y       z     vdW  Elec       q    Type
REMARK                         _______ _______ _______ _____ _____    ______ ____
ROOT
ATOM      1  C   UNL     1       0.945   8.792  19.278  0.00  0.00    +0.000 C 
ATOM      2  C   UNL     1       1.123   9.793  18.132  0.00  0.00    +0.000 C 
ATOM      3  C   UNL     1       1.766  11.112  18.554  0.00  0.00    +0.000 C 
ATOM      4  C   UNL     1       1.116  11.708  19.815  0.00  0.00    +0.000 C 
ATOM      5  C   UNL     1       1.033  10.610  20.898  0.00  0.00    +0.000 C 
ATOM      6  O   UNL     1       0.377   9.433  20.433  0.00  0.00    +0.000 OA
ENDROOT
BRANCH   4   7
ATOM      7  N   UNL     1      -0.197  12.274  19.442  0.00  0.00    +0.000 NA
ATOM      8  H   UNL     1      -0.914  11.562  19.601  0.00  0.00    +0.000 HD
BRANCH   7   9
ATOM      9  C   UNL     1      -0.560  13.437  20.266  0.00  0.00    +0.000 C 
BRANCH   9  10
ATOM     10  C   UNL     1      -1.713  13.145  21.203  0.00  0.00    +0.000 A 
ATOM     11  C   UNL     1      -3.016  13.008  20.730  0.00  0.00    +0.000 A 
ATOM     12  C   UNL     1      -4.041  12.742  21.646  0.00  0.00    +0.000 A 
ATOM     13  C   UNL     1      -3.713  12.563  22.989  0.00  0.00    +0.000 A 
ATOM     14  C   UNL     1      -2.393  12.711  23.371  0.00  0.00    +0.000 A 
ATOM     15  N   UNL     1      -1.393  13.012  22.517  0.00  0.00    +0.000 NA
ATOM     16  O   UNL     1      -4.615  12.213  23.954  0.00  0.00    +0.000 OA
ATOM     17  C   UNL     1      -5.787  13.018  23.862  0.00  0.00    +0.000 C 
ATOM     18  C   UNL     1      -6.636  12.708  22.637  0.00  0.00    +0.000 C 
ATOM     19  S   UNL     1      -5.721  12.669  21.058  0.00  0.00    +0.000 S 
ENDBRANCH   9  10
ENDBRANCH   7   9
ENDBRANCH   4   7
BRANCH   1  20
ATOM     20  C   UNL     1       2.178   7.891  19.595  0.00  0.00    +0.000 C 
BRANCH  20  21
ATOM     21  O   UNL     1       2.114   7.205  20.847  0.00  0.00    +0.000 OA
ATOM     22  H   UNL     1       2.956   7.289  21.310  0.00  0.00    +0.000 HD
ENDBRANCH  20  21
BRANCH  20  23
ATOM     23  C   UNL     1       2.435   6.921  18.417  0.00  0.00    +0.000 C 
BRANCH  23  32
ATOM     24  C   UNL     1       6.429   6.782  17.412  0.00  0.00    +0.000 A 
ATOM     25  C   UNL     1       7.238   5.667  17.558  0.00  0.00    +0.000 A 
ATOM     26  C   UNL     1       6.698   4.538  18.166  0.00  0.00    +0.000 A 
ATOM     27  C   UNL     1       5.367   4.562  18.591  0.00  0.00    +0.000 A 
ATOM     28  C   UNL     1       4.771   3.416  19.262  0.00  0.00    +0.000 A 
ATOM     29  C   UNL     1       3.483   3.459  19.606  0.00  0.00    +0.000 A 
ATOM     30  C   UNL     1       2.627   4.636  19.307  0.00  0.00    +0.000 A 
ATOM     31  O   UNL     1       1.428   4.557  19.568  0.00  0.00    +0.000 OA
ATOM     32  N   UNL     1       3.242   5.739  18.744  0.00  0.00    +0.000 N 
ATOM     33  C   UNL     1       4.613   5.724  18.370  0.00  0.00    +0.000 A 
ATOM     34  N   UNL     1       5.131   6.823  17.778  0.00  0.00    +0.000 NA
BRANCH  24  36
ATOM     35  C   UNL     1       7.924   8.540  17.741  0.00  0.00    +0.000 C 
ATOM     36  O   UNL     1       7.014   7.898  16.853  0.00  0.00    +0.000 OA
ENDBRANCH  24  36
ENDBRANCH  23  32
ENDBRANCH  20  23
ENDBRANCH   1  20
TORSDOF 8
ENDMDL
