MODEL 1
REMARK VINA RESULT:      -5.1      0.000      0.000
REMARK  Name = 
REMARK  15 active torsions:
REMARK  status: ('A' for Active; 'I' for Inactive)
REMARK    1  A    between atoms: C_1  and  C_2
REMARK    2  A    between atoms: C_2  and  C_3
REMARK    3  A    between atoms: C_3  and  C_4
REMARK    4  A    between atoms: C_4  and  C_5
REMARK    5  A    between atoms: C_5  and  C_6
REMARK    6  A    between atoms: C_6  and  C_7
REMARK    7  A    between atoms: C_7  and  C_8
REMARK    8  A    between atoms: C_8  and  C_9
REMARK    9  A    between atoms: C_9  and  C_10
REMARK   10  A    between atoms: C_10  and  C_11
REMARK   11  A    between atoms: C_11  and  C_12
REMARK   12  A    between atoms: C_12  and  C_13
REMARK   13  A    between atoms: C_13  and  C_14
REMARK   14  A    between atoms: C_14  and  S_15
REMARK   15  A    between atoms: S_15  and  C_16
REMARK                            x       y       z     vdW  Elec       q    Type
REMARK                         _______ _______ _______ _____ _____    ______ ____
ROOT
ATOM      1  C   UNL     1       5.345   4.283  18.840  0.00  0.00    +0.000 C 
ENDROOT
BRANCH   1   2
ATOM      2  C   UNL     1       6.285   5.452  19.107  0.00  0.00    +0.000 C 
BRANCH   2   3
ATOM      3  C   UNL     1       7.532   5.354  18.236  0.00  0.00    +0.000 C 
BRANCH   3   4
ATOM      4  C   UNL     1       7.248   5.852  16.824  0.00  0.00    +0.000 C 
BRANCH   4   5
ATOM      5  C   UNL     1       7.199   4.692  15.836  0.00  0.00    +0.000 C 
BRANCH   5   6
ATOM      6  C   UNL     1       6.323   5.035  14.634  0.00  0.00    +0.000 C 
BRANCH   6   7
ATOM      7  C   UNL     1       5.644   3.784  14.084  0.00  0.00    +0.000 C 
BRANCH   7   9
ATOM      8  C   UNL     1       4.831   3.267  11.763  0.00  0.00    +0.000 C 
ATOM      9  C   UNL     1       6.050   3.529  12.634  0.00  0.00    +0.000 C 
ENDBRANCH   7   9
ENDBRANCH   6   7
ENDBRANCH   5   6
ENDBRANCH   4   5
ENDBRANCH   3   4
ENDBRANCH   2   3
ENDBRANCH   1   2
BRANCH   1  10
ATOM     10  C   UNL     1       4.146   4.727  18.004  0.00  0.00    +0.000 C 
BRANCH  10  11
ATOM     11  C   UNL     1       3.585   3.556  17.203  0.00  0.00    +0.000 C 
BRANCH  11  12
ATOM     12  C   UNL     1       2.066   3.484  17.320  0.00  0.00    +0.000 C 
BRANCH  12  13
ATOM     13  C   UNL     1       1.584   4.144  18.609  0.00  0.00    +0.000 C 
BRANCH  13  14
ATOM     14  C   UNL     1       1.089   3.106  19.608  0.00  0.00    +0.000 C 
BRANCH  14  15
ATOM     15  S   UNL     1       1.752   3.463  21.267  0.00  0.00    +0.000 S 
ATOM     16  C   UNL     1       3.189   2.374  21.128  0.00  0.00    +0.000 C 
ATOM     17  O   UNL     1       2.279   4.943  21.261  0.00  0.00    +0.000 OA
ENDBRANCH  14  15
ENDBRANCH  13  14
ENDBRANCH  12  13
ENDBRANCH  11  12
ENDBRANCH  10  11
ENDBRANCH   1  10
TORSDOF 13
ENDMDL
MODEL 2
REMARK VINA RESULT:      -5.1      1.649      2.161
REMARK  Name = 
REMARK  15 active torsions:
REMARK  status: ('A' for Active; 'I' for Inactive)
REMARK    1  A    between atoms: C_1  and  C_2
REMARK    2  A    between atoms: C_2  and  C_3
REMARK    3  A    between atoms: C_3  and  C_4
REMARK    4  A    between atoms: C_4  and  C_5
REMARK    5  A    between atoms: C_5  and  C_6
REMARK    6  A    between atoms: C_6  and  C_7
REMARK    7  A    between atoms: C_7  and  C_8
REMARK    8  A    between atoms: C_8  and  C_9
REMARK    9  A    between atoms: C_9  and  C_10
REMARK   10  A    between atoms: C_10  and  C_11
REMARK   11  A    between atoms: C_11  and  C_12
REMARK   12  A    between atoms: C_12  and  C_13
REMARK   13  A    between atoms: C_13  and  C_14
REMARK   14  A    between atoms: C_14  and  S_15
REMARK   15  A    between atoms: S_15  and  C_16
REMARK                            x       y       z     vdW  Elec       q    Type
REMARK                         _______ _______ _______ _____ _____    ______ ____
ROOT
ATOM      1  C   UNL     1       3.739   5.231  17.366  0.00  0.00    +0.000 C 
ENDROOT
BRANCH   1   2
ATOM      2  C   UNL     1       4.806   6.180  17.899  0.00  0.00    +0.000 C 
BRANCH   2   3
ATOM      3  C   UNL     1       5.675   6.710  16.764  0.00  0.00    +0.000 C 
BRANCH   3   4
ATOM      4  C   UNL     1       7.054   6.060  16.790  0.00  0.00    +0.000 C 
BRANCH   4   5
ATOM      5  C   UNL     1       7.025   4.692  16.117  0.00  0.00    +0.000 C 
BRANCH   5   6
ATOM      6  C   UNL     1       6.945   4.832  14.599  0.00  0.00    +0.000 C 
BRANCH   6   7
ATOM      7  C   UNL     1       5.745   4.068  14.047  0.00  0.00    +0.000 C 
BRANCH   7   9
ATOM      8  C   UNL     1       7.151   4.239  11.972  0.00  0.00    +0.000 C 
ATOM      9  C   UNL     1       6.062   3.454  12.685  0.00  0.00    +0.000 C 
ENDBRANCH   7   9
ENDBRANCH   6   7
ENDBRANCH   5   6
ENDBRANCH   4   5
ENDBRANCH   3   4
ENDBRANCH   2   3
ENDBRANCH   1   2
BRANCH   1  10
ATOM     10  C   UNL     1       2.384   5.516  18.010  0.00  0.00    +0.000 C 
BRANCH  10  11
ATOM     11  C   UNL     1       1.480   4.290  17.928  0.00  0.00    +0.000 C 
BRANCH  11  12
ATOM     12  C   UNL     1       0.986   3.874  19.310  0.00  0.00    +0.000 C 
BRANCH  12  13
ATOM     13  C   UNL     1       1.652   2.576  19.761  0.00  0.00    +0.000 C 
BRANCH  13  14
ATOM     14  C   UNL     1       2.823   2.853  20.695  0.00  0.00    +0.000 C 
BRANCH  14  15
ATOM     15  S   UNL     1       4.351   2.123  20.023  0.00  0.00    +0.000 S 
ATOM     16  C   UNL     1       3.602   1.512  18.493  0.00  0.00    +0.000 C 
ATOM     17  O   UNL     1       5.314   3.302  19.639  0.00  0.00    +0.000 OA
ENDBRANCH  14  15
ENDBRANCH  13  14
ENDBRANCH  12  13
ENDBRANCH  11  12
ENDBRANCH  10  11
ENDBRANCH   1  10
TORSDOF 13
ENDMDL
MODEL 3
REMARK VINA RESULT:      -5.1      1.397      2.097
REMARK  Name = 
REMARK  15 active torsions:
REMARK  status: ('A' for Active; 'I' for Inactive)
REMARK    1  A    between atoms: C_1  and  C_2
REMARK    2  A    between atoms: C_2  and  C_3
REMARK    3  A    between atoms: C_3  and  C_4
REMARK    4  A    between atoms: C_4  and  C_5
REMARK    5  A    between atoms: C_5  and  C_6
REMARK    6  A    between atoms: C_6  and  C_7
REMARK    7  A    between atoms: C_7  and  C_8
REMARK    8  A    between atoms: C_8  and  C_9
REMARK    9  A    between atoms: C_9  and  C_10
REMARK   10  A    between atoms: C_10  and  C_11
REMARK   11  A    between atoms: C_11  and  C_12
REMARK   12  A    between atoms: C_12  and  C_13
REMARK   13  A    between atoms: C_13  and  C_14
REMARK   14  A    between atoms: C_14  and  S_15
REMARK   15  A    between atoms: S_15  and  C_16
REMARK                            x       y       z     vdW  Elec       q    Type
REMARK                         _______ _______ _______ _____ _____    ______ ____
ROOT
ATOM      1  C   UNL     1       3.556   5.259  18.199  0.00  0.00    +0.000 C 
ENDROOT
BRANCH   1   2
ATOM      2  C   UNL     1       4.188   6.546  17.682  0.00  0.00    +0.000 C 
BRANCH   2   3
ATOM      3  C   UNL     1       5.709   6.460  17.726  0.00  0.00    +0.000 C 
BRANCH   3   4
ATOM      4  C   UNL     1       6.159   5.119  18.296  0.00  0.00    +0.000 C 
BRANCH   4   5
ATOM      5  C   UNL     1       7.426   4.630  17.603  0.00  0.00    +0.000 C 
BRANCH   5   6
ATOM      6  C   UNL     1       7.287   4.721  16.086  0.00  0.00    +0.000 C 
BRANCH   6   7
ATOM      7  C   UNL     1       6.209   3.765  15.583  0.00  0.00    +0.000 C 
BRANCH   7   9
ATOM      8  C   UNL     1       5.900   3.699  13.091  0.00  0.00    +0.000 C 
ATOM      9  C   UNL     1       5.462   4.356  14.390  0.00  0.00    +0.000 C 
ENDBRANCH   7   9
ENDBRANCH   6   7
ENDBRANCH   5   6
ENDBRANCH   4   5
ENDBRANCH   3   4
ENDBRANCH   2   3
ENDBRANCH   1   2
BRANCH   1  10
ATOM     10  C   UNL     1       2.537   4.712  17.202  0.00  0.00    +0.000 C 
BRANCH  10  11
ATOM     11  C   UNL     1       2.417   3.196  17.332  0.00  0.00    +0.000 C 
BRANCH  11  12
ATOM     12  C   UNL     1       3.707   2.583  17.866  0.00  0.00    +0.000 C 
BRANCH  12  13
ATOM     13  C   UNL     1       3.438   1.734  19.106  0.00  0.00    +0.000 C 
BRANCH  13  14
ATOM     14  C   UNL     1       2.060   2.028  19.687  0.00  0.00    +0.000 C 
BRANCH  14  15
ATOM     15  S   UNL     1       2.211   3.087  21.161  0.00  0.00    +0.000 S 
ATOM     16  C   UNL     1       1.094   4.382  20.571  0.00  0.00    +0.000 C 
ATOM     17  O   UNL     1       1.497   2.352  22.351  0.00  0.00    +0.000 OA
ENDBRANCH  14  15
ENDBRANCH  13  14
ENDBRANCH  12  13
ENDBRANCH  11  12
ENDBRANCH  10  11
ENDBRANCH   1  10
TORSDOF 13
ENDMDL
MODEL 4
REMARK VINA RESULT:      -5.0      1.773      3.357
REMARK  Name = 
REMARK  15 active torsions:
REMARK  status: ('A' for Active; 'I' for Inactive)
REMARK    1  A    between atoms: C_1  and  C_2
REMARK    2  A    between atoms: C_2  and  C_3
REMARK    3  A    between atoms: C_3  and  C_4
REMARK    4  A    between atoms: C_4  and  C_5
REMARK    5  A    between atoms: C_5  and  C_6
REMARK    6  A    between atoms: C_6  and  C_7
REMARK    7  A    between atoms: C_7  and  C_8
REMARK    8  A    between atoms: C_8  and  C_9
REMARK    9  A    between atoms: C_9  and  C_10
REMARK   10  A    between atoms: C_10  and  C_11
REMARK   11  A    between atoms: C_11  and  C_12
REMARK   12  A    between atoms: C_12  and  C_13
REMARK   13  A    between atoms: C_13  and  C_14
REMARK   14  A    between atoms: C_14  and  S_15
REMARK   15  A    between atoms: S_15  and  C_16
REMARK                            x       y       z     vdW  Elec       q    Type
REMARK                         _______ _______ _______ _____ _____    ______ ____
ROOT
ATOM      1  C   UNL     1       6.922   4.424  16.193  0.00  0.00    +0.000 C 
ENDROOT
BRANCH   1   2
ATOM      2  C   UNL     1       6.239   4.625  14.845  0.00  0.00    +0.000 C 
BRANCH   2   3
ATOM      3  C   UNL     1       7.266   4.693  13.721  0.00  0.00    +0.000 C 
BRANCH   3   4
ATOM      4  C   UNL     1       6.707   4.089  12.438  0.00  0.00    +0.000 C 
BRANCH   4   5
ATOM      5  C   UNL     1       5.262   3.640  12.633  0.00  0.00    +0.000 C 
BRANCH   5   6
ATOM      6  C   UNL     1       4.770   2.850  11.424  0.00  0.00    +0.000 C 
BRANCH   6   7
ATOM      7  C   UNL     1       3.292   3.127  11.162  0.00  0.00    +0.000 C 
BRANCH   7   9
ATOM      8  C   UNL     1       2.616   4.739   9.358  0.00  0.00    +0.000 C 
ATOM      9  C   UNL     1       3.021   3.308   9.670  0.00  0.00    +0.000 C 
ENDBRANCH   7   9
ENDBRANCH   6   7
ENDBRANCH   5   6
ENDBRANCH   4   5
ENDBRANCH   3   4
ENDBRANCH   2   3
ENDBRANCH   1   2
BRANCH   1  10
ATOM     10  C   UNL     1       5.963   4.724  17.342  0.00  0.00    +0.000 C 
BRANCH  10  11
ATOM     11  C   UNL     1       4.560   5.007  16.812  0.00  0.00    +0.000 C 
BRANCH  11  12
ATOM     12  C   UNL     1       3.688   5.660  17.880  0.00  0.00    +0.000 C 
BRANCH  12  13
ATOM     13  C   UNL     1       2.335   4.960  17.986  0.00  0.00    +0.000 C 
BRANCH  13  14
ATOM     14  C   UNL     1       2.402   3.545  17.426  0.00  0.00    +0.000 C 
BRANCH  14  15
ATOM     15  S   UNL     1       1.754   2.354  18.643  0.00  0.00    +0.000 S 
ATOM     16  C   UNL     1       3.358   1.946  19.372  0.00  0.00    +0.000 C 
ATOM     17  O   UNL     1       0.940   3.164  19.714  0.00  0.00    +0.000 OA
ENDBRANCH  14  15
ENDBRANCH  13  14
ENDBRANCH  12  13
ENDBRANCH  11  12
ENDBRANCH  10  11
ENDBRANCH   1  10
TORSDOF 13
ENDMDL
MODEL 5
REMARK VINA RESULT:      -5.0      3.136      5.934
REMARK  Name = 
REMARK  15 active torsions:
REMARK  status: ('A' for Active; 'I' for Inactive)
REMARK    1  A    between atoms: C_1  and  C_2
REMARK    2  A    between atoms: C_2  and  C_3
REMARK    3  A    between atoms: C_3  and  C_4
REMARK    4  A    between atoms: C_4  and  C_5
REMARK    5  A    between atoms: C_5  and  C_6
REMARK    6  A    between atoms: C_6  and  C_7
REMARK    7  A    between atoms: C_7  and  C_8
REMARK    8  A    between atoms: C_8  and  C_9
REMARK    9  A    between atoms: C_9  and  C_10
REMARK   10  A    between atoms: C_10  and  C_11
REMARK   11  A    between atoms: C_11  and  C_12
REMARK   12  A    between atoms: C_12  and  C_13
REMARK   13  A    between atoms: C_13  and  C_14
REMARK   14  A    between atoms: C_14  and  S_15
REMARK   15  A    between atoms: S_15  and  C_16
REMARK                            x       y       z     vdW  Elec       q    Type
REMARK                         _______ _______ _______ _____ _____    ______ ____
ROOT
ATOM      1  C   UNL     1       3.570   1.580  19.047  0.00  0.00    +0.000 C 
ENDROOT
BRANCH   1   2
ATOM      2  C   UNL     1       3.885   2.771  19.944  0.00  0.00    +0.000 C 
BRANCH   2   3
ATOM      3  C   UNL     1       2.897   2.854  21.101  0.00  0.00    +0.000 C 
BRANCH   3   4
ATOM      4  C   UNL     1       1.464   2.916  20.587  0.00  0.00    +0.000 C 
BRANCH   4   5
ATOM      5  C   UNL     1       1.226   4.196  19.792  0.00  0.00    +0.000 C 
BRANCH   5   6
ATOM      6  C   UNL     1       1.728   5.416  20.560  0.00  0.00    +0.000 C 
BRANCH   6   7
ATOM      7  C   UNL     1       2.775   6.173  19.748  0.00  0.00    +0.000 C 
BRANCH   7   9
ATOM      8  C   UNL     1       2.213   8.040  18.164  0.00  0.00    +0.000 C 
ATOM      9  C   UNL     1       2.245   6.533  18.362  0.00  0.00    +0.000 C 
ENDBRANCH   7   9
ENDBRANCH   6   7
ENDBRANCH   5   6
ENDBRANCH   4   5
ENDBRANCH   3   4
ENDBRANCH   2   3
ENDBRANCH   1   2
BRANCH   1  10
ATOM     10  C   UNL     1       3.521   2.000  17.579  0.00  0.00    +0.000 C 
BRANCH  10  11
ATOM     11  C   UNL     1       3.827   3.488  17.434  0.00  0.00    +0.000 C 
BRANCH  11  12
ATOM     12  C   UNL     1       4.651   3.763  16.180  0.00  0.00    +0.000 C 
BRANCH  12  13
ATOM     13  C   UNL     1       5.176   5.196  16.174  0.00  0.00    +0.000 C 
BRANCH  13  14
ATOM     14  C   UNL     1       5.622   5.626  17.566  0.00  0.00    +0.000 C 
BRANCH  14  15
ATOM     15  S   UNL     1       7.439   5.738  17.639  0.00  0.00    +0.000 S 
ATOM     16  C   UNL     1       7.547   5.756  19.445  0.00  0.00    +0.000 C 
ATOM     17  O   UNL     1       8.020   4.365  17.145  0.00  0.00    +0.000 OA
ENDBRANCH  14  15
ENDBRANCH  13  14
ENDBRANCH  12  13
ENDBRANCH  11  12
ENDBRANCH  10  11
ENDBRANCH   1  10
TORSDOF 13
ENDMDL
MODEL 6
REMARK VINA RESULT:      -5.0      3.284      6.725
REMARK  Name = 
REMARK  15 active torsions:
REMARK  status: ('A' for Active; 'I' for Inactive)
REMARK    1  A    between atoms: C_1  and  C_2
REMARK    2  A    between atoms: C_2  and  C_3
REMARK    3  A    between atoms: C_3  and  C_4
REMARK    4  A    between atoms: C_4  and  C_5
REMARK    5  A    between atoms: C_5  and  C_6
REMARK    6  A    between atoms: C_6  and  C_7
REMARK    7  A    between atoms: C_7  and  C_8
REMARK    8  A    between atoms: C_8  and  C_9
REMARK    9  A    between atoms: C_9  and  C_10
REMARK   10  A    between atoms: C_10  and  C_11
REMARK   11  A    between atoms: C_11  and  C_12
REMARK   12  A    between atoms: C_12  and  C_13
REMARK   13  A    between atoms: C_13  and  C_14
REMARK   14  A    between atoms: C_14  and  S_15
REMARK   15  A    between atoms: S_15  and  C_16
REMARK                            x       y       z     vdW  Elec       q    Type
REMARK                         _______ _______ _______ _____ _____    ______ ____
ROOT
ATOM      1  C   UNL     1       3.791   3.627  17.234  0.00  0.00    +0.000 C 
ENDROOT
BRANCH   1   2
ATOM      2  C   UNL     1       2.453   2.903  17.316  0.00  0.00    +0.000 C 
BRANCH   2   3
ATOM      3  C   UNL     1       1.393   3.793  17.954  0.00  0.00    +0.000 C 
BRANCH   3   4
ATOM      4  C   UNL     1       0.806   3.132  19.196  0.00  0.00    +0.000 C 
BRANCH   4   5
ATOM      5  C   UNL     1       0.898   4.060  20.402  0.00  0.00    +0.000 C 
BRANCH   5   6
ATOM      6  C   UNL     1       2.307   4.055  20.988  0.00  0.00    +0.000 C 
BRANCH   6   7
ATOM      7  C   UNL     1       2.833   2.629  21.122  0.00  0.00    +0.000 C 
BRANCH   7   9
ATOM      8  C   UNL     1       4.568   1.288  19.896  0.00  0.00    +0.000 C 
ATOM      9  C   UNL     1       4.302   2.541  20.713  0.00  0.00    +0.000 C 
ENDBRANCH   7   9
ENDBRANCH   6   7
ENDBRANCH   5   6
ENDBRANCH   4   5
ENDBRANCH   3   4
ENDBRANCH   2   3
ENDBRANCH   1   2
BRANCH   1  10
ATOM     10  C   UNL     1       3.636   5.104  17.593  0.00  0.00    +0.000 C 
BRANCH  10  11
ATOM     11  C   UNL     1       4.960   5.681  18.085  0.00  0.00    +0.000 C 
BRANCH  11  12
ATOM     12  C   UNL     1       5.968   4.575  18.383  0.00  0.00    +0.000 C 
BRANCH  12  13
ATOM     13  C   UNL     1       7.234   4.749  17.549  0.00  0.00    +0.000 C 
BRANCH  13  14
ATOM     14  C   UNL     1       6.976   5.626  16.331  0.00  0.00    +0.000 C 
BRANCH  14  15
ATOM     15  S   UNL     1       7.245   4.673  14.801  0.00  0.00    +0.000 S 
ATOM     16  C   UNL     1       5.494   4.496  14.385  0.00  0.00    +0.000 C 
ATOM     17  O   UNL     1       7.886   5.641  13.744  0.00  0.00    +0.000 OA
ENDBRANCH  14  15
ENDBRANCH  13  14
ENDBRANCH  12  13
ENDBRANCH  11  12
ENDBRANCH  10  11
ENDBRANCH   1  10
TORSDOF 13
ENDMDL
MODEL 7
REMARK VINA RESULT:      -4.9      2.211      3.036
REMARK  Name = 
REMARK  15 active torsions:
REMARK  status: ('A' for Active; 'I' for Inactive)
REMARK    1  A    between atoms: C_1  and  C_2
REMARK    2  A    between atoms: C_2  and  C_3
REMARK    3  A    between atoms: C_3  and  C_4
REMARK    4  A    between atoms: C_4  and  C_5
REMARK    5  A    between atoms: C_5  and  C_6
REMARK    6  A    between atoms: C_6  and  C_7
REMARK    7  A    between atoms: C_7  and  C_8
REMARK    8  A    between atoms: C_8  and  C_9
REMARK    9  A    between atoms: C_9  and  C_10
REMARK   10  A    between atoms: C_10  and  C_11
REMARK   11  A    between atoms: C_11  and  C_12
REMARK   12  A    between atoms: C_12  and  C_13
REMARK   13  A    between atoms: C_13  and  C_14
REMARK   14  A    between atoms: C_14  and  S_15
REMARK   15  A    between atoms: S_15  and  C_16
REMARK                            x       y       z     vdW  Elec       q    Type
REMARK                         _______ _______ _______ _____ _____    ______ ____
ROOT
ATOM      1  C   UNL     1       2.465   6.127  18.498  0.00  0.00    +0.000 C 
ENDROOT
BRANCH   1   2
ATOM      2  C   UNL     1       3.200   7.282  17.827  0.00  0.00    +0.000 C 
BRANCH   2   3
ATOM      3  C   UNL     1       4.493   6.798  17.180  0.00  0.00    +0.000 C 
BRANCH   3   4
ATOM      4  C   UNL     1       5.202   5.788  18.075  0.00  0.00    +0.000 C 
BRANCH   4   5
ATOM      5  C   UNL     1       6.665   5.636  17.673  0.00  0.00    +0.000 C 
BRANCH   5   6
ATOM      6  C   UNL     1       6.850   4.455  16.725  0.00  0.00    +0.000 C 
BRANCH   6   7
ATOM      7  C   UNL     1       7.013   4.936  15.286  0.00  0.00    +0.000 C 
BRANCH   7   9
ATOM      8  C   UNL     1       6.138   3.706  13.277  0.00  0.00    +0.000 C 
ATOM      9  C   UNL     1       5.778   4.603  14.451  0.00  0.00    +0.000 C 
ENDBRANCH   7   9
ENDBRANCH   6   7
ENDBRANCH   5   6
ENDBRANCH   4   5
ENDBRANCH   3   4
ENDBRANCH   2   3
ENDBRANCH   1   2
BRANCH   1  10
ATOM     10  C   UNL     1       2.064   6.492  19.926  0.00  0.00    +0.000 C 
BRANCH  10  11
ATOM     11  C   UNL     1       2.086   5.258  20.824  0.00  0.00    +0.000 C 
BRANCH  11  12
ATOM     12  C   UNL     1       1.044   4.235  20.383  0.00  0.00    +0.000 C 
BRANCH  12  13
ATOM     13  C   UNL     1       1.538   2.811  20.627  0.00  0.00    +0.000 C 
BRANCH  13  14
ATOM     14  C   UNL     1       1.734   2.064  19.314  0.00  0.00    +0.000 C 
BRANCH  14  15
ATOM     15  S   UNL     1       3.422   2.331  18.684  0.00  0.00    +0.000 S 
ATOM     16  C   UNL     1       4.228   2.304  20.303  0.00  0.00    +0.000 C 
ATOM     17  O   UNL     1       3.857   1.029  17.919  0.00  0.00    +0.000 OA
ENDBRANCH  14  15
ENDBRANCH  13  14
ENDBRANCH  12  13
ENDBRANCH  11  12
ENDBRANCH  10  11
ENDBRANCH   1  10
TORSDOF 13
ENDMDL
MODEL 8
REMARK VINA RESULT:      -4.9      3.826      6.154
REMARK  Name = 
REMARK  15 active torsions:
REMARK  status: ('A' for Active; 'I' for Inactive)
REMARK    1  A    between atoms: C_1  and  C_2
REMARK    2  A    between atoms: C_2  and  C_3
REMARK    3  A    between atoms: C_3  and  C_4
REMARK    4  A    between atoms: C_4  and  C_5
REMARK    5  A    between atoms: C_5  and  C_6
REMARK    6  A    between atoms: C_6  and  C_7
REMARK    7  A    between atoms: C_7  and  C_8
REMARK    8  A    between atoms: C_8  and  C_9
REMARK    9  A    between atoms: C_9  and  C_10
REMARK   10  A    between atoms: C_10  and  C_11
REMARK   11  A    between atoms: C_11  and  C_12
REMARK   12  A    between atoms: C_12  and  C_13
REMARK   13  A    between atoms: C_13  and  C_14
REMARK   14  A    between atoms: C_14  and  S_15
REMARK   15  A    between atoms: S_15  and  C_16
REMARK                            x       y       z     vdW  Elec       q    Type
REMARK                         _______ _______ _______ _____ _____    ______ ____
ROOT
ATOM      1  C   UNL     1       4.854   6.140  16.363  0.00  0.00    +0.000 C 
ENDROOT
BRANCH   1   2
ATOM      2  C   UNL     1       5.301   4.944  17.195  0.00  0.00    +0.000 C 
BRANCH   2   3
ATOM      3  C   UNL     1       4.617   3.668  16.719  0.00  0.00    +0.000 C 
BRANCH   3   4
ATOM      4  C   UNL     1       3.935   2.954  17.881  0.00  0.00    +0.000 C 
BRANCH   4   5
ATOM      5  C   UNL     1       2.511   2.552  17.511  0.00  0.00    +0.000 C 
BRANCH   5   6
ATOM      6  C   UNL     1       1.500   3.541  18.084  0.00  0.00    +0.000 C 
BRANCH   6   7
ATOM      7  C   UNL     1       0.927   3.029  19.402  0.00  0.00    +0.000 C 
BRANCH   7   9
ATOM      8  C   UNL     1       2.341   4.300  21.044  0.00  0.00    +0.000 C 
ATOM      9  C   UNL     1       0.944   4.119  20.472  0.00  0.00    +0.000 C 
ENDBRANCH   7   9
ENDBRANCH   6   7
ENDBRANCH   5   6
ENDBRANCH   4   5
ENDBRANCH   3   4
ENDBRANCH   2   3
ENDBRANCH   1   2
BRANCH   1  10
ATOM     10  C   UNL     1       4.259   7.231  17.250  0.00  0.00    +0.000 C 
BRANCH  10  11
ATOM     11  C   UNL     1       3.349   6.624  18.314  0.00  0.00    +0.000 C 
BRANCH  11  12
ATOM     12  C   UNL     1       2.342   7.647  18.829  0.00  0.00    +0.000 C 
BRANCH  12  13
ATOM     13  C   UNL     1       1.883   8.577  17.708  0.00  0.00    +0.000 C 
BRANCH  13  14
ATOM     14  C   UNL     1       1.770  10.015  18.197  0.00  0.00    +0.000 C 
BRANCH  14  15
ATOM     15  S   UNL     1       0.521  10.134  19.518  0.00  0.00    +0.000 S 
ATOM     16  C   UNL     1       0.968  11.808  20.041  0.00  0.00    +0.000 C 
ATOM     17  O   UNL     1      -0.890  10.214  18.834  0.00  0.00    +0.000 OA
ENDBRANCH  14  15
ENDBRANCH  13  14
ENDBRANCH  12  13
ENDBRANCH  11  12
ENDBRANCH  10  11
ENDBRANCH   1  10
TORSDOF 13
ENDMDL
MODEL 9
REMARK VINA RESULT:      -4.9      1.974      2.770
REMARK  Name = 
REMARK  15 active torsions:
REMARK  status: ('A' for Active; 'I' for Inactive)
REMARK    1  A    between atoms: C_1  and  C_2
REMARK    2  A    between atoms: C_2  and  C_3
REMARK    3  A    between atoms: C_3  and  C_4
REMARK    4  A    between atoms: C_4  and  C_5
REMARK    5  A    between atoms: C_5  and  C_6
REMARK    6  A    between atoms: C_6  and  C_7
REMARK    7  A    between atoms: C_7  and  C_8
REMARK    8  A    between atoms: C_8  and  C_9
REMARK    9  A    between atoms: C_9  and  C_10
REMARK   10  A    between atoms: C_10  and  C_11
REMARK   11  A    between atoms: C_11  and  C_12
REMARK   12  A    between atoms: C_12  and  C_13
REMARK   13  A    between atoms: C_13  and  C_14
REMARK   14  A    between atoms: C_14  and  S_15
REMARK   15  A    between atoms: S_15  and  C_16
REMARK                            x       y       z     vdW  Elec       q    Type
REMARK                         _______ _______ _______ _____ _____    ______ ____
ROOT
ATOM      1  C   UNL     1       2.434   5.784  18.538  0.00  0.00    +0.000 C 
ENDROOT
BRANCH   1   2
ATOM      2  C   UNL     1       2.843   6.974  17.679  0.00  0.00    +0.000 C 
BRANCH   2   3
ATOM      3  C   UNL     1       4.326   6.910  17.333  0.00  0.00    +0.000 C 
BRANCH   3   4
ATOM      4  C   UNL     1       4.677   5.566  16.705  0.00  0.00    +0.000 C 
BRANCH   4   5
ATOM      5  C   UNL     1       6.098   5.579  16.151  0.00  0.00    +0.000 C 
BRANCH   5   6
ATOM      6  C   UNL     1       6.389   4.304  15.364  0.00  0.00    +0.000 C 
BRANCH   6   7
ATOM      7  C   UNL     1       6.391   4.582  13.864  0.00  0.00    +0.000 C 
BRANCH   7   9
ATOM      8  C   UNL     1       5.024   3.575  12.012  0.00  0.00    +0.000 C 
ATOM      9  C   UNL     1       6.086   3.315  13.068  0.00  0.00    +0.000 C 
ENDBRANCH   7   9
ENDBRANCH   6   7
ENDBRANCH   5   6
ENDBRANCH   4   5
ENDBRANCH   3   4
ENDBRANCH   2   3
ENDBRANCH   1   2
BRANCH   1  10
ATOM     10  C   UNL     1       2.401   6.163  20.017  0.00  0.00    +0.000 C 
BRANCH  10  11
ATOM     11  C   UNL     1       2.007   4.963  20.873  0.00  0.00    +0.000 C 
BRANCH  11  12
ATOM     12  C   UNL     1       1.086   4.018  20.108  0.00  0.00    +0.000 C 
BRANCH  12  13
ATOM     13  C   UNL     1       1.627   2.590  20.129  0.00  0.00    +0.000 C 
BRANCH  13  14
ATOM     14  C   UNL     1       2.932   2.507  20.911  0.00  0.00    +0.000 C 
BRANCH  14  15
ATOM     15  S   UNL     1       4.313   2.111  19.791  0.00  0.00    +0.000 S 
ATOM     16  C   UNL     1       3.288   1.854  18.322  0.00  0.00    +0.000 C 
ATOM     17  O   UNL     1       5.137   3.429  19.566  0.00  0.00    +0.000 OA
ENDBRANCH  14  15
ENDBRANCH  13  14
ENDBRANCH  12  13
ENDBRANCH  11  12
ENDBRANCH  10  11
ENDBRANCH   1  10
TORSDOF 13
ENDMDL
