MODEL 1
REMARK VINA RESULT:      -6.6      0.000      0.000
REMARK  Name = 
REMARK  9 active torsions:
REMARK  status: ('A' for Active; 'I' for Inactive)
REMARK    1  A    between atoms: C_2  and  OXT_3
REMARK    2  A    between atoms: C_2  and  CA_4
REMARK    3  A    between atoms: C_6  and  C_7
REMARK    4  A    between atoms: C_7  and  C_8
REMARK    5  A    between atoms: C_8  and  C_9
REMARK    6  A    between atoms: C_9  and  C_10
REMARK    7  A    between atoms: C_10  and  P_11
REMARK    8  A    between atoms: P_11  and  O_13
REMARK    9  A    between atoms: P_11  and  O_14
REMARK                            x       y       z     vdW  Elec       q    Type
REMARK                         _______ _______ _______ _____ _____    ______ ____
ROOT
ATOM      1  CA  UNL     1       6.695   5.732  17.799  0.00  0.00    +0.000 C 
ATOM      2  C   UNL     1       5.527   4.799  18.131  0.00  0.00    +0.000 C 
ATOM      3  C   UNL     1       4.725   4.387  16.889  0.00  0.00    +0.000 C 
ATOM      4  C   UNL     1       5.676   3.910  15.779  0.00  0.00    +0.000 C 
ATOM      5  C   UNL     1       6.806   4.900  15.530  0.00  0.00    +0.000 C 
ATOM      6  N   UNL     1       7.580   5.141  16.755  0.00  0.00    +0.000 NA
ATOM      7  H   UNL     1       8.301   5.834  16.528  0.00  0.00    +0.000 HD
ENDROOT
BRANCH   1   9
ATOM      8  O   UNL     1       7.405   5.270  20.093  0.00  0.00    +0.000 OA
ATOM      9  C   UNL     1       7.515   5.938  19.079  0.00  0.00    +0.000 C 
BRANCH   9  10
ATOM     10  OXT UNL     1       8.428   6.937  18.937  0.00  0.00    +0.000 OA
ATOM     11  HXT UNL     1       8.505   7.122  17.970  0.00  0.00    +0.000 HD
ENDBRANCH   9  10
ENDBRANCH   1   9
BRANCH   3  12
ATOM     12  C   UNL     1       3.709   3.272  17.199  0.00  0.00    +0.000 C 
BRANCH  12  13
ATOM     13  C   UNL     1       2.300   3.768  17.539  0.00  0.00    +0.000 C 
BRANCH  13  14
ATOM     14  C   UNL     1       1.621   2.776  18.482  0.00  0.00    +0.000 C 
BRANCH  14  15
ATOM     15  C   UNL     1       0.990   3.432  19.702  0.00  0.00    +0.000 C 
BRANCH  15  16
ATOM     16  P   UNL     1       2.043   3.270  21.140  0.00  0.00    +0.000 P 
ATOM     17  O   UNL     1       1.464   2.543  22.305  0.00  0.00    +0.000 OA
BRANCH  16  18
ATOM     18  O   UNL     1       3.424   2.664  20.604  0.00  0.00    +0.000 OA
ATOM     19  H   UNL     1       4.185   3.272  20.600  0.00  0.00    +0.000 HD
ENDBRANCH  16  18
BRANCH  16  20
ATOM     20  O   UNL     1       2.492   4.768  21.483  0.00  0.00    +0.000 OA
ATOM     21  H   UNL     1       1.898   5.163  22.150  0.00  0.00    +0.000 HD
ENDBRANCH  16  20
ENDBRANCH  15  16
ENDBRANCH  14  15
ENDBRANCH  13  14
ENDBRANCH  12  13
ENDBRANCH   3  12
TORSDOF 9
ENDMDL
MODEL 2
REMARK VINA RESULT:      -6.6      1.144      1.411
REMARK  Name = 
REMARK  9 active torsions:
REMARK  status: ('A' for Active; 'I' for Inactive)
REMARK    1  A    between atoms: C_2  and  OXT_3
REMARK    2  A    between atoms: C_2  and  CA_4
REMARK    3  A    between atoms: C_6  and  C_7
REMARK    4  A    between atoms: C_7  and  C_8
REMARK    5  A    between atoms: C_8  and  C_9
REMARK    6  A    between atoms: C_9  and  C_10
REMARK    7  A    between atoms: C_10  and  P_11
REMARK    8  A    between atoms: P_11  and  O_13
REMARK    9  A    between atoms: P_11  and  O_14
REMARK                            x       y       z     vdW  Elec       q    Type
REMARK                         _______ _______ _______ _____ _____    ______ ____
ROOT
ATOM      1  CA  UNL     1       6.597   6.369  16.772  0.00  0.00    +0.000 C 
ATOM      2  C   UNL     1       5.712   5.427  17.595  0.00  0.00    +0.000 C 
ATOM      3  C   UNL     1       4.845   4.513  16.718  0.00  0.00    +0.000 C 
ATOM      4  C   UNL     1       5.704   3.853  15.628  0.00  0.00    +0.000 C 
ATOM      5  C   UNL     1       6.552   4.870  14.875  0.00  0.00    +0.000 C 
ATOM      6  N   UNL     1       7.426   5.614  15.791  0.00  0.00    +0.000 NA
ATOM      7  H   UNL     1       7.944   6.297  15.229  0.00  0.00    +0.000 HD
ENDROOT
BRANCH   1   9
ATOM      8  O   UNL     1       8.007   6.623  18.753  0.00  0.00    +0.000 OA
ATOM      9  C   UNL     1       7.531   7.107  17.741  0.00  0.00    +0.000 C 
BRANCH   9  10
ATOM     10  OXT UNL     1       7.810   8.366  17.310  0.00  0.00    +0.000 OA
ATOM     11  HXT UNL     1       6.970   8.742  16.952  0.00  0.00    +0.000 HD
ENDBRANCH   9  10
ENDBRANCH   1   9
BRANCH   3  12
ATOM     12  C   UNL     1       4.141   3.418  17.541  0.00  0.00    +0.000 C 
BRANCH  12  13
ATOM     13  C   UNL     1       2.644   3.267  17.257  0.00  0.00    +0.000 C 
BRANCH  13  14
ATOM     14  C   UNL     1       1.968   2.555  18.428  0.00  0.00    +0.000 C 
BRANCH  14  15
ATOM     15  C   UNL     1       2.766   2.623  19.722  0.00  0.00    +0.000 C 
BRANCH  15  16
ATOM     16  P   UNL     1       1.803   3.360  21.038  0.00  0.00    +0.000 P 
ATOM     17  O   UNL     1       1.660   2.555  22.284  0.00  0.00    +0.000 OA
BRANCH  16  18
ATOM     18  O   UNL     1       2.418   4.821  21.263  0.00  0.00    +0.000 OA
ATOM     19  H   UNL     1       1.783   5.521  21.499  0.00  0.00    +0.000 HD
ENDBRANCH  16  18
BRANCH  16  20
ATOM     20  O   UNL     1       0.404   3.731  20.355  0.00  0.00    +0.000 OA
ATOM     21  H   UNL     1       0.261   3.201  19.548  0.00  0.00    +0.000 HD
ENDBRANCH  16  20
ENDBRANCH  15  16
ENDBRANCH  14  15
ENDBRANCH  13  14
ENDBRANCH  12  13
ENDBRANCH   3  12
TORSDOF 9
ENDMDL
MODEL 3
REMARK VINA RESULT:      -6.5      2.232      2.837
REMARK  Name = 
REMARK  9 active torsions:
REMARK  status: ('A' for Active; 'I' for Inactive)
REMARK    1  A    between atoms: C_2  and  OXT_3
REMARK    2  A    between atoms: C_2  and  CA_4
REMARK    3  A    between atoms: C_6  and  C_7
REMARK    4  A    between atoms: C_7  and  C_8
REMARK    5  A    between atoms: C_8  and  C_9
REMARK    6  A    between atoms: C_9  and  C_10
REMARK    7  A    between atoms: C_10  and  P_11
REMARK    8  A    between atoms: P_11  and  O_13
REMARK    9  A    between atoms: P_11  and  O_14
REMARK                            x       y       z     vdW  Elec       q    Type
REMARK                         _______ _______ _______ _____ _____    ______ ____
ROOT
ATOM      1  CA  UNL     1       6.331   5.072  15.883  0.00  0.00    +0.000 C 
ATOM      2  C   UNL     1       5.256   4.016  16.157  0.00  0.00    +0.000 C 
ATOM      3  C   UNL     1       4.446   4.310  17.427  0.00  0.00    +0.000 C 
ATOM      4  C   UNL     1       3.971   5.772  17.425  0.00  0.00    +0.000 C 
ATOM      5  C   UNL     1       5.110   6.743  17.135  0.00  0.00    +0.000 C 
ATOM      6  N   UNL     1       5.746   6.442  15.846  0.00  0.00    +0.000 NA
ATOM      7  H   UNL     1       6.517   7.108  15.726  0.00  0.00    +0.000 HD
ENDROOT
BRANCH   1   9
ATOM      8  O   UNL     1       7.779   5.469  13.953  0.00  0.00    +0.000 OA
ATOM      9  C   UNL     1       6.956   4.767  14.515  0.00  0.00    +0.000 C 
BRANCH   9  10
ATOM     10  OXT UNL     1       6.515   3.582  14.014  0.00  0.00    +0.000 OA
ATOM     11  HXT UNL     1       5.792   3.790  13.375  0.00  0.00    +0.000 HD
ENDBRANCH   9  10
ENDBRANCH   1   9
BRANCH   3  12
ATOM     12  C   UNL     1       3.225   3.382  17.564  0.00  0.00    +0.000 C 
BRANCH  12  13
ATOM     13  C   UNL     1       1.872   4.101  17.570  0.00  0.00    +0.000 C 
BRANCH  13  14
ATOM     14  C   UNL     1       1.266   4.041  18.971  0.00  0.00    +0.000 C 
BRANCH  14  15
ATOM     15  C   UNL     1       1.514   2.720  19.685  0.00  0.00    +0.000 C 
BRANCH  15  16
ATOM     16  P   UNL     1       2.141   2.986  21.340  0.00  0.00    +0.000 P 
ATOM     17  O   UNL     1       1.296   2.477  22.457  0.00  0.00    +0.000 OA
BRANCH  16  18
ATOM     18  O   UNL     1       3.638   2.422  21.335  0.00  0.00    +0.000 OA
ATOM     19  H   UNL     1       3.849   1.760  22.018  0.00  0.00    +0.000 HD
ENDBRANCH  16  18
BRANCH  16  20
ATOM     20  O   UNL     1       2.419   4.560  21.419  0.00  0.00    +0.000 OA
ATOM     21  H   UNL     1       3.370   4.750  21.304  0.00  0.00    +0.000 HD
ENDBRANCH  16  20
ENDBRANCH  15  16
ENDBRANCH  14  15
ENDBRANCH  13  14
ENDBRANCH  12  13
ENDBRANCH   3  12
TORSDOF 9
ENDMDL
MODEL 4
REMARK VINA RESULT:      -6.4      0.778      1.364
REMARK  Name = 
REMARK  9 active torsions:
REMARK  status: ('A' for Active; 'I' for Inactive)
REMARK    1  A    between atoms: C_2  and  OXT_3
REMARK    2  A    between atoms: C_2  and  CA_4
REMARK    3  A    between atoms: C_6  and  C_7
REMARK    4  A    between atoms: C_7  and  C_8
REMARK    5  A    between atoms: C_8  and  C_9
REMARK    6  A    between atoms: C_9  and  C_10
REMARK    7  A    between atoms: C_10  and  P_11
REMARK    8  A    between atoms: P_11  and  O_13
REMARK    9  A    between atoms: P_11  and  O_14
REMARK                            x       y       z     vdW  Elec       q    Type
REMARK                         _______ _______ _______ _____ _____    ______ ____
ROOT
ATOM      1  CA  UNL     1       6.804   5.656  17.905  0.00  0.00    +0.000 C 
ATOM      2  C   UNL     1       5.347   5.474  18.340  0.00  0.00    +0.000 C 
ATOM      3  C   UNL     1       4.429   5.068  17.179  0.00  0.00    +0.000 C 
ATOM      4  C   UNL     1       5.050   3.902  16.394  0.00  0.00    +0.000 C 
ATOM      5  C   UNL     1       6.501   4.175  16.017  0.00  0.00    +0.000 C 
ATOM      6  N   UNL     1       7.317   4.443  17.208  0.00  0.00    +0.000 NA
ATOM      7  H   UNL     1       8.268   4.647  16.885  0.00  0.00    +0.000 HD
ENDROOT
BRANCH   1   9
ATOM      8  O   UNL     1       7.614   5.198  20.166  0.00  0.00    +0.000 OA
ATOM      9  C   UNL     1       7.648   5.892  19.165  0.00  0.00    +0.000 C 
BRANCH   9  10
ATOM     10  OXT UNL     1       8.485   6.954  19.018  0.00  0.00    +0.000 OA
ATOM     11  HXT UNL     1       7.925   7.736  18.796  0.00  0.00    +0.000 HD
ENDBRANCH   9  10
ENDBRANCH   1   9
BRANCH   3  12
ATOM     12  C   UNL     1       3.026   4.660  17.664  0.00  0.00    +0.000 C 
BRANCH  12  13
ATOM     13  C   UNL     1       2.660   3.195  17.407  0.00  0.00    +0.000 C 
BRANCH  13  14
ATOM     14  C   UNL     1       2.882   2.379  18.679  0.00  0.00    +0.000 C 
BRANCH  14  15
ATOM     15  C   UNL     1       1.673   2.352  19.602  0.00  0.00    +0.000 C 
BRANCH  15  16
ATOM     16  P   UNL     1       2.056   3.079  21.192  0.00  0.00    +0.000 P 
ATOM     17  O   UNL     1       2.208   4.561  21.223  0.00  0.00    +0.000 OA
BRANCH  16  18
ATOM     18  O   UNL     1       0.960   2.507  22.209  0.00  0.00    +0.000 OA
ATOM     19  H   UNL     1       0.371   1.815  21.858  0.00  0.00    +0.000 HD
ENDBRANCH  16  18
BRANCH  16  20
ATOM     20  O   UNL     1       3.359   2.295  21.691  0.00  0.00    +0.000 OA
ATOM     21  H   UNL     1       4.073   2.920  21.922  0.00  0.00    +0.000 HD
ENDBRANCH  16  20
ENDBRANCH  15  16
ENDBRANCH  14  15
ENDBRANCH  13  14
ENDBRANCH  12  13
ENDBRANCH   3  12
TORSDOF 9
ENDMDL
MODEL 5
REMARK VINA RESULT:      -6.4      2.409      3.104
REMARK  Name = 
REMARK  9 active torsions:
REMARK  status: ('A' for Active; 'I' for Inactive)
REMARK    1  A    between atoms: C_2  and  OXT_3
REMARK    2  A    between atoms: C_2  and  CA_4
REMARK    3  A    between atoms: C_6  and  C_7
REMARK    4  A    between atoms: C_7  and  C_8
REMARK    5  A    between atoms: C_8  and  C_9
REMARK    6  A    between atoms: C_9  and  C_10
REMARK    7  A    between atoms: C_10  and  P_11
REMARK    8  A    between atoms: P_11  and  O_13
REMARK    9  A    between atoms: P_11  and  O_14
REMARK                            x       y       z     vdW  Elec       q    Type
REMARK                         _______ _______ _______ _____ _____    ______ ____
ROOT
ATOM      1  CA  UNL     1       6.809   4.736  15.576  0.00  0.00    +0.000 C 
ATOM      2  C   UNL     1       5.301   4.646  15.833  0.00  0.00    +0.000 C 
ATOM      3  C   UNL     1       4.936   4.878  17.305  0.00  0.00    +0.000 C 
ATOM      4  C   UNL     1       5.636   6.141  17.832  0.00  0.00    +0.000 C 
ATOM      5  C   UNL     1       7.127   6.140  17.520  0.00  0.00    +0.000 C 
ATOM      6  N   UNL     1       7.366   6.025  16.076  0.00  0.00    +0.000 NA
ATOM      7  H   UNL     1       8.382   6.000  15.937  0.00  0.00    +0.000 HD
ENDROOT
BRANCH   1   9
ATOM      8  O   UNL     1       7.698   5.449  13.413  0.00  0.00    +0.000 OA
ATOM      9  C   UNL     1       7.037   4.656  14.061  0.00  0.00    +0.000 C 
BRANCH   9  10
ATOM     10  OXT UNL     1       6.446   3.557  13.521  0.00  0.00    +0.000 OA
ATOM     11  HXT UNL     1       7.108   2.826  13.557  0.00  0.00    +0.000 HD
ENDBRANCH   9  10
ENDBRANCH   1   9
BRANCH   3  12
ATOM     12  C   UNL     1       3.416   5.020  17.510  0.00  0.00    +0.000 C 
BRANCH  12  13
ATOM     13  C   UNL     1       2.652   3.693  17.566  0.00  0.00    +0.000 C 
BRANCH  13  14
ATOM     14  C   UNL     1       3.248   2.803  18.654  0.00  0.00    +0.000 C 
BRANCH  14  15
ATOM     15  C   UNL     1       2.201   2.102  19.507  0.00  0.00    +0.000 C 
BRANCH  15  16
ATOM     16  P   UNL     1       1.692   3.129  20.882  0.00  0.00    +0.000 P 
ATOM     17  O   UNL     1       1.492   2.438  22.186  0.00  0.00    +0.000 OA
BRANCH  16  18
ATOM     18  O   UNL     1       2.737   4.341  20.930  0.00  0.00    +0.000 OA
ATOM     19  H   UNL     1       3.581   4.197  20.466  0.00  0.00    +0.000 HD
ENDBRANCH  16  18
BRANCH  16  20
ATOM     20  O   UNL     1       0.385   3.889  20.356  0.00  0.00    +0.000 OA
ATOM     21  H   UNL     1       0.614   4.530  19.656  0.00  0.00    +0.000 HD
ENDBRANCH  16  20
ENDBRANCH  15  16
ENDBRANCH  14  15
ENDBRANCH  13  14
ENDBRANCH  12  13
ENDBRANCH   3  12
TORSDOF 9
ENDMDL
MODEL 6
REMARK VINA RESULT:      -6.4      2.875      3.686
REMARK  Name = 
REMARK  9 active torsions:
REMARK  status: ('A' for Active; 'I' for Inactive)
REMARK    1  A    between atoms: C_2  and  OXT_3
REMARK    2  A    between atoms: C_2  and  CA_4
REMARK    3  A    between atoms: C_6  and  C_7
REMARK    4  A    between atoms: C_7  and  C_8
REMARK    5  A    between atoms: C_8  and  C_9
REMARK    6  A    between atoms: C_9  and  C_10
REMARK    7  A    between atoms: C_10  and  P_11
REMARK    8  A    between atoms: P_11  and  O_13
REMARK    9  A    between atoms: P_11  and  O_14
REMARK                            x       y       z     vdW  Elec       q    Type
REMARK                         _______ _______ _______ _____ _____    ______ ____
ROOT
ATOM      1  CA  UNL     1       6.410   4.477  15.597  0.00  0.00    +0.000 C 
ATOM      2  C   UNL     1       5.333   5.545  15.811  0.00  0.00    +0.000 C 
ATOM      3  C   UNL     1       4.977   5.739  17.291  0.00  0.00    +0.000 C 
ATOM      4  C   UNL     1       6.257   5.893  18.129  0.00  0.00    +0.000 C 
ATOM      5  C   UNL     1       7.267   4.790  17.837  0.00  0.00    +0.000 C 
ATOM      6  N   UNL     1       7.624   4.761  16.413  0.00  0.00    +0.000 NA
ATOM      7  H   UNL     1       8.279   3.983  16.280  0.00  0.00    +0.000 HD
ENDROOT
BRANCH   1   9
ATOM      8  O   UNL     1       7.501   5.336  13.585  0.00  0.00    +0.000 OA
ATOM      9  C   UNL     1       6.801   4.490  14.113  0.00  0.00    +0.000 C 
BRANCH   9  10
ATOM     10  OXT UNL     1       6.308   3.407  13.454  0.00  0.00    +0.000 OA
ATOM     11  HXT UNL     1       6.640   3.458  12.526  0.00  0.00    +0.000 HD
ENDBRANCH   9  10
ENDBRANCH   1   9
BRANCH   3  12
ATOM     12  C   UNL     1       4.076   6.967  17.515  0.00  0.00    +0.000 C 
BRANCH  12  13
ATOM     13  C   UNL     1       2.697   6.651  18.103  0.00  0.00    +0.000 C 
BRANCH  13  14
ATOM     14  C   UNL     1       2.699   5.239  18.684  0.00  0.00    +0.000 C 
BRANCH  14  15
ATOM     15  C   UNL     1       1.760   4.283  17.961  0.00  0.00    +0.000 C 
BRANCH  15  16
ATOM     16  P   UNL     1       1.733   2.679  18.753  0.00  0.00    +0.000 P 
ATOM     17  O   UNL     1       2.351   2.598  20.107  0.00  0.00    +0.000 OA
BRANCH  16  18
ATOM     18  O   UNL     1       0.211   2.188  18.692  0.00  0.00    +0.000 OA
ATOM     19  H   UNL     1       0.001   1.527  18.008  0.00  0.00    +0.000 HD
ENDBRANCH  16  18
BRANCH  16  20
ATOM     20  O   UNL     1       2.404   1.690  17.688  0.00  0.00    +0.000 OA
ATOM     21  H   UNL     1       2.456   0.782  18.042  0.00  0.00    +0.000 HD
ENDBRANCH  16  20
ENDBRANCH  15  16
ENDBRANCH  14  15
ENDBRANCH  13  14
ENDBRANCH  12  13
ENDBRANCH   3  12
TORSDOF 9
ENDMDL
MODEL 7
REMARK VINA RESULT:      -6.4      2.296      3.078
REMARK  Name = 
REMARK  9 active torsions:
REMARK  status: ('A' for Active; 'I' for Inactive)
REMARK    1  A    between atoms: C_2  and  OXT_3
REMARK    2  A    between atoms: C_2  and  CA_4
REMARK    3  A    between atoms: C_6  and  C_7
REMARK    4  A    between atoms: C_7  and  C_8
REMARK    5  A    between atoms: C_8  and  C_9
REMARK    6  A    between atoms: C_9  and  C_10
REMARK    7  A    between atoms: C_10  and  P_11
REMARK    8  A    between atoms: P_11  and  O_13
REMARK    9  A    between atoms: P_11  and  O_14
REMARK                            x       y       z     vdW  Elec       q    Type
REMARK                         _______ _______ _______ _____ _____    ______ ____
ROOT
ATOM      1  CA  UNL     1       6.760   4.141  15.589  0.00  0.00    +0.000 C 
ATOM      2  C   UNL     1       5.266   4.166  15.930  0.00  0.00    +0.000 C 
ATOM      3  C   UNL     1       4.997   3.968  17.428  0.00  0.00    +0.000 C 
ATOM      4  C   UNL     1       5.895   4.903  18.255  0.00  0.00    +0.000 C 
ATOM      5  C   UNL     1       7.356   4.812  17.835  0.00  0.00    +0.000 C 
ATOM      6  N   UNL     1       7.518   5.127  16.410  0.00  0.00    +0.000 NA
ATOM      7  H   UNL     1       8.513   5.019  16.186  0.00  0.00    +0.000 HD
ENDROOT
BRANCH   1   9
ATOM      8  O   UNL     1       6.323   3.972  13.189  0.00  0.00    +0.000 OA
ATOM      9  C   UNL     1       6.913   4.513  14.108  0.00  0.00    +0.000 C 
BRANCH   9  10
ATOM     10  OXT UNL     1       7.760   5.564  13.938  0.00  0.00    +0.000 OA
ATOM     11  HXT UNL     1       7.207   6.381  13.923  0.00  0.00    +0.000 HD
ENDBRANCH   9  10
ENDBRANCH   1   9
BRANCH   3  12
ATOM     12  C   UNL     1       3.524   4.229  17.791  0.00  0.00    +0.000 C 
BRANCH  12  13
ATOM     13  C   UNL     1       2.536   3.197  17.238  0.00  0.00    +0.000 C 
BRANCH  13  14
ATOM     14  C   UNL     1       1.986   2.347  18.381  0.00  0.00    +0.000 C 
BRANCH  14  15
ATOM     15  C   UNL     1       2.759   2.508  19.683  0.00  0.00    +0.000 C 
BRANCH  15  16
ATOM     16  P   UNL     1       1.778   3.354  20.918  0.00  0.00    +0.000 P 
ATOM     17  O   UNL     1       2.243   4.712  21.316  0.00  0.00    +0.000 OA
BRANCH  16  18
ATOM     18  O   UNL     1       0.269   3.302  20.386  0.00  0.00    +0.000 OA
ATOM     19  H   UNL     1      -0.037   4.082  19.889  0.00  0.00    +0.000 HD
ENDBRANCH  16  18
BRANCH  16  20
ATOM     20  O   UNL     1       1.694   2.325  22.141  0.00  0.00    +0.000 OA
ATOM     21  H   UNL     1       2.569   1.931  22.323  0.00  0.00    +0.000 HD
ENDBRANCH  16  20
ENDBRANCH  15  16
ENDBRANCH  14  15
ENDBRANCH  13  14
ENDBRANCH  12  13
ENDBRANCH   3  12
TORSDOF 9
ENDMDL
MODEL 8
REMARK VINA RESULT:      -6.4      2.951      3.717
REMARK  Name = 
REMARK  9 active torsions:
REMARK  status: ('A' for Active; 'I' for Inactive)
REMARK    1  A    between atoms: C_2  and  OXT_3
REMARK    2  A    between atoms: C_2  and  CA_4
REMARK    3  A    between atoms: C_6  and  C_7
REMARK    4  A    between atoms: C_7  and  C_8
REMARK    5  A    between atoms: C_8  and  C_9
REMARK    6  A    between atoms: C_9  and  C_10
REMARK    7  A    between atoms: C_10  and  P_11
REMARK    8  A    between atoms: P_11  and  O_13
REMARK    9  A    between atoms: P_11  and  O_14
REMARK                            x       y       z     vdW  Elec       q    Type
REMARK                         _______ _______ _______ _____ _____    ______ ____
ROOT
ATOM      1  CA  UNL     1       6.428   4.299  15.540  0.00  0.00    +0.000 C 
ATOM      2  C   UNL     1       5.307   5.283  15.887  0.00  0.00    +0.000 C 
ATOM      3  C   UNL     1       5.111   5.450  17.400  0.00  0.00    +0.000 C 
ATOM      4  C   UNL     1       6.465   5.700  18.085  0.00  0.00    +0.000 C 
ATOM      5  C   UNL     1       7.513   4.675  17.669  0.00  0.00    +0.000 C 
ATOM      6  N   UNL     1       7.704   4.674  16.213  0.00  0.00    +0.000 NA
ATOM      7  H   UNL     1       8.396   3.947  15.999  0.00  0.00    +0.000 HD
ENDROOT
BRANCH   1   9
ATOM      8  O   UNL     1       6.093   3.606  13.220  0.00  0.00    +0.000 OA
ATOM      9  C   UNL     1       6.642   4.341  14.021  0.00  0.00    +0.000 C 
BRANCH   9  10
ATOM     10  OXT UNL     1       7.493   5.339  13.661  0.00  0.00    +0.000 OA
ATOM     11  HXT UNL     1       8.342   5.182  14.140  0.00  0.00    +0.000 HD
ENDBRANCH   9  10
ENDBRANCH   1   9
BRANCH   3  12
ATOM     12  C   UNL     1       4.153   6.607  17.736  0.00  0.00    +0.000 C 
BRANCH  12  13
ATOM     13  C   UNL     1       2.956   6.214  18.608  0.00  0.00    +0.000 C 
BRANCH  13  14
ATOM     14  C   UNL     1       3.344   5.051  19.519  0.00  0.00    +0.000 C 
BRANCH  14  15
ATOM     15  C   UNL     1       2.307   3.938  19.559  0.00  0.00    +0.000 C 
BRANCH  15  16
ATOM     16  P   UNL     1       2.594   2.738  18.263  0.00  0.00    +0.000 P 
ATOM     17  O   UNL     1       2.248   3.164  16.878  0.00  0.00    +0.000 OA
BRANCH  16  18
ATOM     18  O   UNL     1       4.109   2.253  18.446  0.00  0.00    +0.000 OA
ATOM     19  H   UNL     1       4.597   2.056  17.627  0.00  0.00    +0.000 HD
ENDBRANCH  16  18
BRANCH  16  20
ATOM     20  O   UNL     1       1.807   1.429  18.743  0.00  0.00    +0.000 OA
ATOM     21  H   UNL     1       1.192   1.642  19.471  0.00  0.00    +0.000 HD
ENDBRANCH  16  20
ENDBRANCH  15  16
ENDBRANCH  14  15
ENDBRANCH  13  14
ENDBRANCH  12  13
ENDBRANCH   3  12
TORSDOF 9
ENDMDL
MODEL 9
REMARK VINA RESULT:      -6.4      1.035      1.209
REMARK  Name = 
REMARK  9 active torsions:
REMARK  status: ('A' for Active; 'I' for Inactive)
REMARK    1  A    between atoms: C_2  and  OXT_3
REMARK    2  A    between atoms: C_2  and  CA_4
REMARK    3  A    between atoms: C_6  and  C_7
REMARK    4  A    between atoms: C_7  and  C_8
REMARK    5  A    between atoms: C_8  and  C_9
REMARK    6  A    between atoms: C_9  and  C_10
REMARK    7  A    between atoms: C_10  and  P_11
REMARK    8  A    between atoms: P_11  and  O_13
REMARK    9  A    between atoms: P_11  and  O_14
REMARK                            x       y       z     vdW  Elec       q    Type
REMARK                         _______ _______ _______ _____ _____    ______ ____
ROOT
ATOM      1  CA  UNL     1       7.083   5.903  17.616  0.00  0.00    +0.000 C 
ATOM      2  C   UNL     1       5.639   5.597  18.029  0.00  0.00    +0.000 C 
ATOM      3  C   UNL     1       4.757   5.192  16.841  0.00  0.00    +0.000 C 
ATOM      4  C   UNL     1       5.461   4.115  16.000  0.00  0.00    +0.000 C 
ATOM      5  C   UNL     1       6.891   4.508  15.649  0.00  0.00    +0.000 C 
ATOM      6  N   UNL     1       7.681   4.767  16.860  0.00  0.00    +0.000 NA
ATOM      7  H   UNL     1       8.618   5.054  16.556  0.00  0.00    +0.000 HD
ENDROOT
BRANCH   1   9
ATOM      8  O   UNL     1       8.049   5.307  19.782  0.00  0.00    +0.000 OA
ATOM      9  C   UNL     1       7.902   6.129  18.894  0.00  0.00    +0.000 C 
BRANCH   9  10
ATOM     10  OXT UNL     1       8.494   7.354  18.902  0.00  0.00    +0.000 OA
ATOM     11  HXT UNL     1       9.437   7.220  18.644  0.00  0.00    +0.000 HD
ENDBRANCH   9  10
ENDBRANCH   1   9
BRANCH   3  12
ATOM     12  C   UNL     1       3.383   4.663  17.293  0.00  0.00    +0.000 C 
BRANCH  12  13
ATOM     13  C   UNL     1       3.339   3.158  17.574  0.00  0.00    +0.000 C 
BRANCH  13  14
ATOM     14  C   UNL     1       3.568   2.906  19.063  0.00  0.00    +0.000 C 
BRANCH  14  15
ATOM     15  C   UNL     1       2.415   2.179  19.741  0.00  0.00    +0.000 C 
BRANCH  15  16
ATOM     16  P   UNL     1       1.682   3.185  21.026  0.00  0.00    +0.000 P 
ATOM     17  O   UNL     1       1.337   2.487  22.297  0.00  0.00    +0.000 OA
BRANCH  16  18
ATOM     18  O   UNL     1       2.656   4.442  21.206  0.00  0.00    +0.000 OA
ATOM     19  H   UNL     1       3.218   4.437  22.002  0.00  0.00    +0.000 HD
ENDBRANCH  16  18
BRANCH  16  20
ATOM     20  O   UNL     1       0.425   3.885  20.324  0.00  0.00    +0.000 OA
ATOM     21  H   UNL     1       0.430   4.848  20.485  0.00  0.00    +0.000 HD
ENDBRANCH  16  20
ENDBRANCH  15  16
ENDBRANCH  14  15
ENDBRANCH  13  14
ENDBRANCH  12  13
ENDBRANCH   3  12
TORSDOF 9
ENDMDL
