MODEL 1
REMARK VINA RESULT:      -7.9      0.000      0.000
REMARK  Name = 
REMARK  6 active torsions:
REMARK  status: ('A' for Active; 'I' for Inactive)
REMARK    1  A    between atoms: C_1  and  C_2
REMARK    2  A    between atoms: C_5  and  C_6
REMARK    3  A    between atoms: N_10  and  C_11
REMARK    4  A    between atoms: C_11  and  C_12
REMARK    5  A    between atoms: C_12  and  C_13
REMARK    6  A    between atoms: C_15  and  C_16
REMARK                            x       y       z     vdW  Elec       q    Type
REMARK                         _______ _______ _______ _____ _____    ______ ____
ROOT
ATOM      1  C   UNL     1       5.338   4.868  19.288  0.00  0.00    +0.000 C 
ENDROOT
BRANCH   1   2
ATOM      2  C   UNL     1       6.183   4.783  18.067  0.00  0.00    +0.000 A 
ATOM      3  N   UNL     1       5.815   4.939  16.813  0.00  0.00    +0.000 NA
ATOM      4  C   UNL     1       6.939   4.601  16.088  0.00  0.00    +0.000 A 
ATOM      5  N   UNL     1       7.996   4.283  16.854  0.00  0.00    +0.000 NA
ATOM      6  N   UNL     1       7.494   4.405  18.092  0.00  0.00    +0.000 N 
ATOM      7  H   UNL     1       8.077   4.175  18.890  0.00  0.00    +0.000 HD
BRANCH   4   8
ATOM      8  C   UNL     1       6.923   4.527  14.636  0.00  0.00    +0.000 A 
ATOM      9  C   UNL     1       7.763   5.308  13.834  0.00  0.00    +0.000 A 
ATOM     10  C   UNL     1       7.745   5.150  12.450  0.00  0.00    +0.000 A 
ATOM     11  C   UNL     1       6.876   4.216  11.904  0.00  0.00    +0.000 A 
ATOM     12  N   UNL     1       6.039   3.454  12.638  0.00  0.00    +0.000 NA
ATOM     13  C   UNL     1       6.084   3.630  13.986  0.00  0.00    +0.000 A 
ENDBRANCH   4   8
ENDBRANCH   1   2
BRANCH   1  14
ATOM     14  C   UNL     1       4.742   3.520  19.681  0.00  0.00    +0.000 C 
BRANCH  14  19
ATOM     15  C   UNL     1       2.537   3.969  18.470  0.00  0.00    +0.000 A 
ATOM     16  N   UNL     1       1.699   3.273  17.719  0.00  0.00    +0.000 NA
ATOM     17  C   UNL     1       2.216   2.009  17.629  0.00  0.00    +0.000 A 
ATOM     18  C   UNL     1       3.393   1.922  18.324  0.00  0.00    +0.000 A 
ATOM     19  N   UNL     1       3.598   3.173  18.854  0.00  0.00    +0.000 N 
BRANCH  15  24
ATOM     20  C   UNL     1       2.359   8.825  17.945  0.00  0.00    +0.000 C 
ATOM     21  C   UNL     1       2.241   7.555  18.702  0.00  0.00    +0.000 A 
ATOM     22  C   UNL     1       1.958   7.419  20.048  0.00  0.00    +0.000 A 
ATOM     23  S   UNL     1       1.924   5.765  20.477  0.00  0.00    +0.000 S 
ATOM     24  C   UNL     1       2.321   5.340  18.856  0.00  0.00    +0.000 A 
ATOM     25  N   UNL     1       2.452   6.361  18.030  0.00  0.00    +0.000 NA
ENDBRANCH  15  24
ENDBRANCH  14  19
ENDBRANCH   1  14
TORSDOF 5
ENDMDL
MODEL 2
REMARK VINA RESULT:      -7.9      3.158      7.950
REMARK  Name = 
REMARK  6 active torsions:
REMARK  status: ('A' for Active; 'I' for Inactive)
REMARK    1  A    between atoms: C_1  and  C_2
REMARK    2  A    between atoms: C_5  and  C_6
REMARK    3  A    between atoms: N_10  and  C_11
REMARK    4  A    between atoms: C_11  and  C_12
REMARK    5  A    between atoms: C_12  and  C_13
REMARK    6  A    between atoms: C_15  and  C_16
REMARK                            x       y       z     vdW  Elec       q    Type
REMARK                         _______ _______ _______ _____ _____    ______ ____
ROOT
ATOM      1  C   UNL     1       3.391   7.603  17.711  0.00  0.00    +0.000 C 
ENDROOT
BRANCH   1   2
ATOM      2  C   UNL     1       2.490   7.769  18.882  0.00  0.00    +0.000 A 
ATOM      3  N   UNL     1       1.775   8.824  19.213  0.00  0.00    +0.000 NA
ATOM      4  C   UNL     1       1.257   8.506  20.451  0.00  0.00    +0.000 A 
ATOM      5  N   UNL     1       1.595   7.275  20.874  0.00  0.00    +0.000 NA
ATOM      6  N   UNL     1       2.370   6.835  19.870  0.00  0.00    +0.000 N 
ATOM      7  H   UNL     1       2.810   5.925  19.944  0.00  0.00    +0.000 HD
BRANCH   4   8
ATOM      8  C   UNL     1       0.491   9.462  21.233  0.00  0.00    +0.000 A 
ATOM      9  C   UNL     1      -0.166   9.111  22.417  0.00  0.00    +0.000 A 
ATOM     10  C   UNL     1      -0.835  10.085  23.155  0.00  0.00    +0.000 A 
ATOM     11  C   UNL     1      -0.835  11.388  22.680  0.00  0.00    +0.000 A 
ATOM     12  N   UNL     1      -0.227  11.768  21.536  0.00  0.00    +0.000 NA
ATOM     13  C   UNL     1       0.419  10.794  20.842  0.00  0.00    +0.000 A 
ENDBRANCH   4   8
ENDBRANCH   1   2
BRANCH   1  14
ATOM     14  C   UNL     1       3.601   6.138  17.339  0.00  0.00    +0.000 C 
BRANCH  14  19
ATOM     15  C   UNL     1       4.889   4.456  18.768  0.00  0.00    +0.000 A 
ATOM     16  N   UNL     1       6.143   4.296  19.160  0.00  0.00    +0.000 NA
ATOM     17  C   UNL     1       6.853   5.339  18.629  0.00  0.00    +0.000 A 
ATOM     18  C   UNL     1       6.032   6.152  17.893  0.00  0.00    +0.000 A 
ATOM     19  N   UNL     1       4.783   5.584  17.978  0.00  0.00    +0.000 N 
BRANCH  15  24
ATOM     20  C   UNL     1       1.346   2.700  21.641  0.00  0.00    +0.000 C 
ATOM     21  C   UNL     1       2.197   2.723  20.426  0.00  0.00    +0.000 A 
ATOM     22  C   UNL     1       2.180   1.810  19.389  0.00  0.00    +0.000 A 
ATOM     23  S   UNL     1       3.336   2.243  18.206  0.00  0.00    +0.000 S 
ATOM     24  C   UNL     1       3.807   3.593  19.166  0.00  0.00    +0.000 A 
ATOM     25  N   UNL     1       3.134   3.736  20.292  0.00  0.00    +0.000 NA
ENDBRANCH  15  24
ENDBRANCH  14  19
ENDBRANCH   1  14
TORSDOF 5
ENDMDL
MODEL 3
REMARK VINA RESULT:      -7.9      0.645      1.014
REMARK  Name = 
REMARK  6 active torsions:
REMARK  status: ('A' for Active; 'I' for Inactive)
REMARK    1  A    between atoms: C_1  and  C_2
REMARK    2  A    between atoms: C_5  and  C_6
REMARK    3  A    between atoms: N_10  and  C_11
REMARK    4  A    between atoms: C_11  and  C_12
REMARK    5  A    between atoms: C_12  and  C_13
REMARK    6  A    between atoms: C_15  and  C_16
REMARK                            x       y       z     vdW  Elec       q    Type
REMARK                         _______ _______ _______ _____ _____    ______ ____
ROOT
ATOM      1  C   UNL     1       5.322   5.150  19.214  0.00  0.00    +0.000 C 
ENDROOT
BRANCH   1   2
ATOM      2  C   UNL     1       6.194   4.956  18.025  0.00  0.00    +0.000 A 
ATOM      3  N   UNL     1       5.884   5.119  16.757  0.00  0.00    +0.000 NA
ATOM      4  C   UNL     1       6.992   4.658  16.077  0.00  0.00    +0.000 A 
ATOM      5  N   UNL     1       7.988   4.256  16.885  0.00  0.00    +0.000 NA
ATOM      6  N   UNL     1       7.461   4.454  18.103  0.00  0.00    +0.000 N 
ATOM      7  H   UNL     1       7.992   4.187  18.924  0.00  0.00    +0.000 HD
BRANCH   4   8
ATOM      8  C   UNL     1       7.017   4.555  14.627  0.00  0.00    +0.000 A 
ATOM      9  C   UNL     1       6.242   3.624  13.927  0.00  0.00    +0.000 A 
ATOM     10  C   UNL     1       6.262   3.613  12.533  0.00  0.00    +0.000 A 
ATOM     11  C   UNL     1       7.068   4.532  11.878  0.00  0.00    +0.000 A 
ATOM     12  N   UNL     1       7.842   5.436  12.513  0.00  0.00    +0.000 NA
ATOM     13  C   UNL     1       7.797   5.422  13.873  0.00  0.00    +0.000 A 
ENDBRANCH   4   8
ENDBRANCH   1   2
BRANCH   1  14
ATOM     14  C   UNL     1       4.670   3.851  19.678  0.00  0.00    +0.000 C 
BRANCH  14  19
ATOM     15  C   UNL     1       2.467   4.280  18.455  0.00  0.00    +0.000 A 
ATOM     16  N   UNL     1       1.637   3.574  17.704  0.00  0.00    +0.000 NA
ATOM     17  C   UNL     1       2.163   2.313  17.623  0.00  0.00    +0.000 A 
ATOM     18  C   UNL     1       3.337   2.237  18.324  0.00  0.00    +0.000 A 
ATOM     19  N   UNL     1       3.532   3.493  18.848  0.00  0.00    +0.000 N 
BRANCH  15  24
ATOM     20  C   UNL     1       2.213   9.128  17.888  0.00  0.00    +0.000 C 
ATOM     21  C   UNL     1       2.128   7.864  18.660  0.00  0.00    +0.000 A 
ATOM     22  C   UNL     1       1.873   7.737  20.011  0.00  0.00    +0.000 A 
ATOM     23  S   UNL     1       1.870   6.086  20.457  0.00  0.00    +0.000 S 
ATOM     24  C   UNL     1       2.241   5.652  18.832  0.00  0.00    +0.000 A 
ATOM     25  N   UNL     1       2.342   6.666  17.994  0.00  0.00    +0.000 NA
ENDBRANCH  15  24
ENDBRANCH  14  19
ENDBRANCH   1  14
TORSDOF 5
ENDMDL
MODEL 4
REMARK VINA RESULT:      -7.7      2.409      7.002
REMARK  Name = 
REMARK  6 active torsions:
REMARK  status: ('A' for Active; 'I' for Inactive)
REMARK    1  A    between atoms: C_1  and  C_2
REMARK    2  A    between atoms: C_5  and  C_6
REMARK    3  A    between atoms: N_10  and  C_11
REMARK    4  A    between atoms: C_11  and  C_12
REMARK    5  A    between atoms: C_12  and  C_13
REMARK    6  A    between atoms: C_15  and  C_16
REMARK                            x       y       z     vdW  Elec       q    Type
REMARK                         _______ _______ _______ _____ _____    ______ ____
ROOT
ATOM      1  C   UNL     1       4.906   7.147  16.543  0.00  0.00    +0.000 C 
ENDROOT
BRANCH   1   2
ATOM      2  C   UNL     1       4.009   6.786  17.673  0.00  0.00    +0.000 A 
ATOM      3  N   UNL     1       3.846   5.608  18.235  0.00  0.00    +0.000 NA
ATOM      4  C   UNL     1       2.798   5.794  19.112  0.00  0.00    +0.000 A 
ATOM      5  N   UNL     1       2.338   7.057  19.138  0.00  0.00    +0.000 NA
ATOM      6  N   UNL     1       3.116   7.659  18.225  0.00  0.00    +0.000 N 
ATOM      7  H   UNL     1       2.955   8.634  18.001  0.00  0.00    +0.000 HD
BRANCH   4   8
ATOM      8  C   UNL     1       2.217   4.692  19.861  0.00  0.00    +0.000 A 
ATOM      9  C   UNL     1       1.353   3.759  19.278  0.00  0.00    +0.000 A 
ATOM     10  C   UNL     1       0.875   2.689  20.033  0.00  0.00    +0.000 A 
ATOM     11  C   UNL     1       1.271   2.588  21.358  0.00  0.00    +0.000 A 
ATOM     12  N   UNL     1       2.090   3.472  21.964  0.00  0.00    +0.000 NA
ATOM     13  C   UNL     1       2.540   4.503  21.200  0.00  0.00    +0.000 A 
ENDBRANCH   4   8
ENDBRANCH   1   2
BRANCH   1  14
ATOM     14  C   UNL     1       6.305   7.537  17.011  0.00  0.00    +0.000 C 
BRANCH  14  19
ATOM     15  C   UNL     1       7.355   5.206  17.011  0.00  0.00    +0.000 A 
ATOM     16  N   UNL     1       7.990   4.443  17.887  0.00  0.00    +0.000 NA
ATOM     17  C   UNL     1       8.046   5.155  19.054  0.00  0.00    +0.000 A 
ATOM     18  C   UNL     1       7.446   6.377  18.900  0.00  0.00    +0.000 A 
ATOM     19  N   UNL     1       7.012   6.410  17.597  0.00  0.00    +0.000 N 
BRANCH  15  24
ATOM     20  C   UNL     1       7.587   5.183  12.130  0.00  0.00    +0.000 C 
ATOM     21  C   UNL     1       7.067   4.743  13.447  0.00  0.00    +0.000 A 
ATOM     22  C   UNL     1       6.044   3.842  13.673  0.00  0.00    +0.000 A 
ATOM     23  S   UNL     1       5.794   3.645  15.352  0.00  0.00    +0.000 S 
ATOM     24  C   UNL     1       7.037   4.794  15.668  0.00  0.00    +0.000 A 
ATOM     25  N   UNL     1       7.625   5.286  14.595  0.00  0.00    +0.000 NA
ENDBRANCH  15  24
ENDBRANCH  14  19
ENDBRANCH   1  14
TORSDOF 5
ENDMDL
MODEL 5
REMARK VINA RESULT:      -7.7      3.152      7.912
REMARK  Name = 
REMARK  6 active torsions:
REMARK  status: ('A' for Active; 'I' for Inactive)
REMARK    1  A    between atoms: C_1  and  C_2
REMARK    2  A    between atoms: C_5  and  C_6
REMARK    3  A    between atoms: N_10  and  C_11
REMARK    4  A    between atoms: C_11  and  C_12
REMARK    5  A    between atoms: C_12  and  C_13
REMARK    6  A    between atoms: C_15  and  C_16
REMARK                            x       y       z     vdW  Elec       q    Type
REMARK                         _______ _______ _______ _____ _____    ______ ____
ROOT
ATOM      1  C   UNL     1       2.650   6.482  18.328  0.00  0.00    +0.000 C 
ENDROOT
BRANCH   1   2
ATOM      2  C   UNL     1       2.108   7.777  18.819  0.00  0.00    +0.000 A 
ATOM      3  N   UNL     1       1.637   8.058  20.015  0.00  0.00    +0.000 NA
ATOM      4  C   UNL     1       1.128   9.333  19.886  0.00  0.00    +0.000 A 
ATOM      5  N   UNL     1       1.307   9.861  18.663  0.00  0.00    +0.000 NA
ATOM      6  N   UNL     1       1.925   8.863  18.013  0.00  0.00    +0.000 N 
ATOM      7  H   UNL     1       2.147   8.972  17.030  0.00  0.00    +0.000 HD
BRANCH   4   8
ATOM      8  C   UNL     1       0.401   9.984  20.964  0.00  0.00    +0.000 A 
ATOM      9  C   UNL     1      -0.509  11.022  20.738  0.00  0.00    +0.000 A 
ATOM     10  C   UNL     1      -1.221  11.565  21.806  0.00  0.00    +0.000 A 
ATOM     11  C   UNL     1      -0.994  11.058  23.076  0.00  0.00    +0.000 A 
ATOM     12  N   UNL     1      -0.115  10.069  23.342  0.00  0.00    +0.000 NA
ATOM     13  C   UNL     1       0.561   9.558  22.278  0.00  0.00    +0.000 A 
ENDBRANCH   4   8
ENDBRANCH   1   2
BRANCH   1  14
ATOM     14  C   UNL     1       2.667   5.408  19.412  0.00  0.00    +0.000 C 
BRANCH  14  19
ATOM     15  C   UNL     1       3.856   3.483  18.223  0.00  0.00    +0.000 A 
ATOM     16  N   UNL     1       3.544   2.253  17.846  0.00  0.00    +0.000 NA
ATOM     17  C   UNL     1       2.243   2.051  18.217  0.00  0.00    +0.000 A 
ATOM     18  C   UNL     1       1.743   3.164  18.840  0.00  0.00    +0.000 A 
ATOM     19  N   UNL     1       2.774   4.073  18.847  0.00  0.00    +0.000 N 
BRANCH  15  24
ATOM     20  C   UNL     1       8.040   5.792  19.247  0.00  0.00    +0.000 C 
ATOM     21  C   UNL     1       7.036   5.177  18.344  0.00  0.00    +0.000 A 
ATOM     22  C   UNL     1       7.079   5.142  16.964  0.00  0.00    +0.000 A 
ATOM     23  S   UNL     1       5.705   4.327  16.354  0.00  0.00    +0.000 S 
ATOM     24  C   UNL     1       5.128   4.106  17.961  0.00  0.00    +0.000 A 
ATOM     25  N   UNL     1       5.914   4.586  18.906  0.00  0.00    +0.000 NA
ENDBRANCH  15  24
ENDBRANCH  14  19
ENDBRANCH   1  14
TORSDOF 5
ENDMDL
MODEL 6
REMARK VINA RESULT:      -7.7      3.097      7.986
REMARK  Name = 
REMARK  6 active torsions:
REMARK  status: ('A' for Active; 'I' for Inactive)
REMARK    1  A    between atoms: C_1  and  C_2
REMARK    2  A    between atoms: C_5  and  C_6
REMARK    3  A    between atoms: N_10  and  C_11
REMARK    4  A    between atoms: C_11  and  C_12
REMARK    5  A    between atoms: C_12  and  C_13
REMARK    6  A    between atoms: C_15  and  C_16
REMARK                            x       y       z     vdW  Elec       q    Type
REMARK                         _______ _______ _______ _____ _____    ______ ____
ROOT
ATOM      1  C   UNL     1       2.830   6.748  18.172  0.00  0.00    +0.000 C 
ENDROOT
BRANCH   1   2
ATOM      2  C   UNL     1       2.144   7.972  18.663  0.00  0.00    +0.000 A 
ATOM      3  N   UNL     1       1.771   8.255  19.893  0.00  0.00    +0.000 NA
ATOM      4  C   UNL     1       1.050   9.424  19.767  0.00  0.00    +0.000 A 
ATOM      5  N   UNL     1       1.003   9.891  18.508  0.00  0.00    +0.000 NA
ATOM      6  N   UNL     1       1.697   8.961  17.835  0.00  0.00    +0.000 N 
ATOM      7  H   UNL     1       1.786   9.038  16.828  0.00  0.00    +0.000 HD
BRANCH   4   8
ATOM      8  C   UNL     1       0.354  10.023  20.894  0.00  0.00    +0.000 A 
ATOM      9  C   UNL     1      -0.586  11.048  20.738  0.00  0.00    +0.000 A 
ATOM     10  C   UNL     1      -1.266  11.541  21.850  0.00  0.00    +0.000 A 
ATOM     11  C   UNL     1      -0.978  10.998  23.093  0.00  0.00    +0.000 A 
ATOM     12  N   UNL     1      -0.070  10.020  23.291  0.00  0.00    +0.000 NA
ATOM     13  C   UNL     1       0.574   9.559  22.185  0.00  0.00    +0.000 A 
ENDBRANCH   4   8
ENDBRANCH   1   2
BRANCH   1  14
ATOM     14  C   UNL     1       3.344   5.871  19.309  0.00  0.00    +0.000 C 
BRANCH  14  19
ATOM     15  C   UNL     1       3.867   3.632  18.192  0.00  0.00    +0.000 A 
ATOM     16  N   UNL     1       3.361   2.409  18.218  0.00  0.00    +0.000 NA
ATOM     17  C   UNL     1       2.295   2.447  19.074  0.00  0.00    +0.000 A 
ATOM     18  C   UNL     1       2.140   3.706  19.592  0.00  0.00    +0.000 A 
ATOM     19  N   UNL     1       3.146   4.457  19.033  0.00  0.00    +0.000 N 
BRANCH  15  24
ATOM     20  C   UNL     1       6.402   4.258  14.060  0.00  0.00    +0.000 C 
ATOM     21  C   UNL     1       6.198   4.320  15.528  0.00  0.00    +0.000 A 
ATOM     22  C   UNL     1       7.120   4.723  16.474  0.00  0.00    +0.000 A 
ATOM     23  S   UNL     1       6.437   4.630  18.039  0.00  0.00    +0.000 S 
ATOM     24  C   UNL     1       4.974   4.027  17.359  0.00  0.00    +0.000 A 
ATOM     25  N   UNL     1       4.974   3.919  16.044  0.00  0.00    +0.000 NA
ENDBRANCH  15  24
ENDBRANCH  14  19
ENDBRANCH   1  14
TORSDOF 5
ENDMDL
MODEL 7
REMARK VINA RESULT:      -7.6      3.066      7.940
REMARK  Name = 
REMARK  6 active torsions:
REMARK  status: ('A' for Active; 'I' for Inactive)
REMARK    1  A    between atoms: C_1  and  C_2
REMARK    2  A    between atoms: C_5  and  C_6
REMARK    3  A    between atoms: N_10  and  C_11
REMARK    4  A    between atoms: C_11  and  C_12
REMARK    5  A    between atoms: C_12  and  C_13
REMARK    6  A    between atoms: C_15  and  C_16
REMARK                            x       y       z     vdW  Elec       q    Type
REMARK                         _______ _______ _______ _____ _____    ______ ____
ROOT
ATOM      1  C   UNL     1       3.056   7.590  17.644  0.00  0.00    +0.000 C 
ENDROOT
BRANCH   1   2
ATOM      2  C   UNL     1       2.273   7.802  18.890  0.00  0.00    +0.000 A 
ATOM      3  N   UNL     1       1.518   8.832  19.208  0.00  0.00    +0.000 NA
ATOM      4  C   UNL     1       1.159   8.596  20.519  0.00  0.00    +0.000 A 
ATOM      5  N   UNL     1       1.634   7.436  21.004  0.00  0.00    +0.000 NA
ATOM      6  N   UNL     1       2.330   6.958  19.961  0.00  0.00    +0.000 N 
ATOM      7  H   UNL     1       2.845   6.090  20.063  0.00  0.00    +0.000 HD
BRANCH   4   8
ATOM      8  C   UNL     1       0.408   9.567  21.298  0.00  0.00    +0.000 A 
ATOM      9  C   UNL     1      -0.298  10.620  20.707  0.00  0.00    +0.000 A 
ATOM     10  C   UNL     1      -1.050  11.484  21.502  0.00  0.00    +0.000 A 
ATOM     11  C   UNL     1      -1.066  11.273  22.873  0.00  0.00    +0.000 A 
ATOM     12  N   UNL     1      -0.388  10.280  23.485  0.00  0.00    +0.000 NA
ATOM     13  C   UNL     1       0.333   9.453  22.681  0.00  0.00    +0.000 A 
ENDBRANCH   4   8
ENDBRANCH   1   2
BRANCH   1  14
ATOM     14  C   UNL     1       4.412   6.944  17.910  0.00  0.00    +0.000 C 
BRANCH  14  19
ATOM     15  C   UNL     1       4.465   4.641  16.803  0.00  0.00    +0.000 A 
ATOM     16  N   UNL     1       4.978   4.123  15.698  0.00  0.00    +0.000 NA
ATOM     17  C   UNL     1       5.630   5.140  15.057  0.00  0.00    +0.000 A 
ATOM     18  C   UNL     1       5.515   6.307  15.767  0.00  0.00    +0.000 A 
ATOM     19  N   UNL     1       4.767   5.987  16.875  0.00  0.00    +0.000 N 
BRANCH  15  24
ATOM     20  C   UNL     1       0.634   2.423  18.874  0.00  0.00    +0.000 C 
ATOM     21  C   UNL     1       2.047   2.869  18.806  0.00  0.00    +0.000 A 
ATOM     22  C   UNL     1       3.013   2.703  19.779  0.00  0.00    +0.000 A 
ATOM     23  S   UNL     1       4.495   3.379  19.258  0.00  0.00    +0.000 S 
ATOM     24  C   UNL     1       3.746   3.878  17.790  0.00  0.00    +0.000 A 
ATOM     25  N   UNL     1       2.474   3.547  17.674  0.00  0.00    +0.000 NA
ENDBRANCH  15  24
ENDBRANCH  14  19
ENDBRANCH   1  14
TORSDOF 5
ENDMDL
MODEL 8
REMARK VINA RESULT:      -7.6      3.176      7.974
REMARK  Name = 
REMARK  6 active torsions:
REMARK  status: ('A' for Active; 'I' for Inactive)
REMARK    1  A    between atoms: C_1  and  C_2
REMARK    2  A    between atoms: C_5  and  C_6
REMARK    3  A    between atoms: N_10  and  C_11
REMARK    4  A    between atoms: C_11  and  C_12
REMARK    5  A    between atoms: C_12  and  C_13
REMARK    6  A    between atoms: C_15  and  C_16
REMARK                            x       y       z     vdW  Elec       q    Type
REMARK                         _______ _______ _______ _____ _____    ______ ____
ROOT
ATOM      1  C   UNL     1       2.895   6.416  18.795  0.00  0.00    +0.000 C 
ENDROOT
BRANCH   1   2
ATOM      2  C   UNL     1       2.198   7.680  19.152  0.00  0.00    +0.000 A 
ATOM      3  N   UNL     1       1.692   8.027  20.316  0.00  0.00    +0.000 NA
ATOM      4  C   UNL     1       1.032   9.210  20.058  0.00  0.00    +0.000 A 
ATOM      5  N   UNL     1       1.150   9.623  18.784  0.00  0.00    +0.000 NA
ATOM      6  N   UNL     1       1.887   8.645  18.237  0.00  0.00    +0.000 N 
ATOM      7  H   UNL     1       2.098   8.676  17.246  0.00  0.00    +0.000 HD
BRANCH   4   8
ATOM      8  C   UNL     1       0.227   9.878  21.067  0.00  0.00    +0.000 A 
ATOM      9  C   UNL     1       0.024   9.341  22.343  0.00  0.00    +0.000 A 
ATOM     10  C   UNL     1      -0.707  10.056  23.289  0.00  0.00    +0.000 A 
ATOM     11  C   UNL     1      -1.224  11.291  22.927  0.00  0.00    +0.000 A 
ATOM     12  N   UNL     1      -1.066  11.840  21.704  0.00  0.00    +0.000 NA
ATOM     13  C   UNL     1      -0.345  11.117  20.805  0.00  0.00    +0.000 A 
ENDBRANCH   4   8
ENDBRANCH   1   2
BRANCH   1  14
ATOM     14  C   UNL     1       2.788   5.361  19.892  0.00  0.00    +0.000 C 
BRANCH  14  19
ATOM     15  C   UNL     1       3.855   3.409  18.633  0.00  0.00    +0.000 A 
ATOM     16  N   UNL     1       3.511   2.170  18.319  0.00  0.00    +0.000 NA
ATOM     17  C   UNL     1       2.255   1.975  18.828  0.00  0.00    +0.000 A 
ATOM     18  C   UNL     1       1.818   3.103  19.472  0.00  0.00    +0.000 A 
ATOM     19  N   UNL     1       2.841   4.012  19.351  0.00  0.00    +0.000 N 
BRANCH  15  24
ATOM     20  C   UNL     1       8.118   5.741  19.164  0.00  0.00    +0.000 C 
ATOM     21  C   UNL     1       7.026   5.108  18.385  0.00  0.00    +0.000 A 
ATOM     22  C   UNL     1       6.923   5.045  17.009  0.00  0.00    +0.000 A 
ATOM     23  S   UNL     1       5.495   4.217  16.563  0.00  0.00    +0.000 S 
ATOM     24  C   UNL     1       5.091   4.027  18.226  0.00  0.00    +0.000 A 
ATOM     25  N   UNL     1       5.971   4.527  19.073  0.00  0.00    +0.000 NA
ENDBRANCH  15  24
ENDBRANCH  14  19
ENDBRANCH   1  14
TORSDOF 5
ENDMDL
MODEL 9
REMARK VINA RESULT:      -7.5      3.179      7.886
REMARK  Name = 
REMARK  6 active torsions:
REMARK  status: ('A' for Active; 'I' for Inactive)
REMARK    1  A    between atoms: C_1  and  C_2
REMARK    2  A    between atoms: C_5  and  C_6
REMARK    3  A    between atoms: N_10  and  C_11
REMARK    4  A    between atoms: C_11  and  C_12
REMARK    5  A    between atoms: C_12  and  C_13
REMARK    6  A    between atoms: C_15  and  C_16
REMARK                            x       y       z     vdW  Elec       q    Type
REMARK                         _______ _______ _______ _____ _____    ______ ____
ROOT
ATOM      1  C   UNL     1       3.129   6.715  18.500  0.00  0.00    +0.000 C 
ENDROOT
BRANCH   1   2
ATOM      2  C   UNL     1       2.225   7.506  19.377  0.00  0.00    +0.000 A 
ATOM      3  N   UNL     1       1.599   8.629  19.094  0.00  0.00    +0.000 NA
ATOM      4  C   UNL     1       1.034   9.011  20.293  0.00  0.00    +0.000 A 
ATOM      5  N   UNL     1       1.257   8.140  21.292  0.00  0.00    +0.000 NA
ATOM      6  N   UNL     1       2.007   7.205  20.690  0.00  0.00    +0.000 N 
ATOM      7  H   UNL     1       2.366   6.428  21.235  0.00  0.00    +0.000 HD
BRANCH   4   8
ATOM      8  C   UNL     1       0.340  10.279  20.447  0.00  0.00    +0.000 A 
ATOM      9  C   UNL     1      -0.732  10.653  19.630  0.00  0.00    +0.000 A 
ATOM     10  C   UNL     1      -1.397  11.855  19.865  0.00  0.00    +0.000 A 
ATOM     11  C   UNL     1      -0.961  12.657  20.909  0.00  0.00    +0.000 A 
ATOM     12  N   UNL     1       0.078  12.343  21.711  0.00  0.00    +0.000 NA
ATOM     13  C   UNL     1       0.703  11.162  21.457  0.00  0.00    +0.000 A 
ENDBRANCH   4   8
ENDBRANCH   1   2
BRANCH   1  14
ATOM     14  C   UNL     1       2.556   5.343  18.157  0.00  0.00    +0.000 C 
BRANCH  14  19
ATOM     15  C   UNL     1       4.467   3.725  18.669  0.00  0.00    +0.000 A 
ATOM     16  N   UNL     1       4.703   2.776  19.560  0.00  0.00    +0.000 NA
ATOM     17  C   UNL     1       3.594   2.707  20.359  0.00  0.00    +0.000 A 
ATOM     18  C   UNL     1       2.661   3.629  19.964  0.00  0.00    +0.000 A 
ATOM     19  N   UNL     1       3.222   4.281  18.892  0.00  0.00    +0.000 N 
BRANCH  15  24
ATOM     20  C   UNL     1       6.174   3.936  14.094  0.00  0.00    +0.000 C 
ATOM     21  C   UNL     1       6.225   4.186  15.555  0.00  0.00    +0.000 A 
ATOM     22  C   UNL     1       7.260   4.775  16.256  0.00  0.00    +0.000 A 
ATOM     23  S   UNL     1       6.873   4.854  17.920  0.00  0.00    +0.000 S 
ATOM     24  C   UNL     1       5.372   4.071  17.603  0.00  0.00    +0.000 A 
ATOM     25  N   UNL     1       5.151   3.783  16.335  0.00  0.00    +0.000 NA
ENDBRANCH  15  24
ENDBRANCH  14  19
ENDBRANCH   1  14
TORSDOF 5
ENDMDL
