MODEL 1
REMARK VINA RESULT:      -6.5      0.000      0.000
REMARK  Name = 
REMARK  5 active torsions:
REMARK  status: ('A' for Active; 'I' for Inactive)
REMARK    1  A    between atoms: C_1  and  O_2
REMARK    2  A    between atoms: O_2  and  C_3
REMARK    3  A    between atoms: N_5  and  C_6
REMARK    4  A    between atoms: N_13  and  S_14
REMARK    5  A    between atoms: S_14  and  C_17
REMARK                            x       y       z     vdW  Elec       q    Type
REMARK                         _______ _______ _______ _____ _____    ______ ____
ROOT
ATOM      1  C   UNL     1      -0.606  14.668  19.481  0.00  0.00    +0.000 A 
ATOM      2  N   UNL     1      -0.721  15.992  19.527  0.00  0.00    +0.000 NA
ATOM      3  N   UNL     1       0.480  16.421  19.079  0.00  0.00    +0.000 N 
ATOM      4  C   UNL     1       0.718  17.836  18.935  0.00  0.00    +0.000 C 
ATOM      5  C   UNL     1       1.342  15.397  18.772  0.00  0.00    +0.000 A 
ATOM      6  N   UNL     1       2.615  15.486  18.349  0.00  0.00    +0.000 NA
ATOM      7  C   UNL     1       3.170  14.282  18.141  0.00  0.00    +0.000 A 
ATOM      8  N   UNL     1       4.507  14.255  17.803  0.00  0.00    +0.000 N 
ATOM      9  N   UNL     1       2.556  13.091  18.202  0.00  0.00    +0.000 NA
ATOM     10  C   UNL     1       1.277  13.057  18.612  0.00  0.00    +0.000 A 
ATOM     11  N   UNL     1       0.657  11.804  18.494  0.00  0.00    +0.000 N 
ATOM     12  C   UNL     1       0.624  14.230  18.960  0.00  0.00    +0.000 A 
ATOM     13  H   UNL     1       4.791  15.117  17.362  0.00  0.00    +0.000 HD
ATOM     14  H   UNL     1       4.739  13.389  17.338  0.00  0.00    +0.000 HD
ATOM     15  H   UNL     1      -0.060  11.673  17.786  0.00  0.00    +0.000 HD
ENDROOT
BRANCH  11  16
ATOM     16  S   UNL     1       0.551  10.818  19.829  0.00  0.00    +0.000 S 
ATOM     17  O   UNL     1       1.319  11.406  20.906  0.00  0.00    +0.000 OA
ATOM     18  O   UNL     1      -0.846  10.490  20.020  0.00  0.00    +0.000 OA
BRANCH  16  19
ATOM     19  C   UNL     1       1.369   9.332  19.310  0.00  0.00    +0.000 A 
ATOM     20  C   UNL     1       1.976   9.334  18.044  0.00  0.00    +0.000 A 
ATOM     21  C   UNL     1       2.670   8.213  17.594  0.00  0.00    +0.000 A 
ATOM     22  C   UNL     1       2.767   7.091  18.409  0.00  0.00    +0.000 A 
ATOM     23  C   UNL     1       2.171   7.085  19.676  0.00  0.00    +0.000 A 
ATOM     24 CL   UNL     1       2.366   5.642  20.617  0.00  0.00    +0.000 Cl
ATOM     25  C   UNL     1       1.461   8.207  20.143  0.00  0.00    +0.000 A 
ATOM     26 CL   UNL     1       0.725   8.152  21.714  0.00  0.00    +0.000 Cl
ENDBRANCH  16  19
ENDBRANCH  11  16
BRANCH   1  28
ATOM     27  C   UNL     1      -2.240  14.377  21.095  0.00  0.00    +0.000 C 
ATOM     28  O   UNL     1      -1.619  13.884  19.907  0.00  0.00    +0.000 OA
ENDBRANCH   1  28
TORSDOF 3
ENDMDL
MODEL 2
REMARK VINA RESULT:      -6.3      5.214      8.421
REMARK  Name = 
REMARK  5 active torsions:
REMARK  status: ('A' for Active; 'I' for Inactive)
REMARK    1  A    between atoms: C_1  and  O_2
REMARK    2  A    between atoms: O_2  and  C_3
REMARK    3  A    between atoms: N_5  and  C_6
REMARK    4  A    between atoms: N_13  and  S_14
REMARK    5  A    between atoms: S_14  and  C_17
REMARK                            x       y       z     vdW  Elec       q    Type
REMARK                         _______ _______ _______ _____ _____    ______ ____
ROOT
ATOM      1  C   UNL     1       2.334   4.562  18.860  0.00  0.00    +0.000 A 
ATOM      2  N   UNL     1       2.451   3.237  18.815  0.00  0.00    +0.000 NA
ATOM      3  N   UNL     1       3.453   3.048  17.928  0.00  0.00    +0.000 N 
ATOM      4  C   UNL     1       3.910   1.708  17.652  0.00  0.00    +0.000 C 
ATOM      5  C   UNL     1       3.947   4.218  17.408  0.00  0.00    +0.000 A 
ATOM      6  N   UNL     1       4.904   4.371  16.477  0.00  0.00    +0.000 NA
ATOM      7  C   UNL     1       5.146   5.662  16.198  0.00  0.00    +0.000 A 
ATOM      8  N   UNL     1       6.039   5.929  15.181  0.00  0.00    +0.000 N 
ATOM      9  N   UNL     1       4.628   6.730  16.821  0.00  0.00    +0.000 NA
ATOM     10  C   UNL     1       3.687   6.524  17.759  0.00  0.00    +0.000 A 
ATOM     11  N   UNL     1       3.315   7.670  18.477  0.00  0.00    +0.000 N 
ATOM     12  C   UNL     1       3.274   5.235  18.062  0.00  0.00    +0.000 A 
ATOM     13  H   UNL     1       6.691   5.170  15.057  0.00  0.00    +0.000 HD
ATOM     14  H   UNL     1       6.414   6.863  15.276  0.00  0.00    +0.000 HD
ATOM     15  H   UNL     1       3.594   7.756  19.450  0.00  0.00    +0.000 HD
ENDROOT
BRANCH  11  16
ATOM     16  S   UNL     1       1.937   8.492  18.041  0.00  0.00    +0.000 S 
ATOM     17  O   UNL     1       2.315   9.691  17.325  0.00  0.00    +0.000 OA
ATOM     18  O   UNL     1       1.028   7.537  17.443  0.00  0.00    +0.000 OA
BRANCH  16  19
ATOM     19  C   UNL     1       1.234   8.974  19.597  0.00  0.00    +0.000 A 
ATOM     20  C   UNL     1       1.730   8.349  20.754  0.00  0.00    +0.000 A 
ATOM     21  C   UNL     1       1.250   8.711  22.010  0.00  0.00    +0.000 A 
ATOM     22  C   UNL     1       0.281   9.703  22.117  0.00  0.00    +0.000 A 
ATOM     23  C   UNL     1      -0.212  10.335  20.969  0.00  0.00    +0.000 A 
ATOM     24 CL   UNL     1      -1.405  11.568  21.215  0.00  0.00    +0.000 Cl
ATOM     25  C   UNL     1       0.258   9.976  19.692  0.00  0.00    +0.000 A 
ATOM     26 CL   UNL     1      -0.391  10.775  18.293  0.00  0.00    +0.000 Cl
ENDBRANCH  16  19
ENDBRANCH  11  16
BRANCH   1  28
ATOM     27  C   UNL     1       1.077   4.370  20.795  0.00  0.00    +0.000 C 
ATOM     28  O   UNL     1       1.380   5.132  19.626  0.00  0.00    +0.000 OA
ENDBRANCH   1  28
TORSDOF 3
ENDMDL
MODEL 3
REMARK VINA RESULT:      -6.0      4.061      4.807
REMARK  Name = 
REMARK  5 active torsions:
REMARK  status: ('A' for Active; 'I' for Inactive)
REMARK    1  A    between atoms: C_1  and  O_2
REMARK    2  A    between atoms: O_2  and  C_3
REMARK    3  A    between atoms: N_5  and  C_6
REMARK    4  A    between atoms: N_13  and  S_14
REMARK    5  A    between atoms: S_14  and  C_17
REMARK                            x       y       z     vdW  Elec       q    Type
REMARK                         _______ _______ _______ _____ _____    ______ ____
ROOT
ATOM      1  C   UNL     1      -4.139  12.281  19.387  0.00  0.00    +0.000 A 
ATOM      2  N   UNL     1      -5.271  12.932  19.128  0.00  0.00    +0.000 NA
ATOM      3  N   UNL     1      -5.522  12.609  17.840  0.00  0.00    +0.000 N 
ATOM      4  C   UNL     1      -6.725  13.097  17.210  0.00  0.00    +0.000 C 
ATOM      5  C   UNL     1      -4.568  11.791  17.289  0.00  0.00    +0.000 A 
ATOM      6  N   UNL     1      -4.501  11.331  16.028  0.00  0.00    +0.000 NA
ATOM      7  C   UNL     1      -3.430  10.548  15.824  0.00  0.00    +0.000 A 
ATOM      8  N   UNL     1      -3.209  10.105  14.537  0.00  0.00    +0.000 N 
ATOM      9  N   UNL     1      -2.555  10.125  16.749  0.00  0.00    +0.000 NA
ATOM     10  C   UNL     1      -2.676  10.599  18.000  0.00  0.00    +0.000 A 
ATOM     11  N   UNL     1      -1.833   9.989  18.942  0.00  0.00    +0.000 N 
ATOM     12  C   UNL     1      -3.683  11.501  18.312  0.00  0.00    +0.000 A 
ATOM     13  H   UNL     1      -4.067  10.075  14.007  0.00  0.00    +0.000 HD
ATOM     14  H   UNL     1      -2.628   9.278  14.541  0.00  0.00    +0.000 HD
ATOM     15  H   UNL     1      -2.237   9.373  19.640  0.00  0.00    +0.000 HD
ENDROOT
BRANCH  11  16
ATOM     16  S   UNL     1      -0.411  10.740  19.368  0.00  0.00    +0.000 S 
ATOM     17  O   UNL     1      -0.174  11.842  18.460  0.00  0.00    +0.000 OA
ATOM     18  O   UNL     1      -0.445  10.962  20.798  0.00  0.00    +0.000 OA
BRANCH  16  19
ATOM     19  C   UNL     1       0.818   9.497  19.064  0.00  0.00    +0.000 A 
ATOM     20  C   UNL     1       1.623   9.646  17.922  0.00  0.00    +0.000 A 
ATOM     21  C   UNL     1       2.633   8.728  17.647  0.00  0.00    +0.000 A 
ATOM     22  C   UNL     1       2.850   7.663  18.515  0.00  0.00    +0.000 A 
ATOM     23  C   UNL     1       2.056   7.513  19.659  0.00  0.00    +0.000 A 
ATOM     24 CL   UNL     1       2.421   6.161  20.682  0.00  0.00    +0.000 Cl
ATOM     25  C   UNL     1       1.027   8.428  19.948  0.00  0.00    +0.000 A 
ATOM     26 CL   UNL     1       0.057   8.196  21.369  0.00  0.00    +0.000 Cl
ENDBRANCH  16  19
ENDBRANCH  11  16
BRANCH   1  28
ATOM     27  C   UNL     1      -4.468  12.738  21.633  0.00  0.00    +0.000 C 
ATOM     28  O   UNL     1      -3.547  12.405  20.594  0.00  0.00    +0.000 OA
ENDBRANCH   1  28
TORSDOF 3
ENDMDL
MODEL 4
REMARK VINA RESULT:      -6.0      5.340      7.541
REMARK  Name = 
REMARK  5 active torsions:
REMARK  status: ('A' for Active; 'I' for Inactive)
REMARK    1  A    between atoms: C_1  and  O_2
REMARK    2  A    between atoms: O_2  and  C_3
REMARK    3  A    between atoms: N_5  and  C_6
REMARK    4  A    between atoms: N_13  and  S_14
REMARK    5  A    between atoms: S_14  and  C_17
REMARK                            x       y       z     vdW  Elec       q    Type
REMARK                         _______ _______ _______ _____ _____    ______ ____
ROOT
ATOM      1  C   UNL     1       6.652  17.217  18.989  0.00  0.00    +0.000 A 
ATOM      2  N   UNL     1       7.756  17.883  19.318  0.00  0.00    +0.000 NA
ATOM      3  N   UNL     1       8.740  16.993  19.057  0.00  0.00    +0.000 N 
ATOM      4  C   UNL     1      10.115  17.385  19.244  0.00  0.00    +0.000 C 
ATOM      5  C   UNL     1       8.274  15.789  18.592  0.00  0.00    +0.000 A 
ATOM      6  N   UNL     1       8.984  14.689  18.287  0.00  0.00    +0.000 NA
ATOM      7  C   UNL     1       8.208  13.681  17.857  0.00  0.00    +0.000 A 
ATOM      8  N   UNL     1       8.824  12.472  17.614  0.00  0.00    +0.000 N 
ATOM      9  N   UNL     1       6.889  13.729  17.614  0.00  0.00    +0.000 NA
ATOM     10  C   UNL     1       6.228  14.857  17.919  0.00  0.00    +0.000 A 
ATOM     11  N   UNL     1       4.893  14.890  17.486  0.00  0.00    +0.000 N 
ATOM     12  C   UNL     1       6.903  15.936  18.470  0.00  0.00    +0.000 A 
ATOM     13  H   UNL     1       9.801  12.596  17.393  0.00  0.00    +0.000 HD
ATOM     14  H   UNL     1       8.266  11.910  16.986  0.00  0.00    +0.000 HD
ATOM     15  H   UNL     1       4.637  15.505  16.720  0.00  0.00    +0.000 HD
ENDROOT
BRANCH  11  16
ATOM     16  S   UNL     1       3.680  14.523  18.561  0.00  0.00    +0.000 S 
ATOM     17  O   UNL     1       3.094  13.253  18.190  0.00  0.00    +0.000 OA
ATOM     18  O   UNL     1       4.201  14.727  19.896  0.00  0.00    +0.000 OA
BRANCH  16  19
ATOM     19  C   UNL     1       2.476  15.794  18.274  0.00  0.00    +0.000 A 
ATOM     20  C   UNL     1       2.788  16.780  17.323  0.00  0.00    +0.000 A 
ATOM     21  C   UNL     1       1.870  17.783  17.021  0.00  0.00    +0.000 A 
ATOM     22  C   UNL     1       0.635  17.800  17.658  0.00  0.00    +0.000 A 
ATOM     23  C   UNL     1       0.314  16.815  18.601  0.00  0.00    +0.000 A 
ATOM     24 CL   UNL     1      -1.258  16.919  19.324  0.00  0.00    +0.000 Cl
ATOM     25  C   UNL     1       1.233  15.799  18.923  0.00  0.00    +0.000 A 
ATOM     26 CL   UNL     1       0.799  14.607  20.108  0.00  0.00    +0.000 Cl
ENDBRANCH  16  19
ENDBRANCH  11  16
BRANCH   1  28
ATOM     27  C   UNL     1       5.132  18.028  20.537  0.00  0.00    +0.000 C 
ATOM     28  O   UNL     1       5.440  17.787  19.163  0.00  0.00    +0.000 OA
ENDBRANCH   1  28
TORSDOF 3
ENDMDL
MODEL 5
REMARK VINA RESULT:      -6.0      4.413      7.754
REMARK  Name = 
REMARK  5 active torsions:
REMARK  status: ('A' for Active; 'I' for Inactive)
REMARK    1  A    between atoms: C_1  and  O_2
REMARK    2  A    between atoms: O_2  and  C_3
REMARK    3  A    between atoms: N_5  and  C_6
REMARK    4  A    between atoms: N_13  and  S_14
REMARK    5  A    between atoms: S_14  and  C_17
REMARK                            x       y       z     vdW  Elec       q    Type
REMARK                         _______ _______ _______ _____ _____    ______ ____
ROOT
ATOM      1  C   UNL     1      -0.043  10.626  21.520  0.00  0.00    +0.000 A 
ATOM      2  N   UNL     1       0.863   9.790  21.019  0.00  0.00    +0.000 NA
ATOM      3  N   UNL     1       0.597   9.807  19.694  0.00  0.00    +0.000 N 
ATOM      4  C   UNL     1       1.428   9.042  18.796  0.00  0.00    +0.000 C 
ATOM      5  C   UNL     1      -0.460  10.617  19.362  0.00  0.00    +0.000 A 
ATOM      6  N   UNL     1      -1.001  10.815  18.148  0.00  0.00    +0.000 NA
ATOM      7  C   UNL     1      -2.029  11.678  18.180  0.00  0.00    +0.000 A 
ATOM      8  N   UNL     1      -2.723  11.874  17.004  0.00  0.00    +0.000 N 
ATOM      9  N   UNL     1      -2.446  12.394  19.235  0.00  0.00    +0.000 NA
ATOM     10  C   UNL     1      -1.860  12.172  20.423  0.00  0.00    +0.000 A 
ATOM     11  N   UNL     1      -2.232  13.070  21.436  0.00  0.00    +0.000 N 
ATOM     12  C   UNL     1      -0.854  11.226  20.541  0.00  0.00    +0.000 A 
ATOM     13  H   UNL     1      -2.144  11.680  16.200  0.00  0.00    +0.000 HD
ATOM     14  H   UNL     1      -3.217  12.755  17.027  0.00  0.00    +0.000 HD
ATOM     15  H   UNL     1      -1.557  13.755  21.762  0.00  0.00    +0.000 HD
ENDROOT
BRANCH  11  16
ATOM     16  S   UNL     1      -3.400  12.621  22.532  0.00  0.00    +0.000 S 
ATOM     17  O   UNL     1      -4.570  12.168  21.809  0.00  0.00    +0.000 OA
ATOM     18  O   UNL     1      -2.771  11.768  23.517  0.00  0.00    +0.000 OA
BRANCH  16  19
ATOM     19  C   UNL     1      -3.808  14.144  23.346  0.00  0.00    +0.000 A 
ATOM     20  C   UNL     1      -5.149  14.561  23.308  0.00  0.00    +0.000 A 
ATOM     21  C   UNL     1      -5.543  15.725  23.962  0.00  0.00    +0.000 A 
ATOM     22  C   UNL     1      -4.603  16.473  24.663  0.00  0.00    +0.000 A 
ATOM     23  C   UNL     1      -3.266  16.059  24.711  0.00  0.00    +0.000 A 
ATOM     24 CL   UNL     1      -2.179  17.053  25.626  0.00  0.00    +0.000 Cl
ATOM     25  C   UNL     1      -2.850  14.888  24.051  0.00  0.00    +0.000 A 
ATOM     26 CL   UNL     1      -1.180  14.418  24.124  0.00  0.00    +0.000 Cl
ENDBRANCH  16  19
ENDBRANCH  11  16
BRANCH   1  28
ATOM     27  C   UNL     1      -0.005   9.624  23.606  0.00  0.00    +0.000 C 
ATOM     28  O   UNL     1      -0.113  10.832  22.852  0.00  0.00    +0.000 OA
ENDBRANCH   1  28
TORSDOF 3
ENDMDL
MODEL 6
REMARK VINA RESULT:      -5.9      3.452      4.431
REMARK  Name = 
REMARK  5 active torsions:
REMARK  status: ('A' for Active; 'I' for Inactive)
REMARK    1  A    between atoms: C_1  and  O_2
REMARK    2  A    between atoms: O_2  and  C_3
REMARK    3  A    between atoms: N_5  and  C_6
REMARK    4  A    between atoms: N_13  and  S_14
REMARK    5  A    between atoms: S_14  and  C_17
REMARK                            x       y       z     vdW  Elec       q    Type
REMARK                         _______ _______ _______ _____ _____    ______ ____
ROOT
ATOM      1  C   UNL     1      -2.431  11.413  19.394  0.00  0.00    +0.000 A 
ATOM      2  N   UNL     1      -3.595  11.894  18.965  0.00  0.00    +0.000 NA
ATOM      3  N   UNL     1      -3.956  12.747  19.949  0.00  0.00    +0.000 N 
ATOM      4  C   UNL     1      -5.169  13.516  19.809  0.00  0.00    +0.000 C 
ATOM      5  C   UNL     1      -3.057  12.794  20.984  0.00  0.00    +0.000 A 
ATOM      6  N   UNL     1      -3.144  13.501  22.124  0.00  0.00    +0.000 NA
ATOM      7  C   UNL     1      -2.082  13.315  22.924  0.00  0.00    +0.000 A 
ATOM      8  N   UNL     1      -2.117  13.913  24.166  0.00  0.00    +0.000 N 
ATOM      9  N   UNL     1      -0.969  12.624  22.637  0.00  0.00    +0.000 NA
ATOM     10  C   UNL     1      -0.923  11.950  21.475  0.00  0.00    +0.000 A 
ATOM     11  N   UNL     1       0.327  11.390  21.172  0.00  0.00    +0.000 N 
ATOM     12  C   UNL     1      -2.005  11.977  20.608  0.00  0.00    +0.000 A 
ATOM     13  H   UNL     1      -2.716  14.725  24.165  0.00  0.00    +0.000 HD
ATOM     14  H   UNL     1      -1.182  14.018  24.536  0.00  0.00    +0.000 HD
ATOM     15  H   UNL     1       0.877  11.790  20.418  0.00  0.00    +0.000 HD
ENDROOT
BRANCH  11  16
ATOM     16  S   UNL     1       0.600   9.782  21.498  0.00  0.00    +0.000 S 
ATOM     17  O   UNL     1       1.603   9.679  22.536  0.00  0.00    +0.000 OA
ATOM     18  O   UNL     1      -0.689   9.143  21.659  0.00  0.00    +0.000 OA
BRANCH  16  19
ATOM     19  C   UNL     1       1.300   9.168  19.988  0.00  0.00    +0.000 A 
ATOM     20  C   UNL     1       1.470  10.081  18.934  0.00  0.00    +0.000 A 
ATOM     21  C   UNL     1       2.052   9.673  17.736  0.00  0.00    +0.000 A 
ATOM     22  C   UNL     1       2.474   8.356  17.589  0.00  0.00    +0.000 A 
ATOM     23  C   UNL     1       2.314   7.442  18.639  0.00  0.00    +0.000 A 
ATOM     24 CL   UNL     1       2.888   5.831  18.357  0.00  0.00    +0.000 Cl
ATOM     25  C   UNL     1       1.722   7.837  19.853  0.00  0.00    +0.000 A 
ATOM     26 CL   UNL     1       1.530   6.669  21.123  0.00  0.00    +0.000 Cl
ENDBRANCH  16  19
ENDBRANCH  11  16
BRANCH   1  28
ATOM     27  C   UNL     1      -2.606   9.856  17.689  0.00  0.00    +0.000 C 
ATOM     28  O   UNL     1      -1.778  10.476  18.674  0.00  0.00    +0.000 OA
ENDBRANCH   1  28
TORSDOF 3
ENDMDL
MODEL 7
REMARK VINA RESULT:      -5.8      4.560      6.770
REMARK  Name = 
REMARK  5 active torsions:
REMARK  status: ('A' for Active; 'I' for Inactive)
REMARK    1  A    between atoms: C_1  and  O_2
REMARK    2  A    between atoms: O_2  and  C_3
REMARK    3  A    between atoms: N_5  and  C_6
REMARK    4  A    between atoms: N_13  and  S_14
REMARK    5  A    between atoms: S_14  and  C_17
REMARK                            x       y       z     vdW  Elec       q    Type
REMARK                         _______ _______ _______ _____ _____    ______ ____
ROOT
ATOM      1  C   UNL     1      -3.136  11.493  18.542  0.00  0.00    +0.000 A 
ATOM      2  N   UNL     1      -3.710  11.110  17.404  0.00  0.00    +0.000 NA
ATOM      3  N   UNL     1      -2.757  10.349  16.821  0.00  0.00    +0.000 N 
ATOM      4  C   UNL     1      -3.041   9.700  15.564  0.00  0.00    +0.000 C 
ATOM      5  C   UNL     1      -1.603  10.264  17.559  0.00  0.00    +0.000 A 
ATOM      6  N   UNL     1      -0.462   9.628  17.240  0.00  0.00    +0.000 NA
ATOM      7  C   UNL     1       0.475   9.747  18.194  0.00  0.00    +0.000 A 
ATOM      8  N   UNL     1       1.719   9.219  17.924  0.00  0.00    +0.000 N 
ATOM      9  N   UNL     1       0.324  10.307  19.404  0.00  0.00    +0.000 NA
ATOM     10  C   UNL     1      -0.842  10.913  19.682  0.00  0.00    +0.000 A 
ATOM     11  N   UNL     1      -0.984  11.328  21.015  0.00  0.00    +0.000 N 
ATOM     12  C   UNL     1      -1.854  10.951  18.733  0.00  0.00    +0.000 A 
ATOM     13  H   UNL     1       1.662   8.472  17.247  0.00  0.00    +0.000 HD
ATOM     14  H   UNL     1       2.223   9.040  18.782  0.00  0.00    +0.000 HD
ATOM     15  H   UNL     1      -1.636  10.837  21.618  0.00  0.00    +0.000 HD
ENDROOT
BRANCH  11  16
ATOM     16  S   UNL     1      -0.680  12.915  21.410  0.00  0.00    +0.000 S 
ATOM     17  O   UNL     1       0.632  13.003  22.014  0.00  0.00    +0.000 OA
ATOM     18  O   UNL     1      -1.012  13.724  20.256  0.00  0.00    +0.000 OA
BRANCH  16  19
ATOM     19  C   UNL     1      -1.891  13.268  22.658  0.00  0.00    +0.000 A 
ATOM     20  C   UNL     1      -2.816  12.257  22.968  0.00  0.00    +0.000 A 
ATOM     21  C   UNL     1      -3.766  12.455  23.967  0.00  0.00    +0.000 A 
ATOM     22  C   UNL     1      -3.791  13.658  24.665  0.00  0.00    +0.000 A 
ATOM     23  C   UNL     1      -2.867  14.666  24.366  0.00  0.00    +0.000 A 
ATOM     24 CL   UNL     1      -2.974  16.119  25.306  0.00  0.00    +0.000 Cl
ATOM     25  C   UNL     1      -1.904  14.484  23.355  0.00  0.00    +0.000 A 
ATOM     26 CL   UNL     1      -0.786  15.767  23.007  0.00  0.00    +0.000 Cl
ENDBRANCH  16  19
ENDBRANCH  11  16
BRANCH   1  28
ATOM     27  C   UNL     1      -5.208  12.178  19.317  0.00  0.00    +0.000 C 
ATOM     28  O   UNL     1      -3.789  12.321  19.385  0.00  0.00    +0.000 OA
ENDBRANCH   1  28
TORSDOF 3
ENDMDL
MODEL 8
REMARK VINA RESULT:      -5.8      3.642      4.214
REMARK  Name = 
REMARK  5 active torsions:
REMARK  status: ('A' for Active; 'I' for Inactive)
REMARK    1  A    between atoms: C_1  and  O_2
REMARK    2  A    between atoms: O_2  and  C_3
REMARK    3  A    between atoms: N_5  and  C_6
REMARK    4  A    between atoms: N_13  and  S_14
REMARK    5  A    between atoms: S_14  and  C_17
REMARK                            x       y       z     vdW  Elec       q    Type
REMARK                         _______ _______ _______ _____ _____    ______ ____
ROOT
ATOM      1  C   UNL     1      -2.338  12.571  21.502  0.00  0.00    +0.000 A 
ATOM      2  N   UNL     1      -3.328  13.382  21.869  0.00  0.00    +0.000 NA
ATOM      3  N   UNL     1      -4.143  13.377  20.791  0.00  0.00    +0.000 N 
ATOM      4  C   UNL     1      -5.379  14.119  20.836  0.00  0.00    +0.000 C 
ATOM      5  C   UNL     1      -3.677  12.600  19.760  0.00  0.00    +0.000 A 
ATOM      6  N   UNL     1      -4.223  12.423  18.545  0.00  0.00    +0.000 NA
ATOM      7  C   UNL     1      -3.503  11.591  17.775  0.00  0.00    +0.000 A 
ATOM      8  N   UNL     1      -3.920  11.420  16.472  0.00  0.00    +0.000 N 
ATOM      9  N   UNL     1      -2.425  10.884  18.145  0.00  0.00    +0.000 NA
ATOM     10  C   UNL     1      -1.927  11.084  19.377  0.00  0.00    +0.000 A 
ATOM     11  N   UNL     1      -0.907  10.195  19.748  0.00  0.00    +0.000 N 
ATOM     12  C   UNL     1      -2.523  12.000  20.232  0.00  0.00    +0.000 A 
ATOM     13  H   UNL     1      -4.908  11.599  16.377  0.00  0.00    +0.000 HD
ATOM     14  H   UNL     1      -3.559  10.554  16.096  0.00  0.00    +0.000 HD
ATOM     15  H   UNL     1      -1.099   9.489  20.452  0.00  0.00    +0.000 HD
ENDROOT
BRANCH  11  16
ATOM     16  S   UNL     1       0.680  10.674  19.612  0.00  0.00    +0.000 S 
ATOM     17  O   UNL     1       0.790  11.621  18.523  0.00  0.00    +0.000 OA
ATOM     18  O   UNL     1       1.146  11.025  20.937  0.00  0.00    +0.000 OA
BRANCH  16  19
ATOM     19  C   UNL     1       1.522   9.186  19.142  0.00  0.00    +0.000 A 
ATOM     20  C   UNL     1       2.164   9.171  17.892  0.00  0.00    +0.000 A 
ATOM     21  C   UNL     1       2.877   8.048  17.480  0.00  0.00    +0.000 A 
ATOM     22  C   UNL     1       2.959   6.940  18.316  0.00  0.00    +0.000 A 
ATOM     23  C   UNL     1       2.328   6.950  19.566  0.00  0.00    +0.000 A 
ATOM     24 CL   UNL     1       2.506   5.525  20.536  0.00  0.00    +0.000 Cl
ATOM     25  C   UNL     1       1.598   8.075  19.995  0.00  0.00    +0.000 A 
ATOM     26 CL   UNL     1       0.818   8.040  21.546  0.00  0.00    +0.000 Cl
ENDBRANCH  16  19
ENDBRANCH  11  16
BRANCH   1  28
ATOM     27  C   UNL     1      -1.470  11.228  23.177  0.00  0.00    +0.000 C 
ATOM     28  O   UNL     1      -1.291  12.363  22.329  0.00  0.00    +0.000 OA
ENDBRANCH   1  28
TORSDOF 3
ENDMDL
MODEL 9
REMARK VINA RESULT:      -5.7      5.187      8.338
REMARK  Name = 
REMARK  5 active torsions:
REMARK  status: ('A' for Active; 'I' for Inactive)
REMARK    1  A    between atoms: C_1  and  O_2
REMARK    2  A    between atoms: O_2  and  C_3
REMARK    3  A    between atoms: N_5  and  C_6
REMARK    4  A    between atoms: N_13  and  S_14
REMARK    5  A    between atoms: S_14  and  C_17
REMARK                            x       y       z     vdW  Elec       q    Type
REMARK                         _______ _______ _______ _____ _____    ______ ____
ROOT
ATOM      1  C   UNL     1      -2.009  12.276  19.204  0.00  0.00    +0.000 A 
ATOM      2  N   UNL     1      -1.600  11.826  18.020  0.00  0.00    +0.000 NA
ATOM      3  N   UNL     1      -2.743  11.388  17.447  0.00  0.00    +0.000 N 
ATOM      4  C   UNL     1      -2.706  10.866  16.102  0.00  0.00    +0.000 C 
ATOM      5  C   UNL     1      -3.846  11.538  18.250  0.00  0.00    +0.000 A 
ATOM      6  N   UNL     1      -5.112  11.165  17.995  0.00  0.00    +0.000 NA
ATOM      7  C   UNL     1      -5.947  11.465  19.003  0.00  0.00    +0.000 A 
ATOM      8  N   UNL     1      -7.252  11.032  18.889  0.00  0.00    +0.000 N 
ATOM      9  N   UNL     1      -5.655  12.167  20.108  0.00  0.00    +0.000 NA
ATOM     10  C   UNL     1      -4.378  12.534  20.307  0.00  0.00    +0.000 A 
ATOM     11  N   UNL     1      -4.180  13.401  21.393  0.00  0.00    +0.000 N 
ATOM     12  C   UNL     1      -3.400  12.189  19.386  0.00  0.00    +0.000 A 
ATOM     13  H   UNL     1      -7.516  10.915  17.922  0.00  0.00    +0.000 HD
ATOM     14  H   UNL     1      -7.860  11.581  19.481  0.00  0.00    +0.000 HD
ATOM     15  H   UNL     1      -3.937  14.370  21.213  0.00  0.00    +0.000 HD
ENDROOT
BRANCH  11  16
ATOM     16  S   UNL     1      -3.666  12.779  22.847  0.00  0.00    +0.000 S 
ATOM     17  O   UNL     1      -4.788  12.146  23.507  0.00  0.00    +0.000 OA
ATOM     18  O   UNL     1      -2.448  12.037  22.600  0.00  0.00    +0.000 OA
BRANCH  16  19
ATOM     19  C   UNL     1      -3.218  14.222  23.777  0.00  0.00    +0.000 A 
ATOM     20  C   UNL     1      -1.860  14.398  24.087  0.00  0.00    +0.000 A 
ATOM     21  C   UNL     1      -1.436  15.530  24.779  0.00  0.00    +0.000 A 
ATOM     22  C   UNL     1      -2.364  16.493  25.156  0.00  0.00    +0.000 A 
ATOM     23  C   UNL     1      -3.720  16.328  24.844  0.00  0.00    +0.000 A 
ATOM     24 CL   UNL     1      -4.790  17.596  25.346  0.00  0.00    +0.000 Cl
ATOM     25  C   UNL     1      -4.165  15.187  24.151  0.00  0.00    +0.000 A 
ATOM     26 CL   UNL     1      -5.856  15.015  23.797  0.00  0.00    +0.000 Cl
ENDBRANCH  16  19
ENDBRANCH  11  16
BRANCH   1  28
ATOM     27  C   UNL     1       0.204  12.253  19.882  0.00  0.00    +0.000 C 
ATOM     28  O   UNL     1      -1.114  12.760  20.091  0.00  0.00    +0.000 OA
ENDBRANCH   1  28
TORSDOF 3
ENDMDL
