MODEL 1
REMARK VINA RESULT:      -9.0      0.000      0.000
REMARK  Name = 
REMARK  8 active torsions:
REMARK  status: ('A' for Active; 'I' for Inactive)
REMARK    1  A    between atoms: C_1  and  C_2
REMARK    2  A    between atoms: C_2  and  O_3
REMARK    3  A    between atoms: O_3  and  C_4
REMARK    4  A    between atoms: C_4  and  N_5
REMARK    5  A    between atoms: C_8  and  C_9
REMARK    6  A    between atoms: N_14  and  C_15
REMARK    7  A    between atoms: C_15  and  C_16
REMARK    8  A    between atoms: C_23  and  C_24
REMARK                            x       y       z     vdW  Elec       q    Type
REMARK                         _______ _______ _______ _____ _____    ______ ____
ROOT
ATOM      1  N   UNL     1       5.820   4.178  14.128  0.00  0.00    +0.000 N 
ATOM      2  N   UNL     1       6.954   4.651  13.564  0.00  0.00    +0.000 NA
ATOM      3  N   UNL     1       7.608   5.339  14.485  0.00  0.00    +0.000 NA
ATOM      4  C   UNL     1       6.884   5.286  15.647  0.00  0.00    +0.000 A 
ATOM      5  C   UNL     1       5.692   4.591  15.442  0.00  0.00    +0.000 A 
ENDROOT
BRANCH   4   6
ATOM      6  C   UNL     1       7.372   5.875  16.886  0.00  0.00    +0.000 A 
ATOM      7  C   UNL     1       7.558   5.096  18.003  0.00  0.00    +0.000 A 
ATOM      8  C   UNL     1       7.997   5.764  19.114  0.00  0.00    +0.000 A 
ATOM      9  N   UNL     1       8.235   7.091  19.141  0.00  0.00    +0.000 NA
ATOM     10  C   UNL     1       8.011   7.774  18.012  0.00  0.00    +0.000 A 
ATOM     11  N   UNL     1       8.188   9.143  17.972  0.00  0.00    +0.000 N 
ATOM     12  N   UNL     1       7.594   7.210  16.877  0.00  0.00    +0.000 NA
ATOM     13  H   UNL     1       8.318   9.422  17.006  0.00  0.00    +0.000 HD
BRANCH  11  14
ATOM     14  C   UNL     1       9.106   9.706  18.936  0.00  0.00    +0.000 C 
BRANCH  14  15
ATOM     15  C   UNL     1       9.638  11.014  18.393  0.00  0.00    +0.000 A 
ATOM     16  C   UNL     1       8.752  12.028  17.992  0.00  0.00    +0.000 A 
ATOM     17  C   UNL     1       9.233  13.223  17.460  0.00  0.00    +0.000 A 
ATOM     18  C   UNL     1      10.604  13.420  17.312  0.00  0.00    +0.000 A 
ATOM     19  C   UNL     1      11.496  12.418  17.698  0.00  0.00    +0.000 A 
ATOM     20  C   UNL     1      11.016  11.222  18.234  0.00  0.00    +0.000 A 
ENDBRANCH  14  15
ENDBRANCH  11  14
ENDBRANCH   4   6
BRANCH   5  21
ATOM     21  C   UNL     1       4.563   4.339  16.350  0.00  0.00    +0.000 A 
ATOM     22  C   UNL     1       3.882   5.429  16.925  0.00  0.00    +0.000 A 
ATOM     23  C   UNL     1       2.917   5.237  17.918  0.00  0.00    +0.000 A 
ATOM     24  C   UNL     1       2.585   3.947  18.299  0.00  0.00    +0.000 A 
ATOM     25  F   UNL     1       1.678   3.757  19.266  0.00  0.00    +0.000 F 
ATOM     26  C   UNL     1       3.194   2.850  17.704  0.00  0.00    +0.000 A 
ATOM     27  C   UNL     1       4.191   3.047  16.743  0.00  0.00    +0.000 A 
ENDBRANCH   5  21
BRANCH   1  28
ATOM     28  C   UNL     1       4.984   3.297  13.329  0.00  0.00    +0.000 C 
BRANCH  28  29
ATOM     29  O   UNL     1       4.831   3.841  12.020  0.00  0.00    +0.000 OA
BRANCH  29  31
ATOM     30  C   UNL     1       3.364   3.909  10.148  0.00  0.00    +0.000 C 
ATOM     31  C   UNL     1       3.982   3.029  11.214  0.00  0.00    +0.000 C 
ENDBRANCH  29  31
ENDBRANCH  28  29
ENDBRANCH   1  28
TORSDOF 7
ENDMDL
MODEL 2
REMARK VINA RESULT:      -8.9      0.437      1.008
REMARK  Name = 
REMARK  8 active torsions:
REMARK  status: ('A' for Active; 'I' for Inactive)
REMARK    1  A    between atoms: C_1  and  C_2
REMARK    2  A    between atoms: C_2  and  O_3
REMARK    3  A    between atoms: O_3  and  C_4
REMARK    4  A    between atoms: C_4  and  N_5
REMARK    5  A    between atoms: C_8  and  C_9
REMARK    6  A    between atoms: N_14  and  C_15
REMARK    7  A    between atoms: C_15  and  C_16
REMARK    8  A    between atoms: C_23  and  C_24
REMARK                            x       y       z     vdW  Elec       q    Type
REMARK                         _______ _______ _______ _____ _____    ______ ____
ROOT
ATOM      1  N   UNL     1       5.931   4.400  14.179  0.00  0.00    +0.000 N 
ATOM      2  N   UNL     1       7.075   4.865  13.629  0.00  0.00    +0.000 NA
ATOM      3  N   UNL     1       7.725   5.543  14.559  0.00  0.00    +0.000 NA
ATOM      4  C   UNL     1       6.989   5.492  15.713  0.00  0.00    +0.000 A 
ATOM      5  C   UNL     1       5.793   4.809  15.493  0.00  0.00    +0.000 A 
ENDROOT
BRANCH   4   6
ATOM      6  C   UNL     1       7.469   6.072  16.960  0.00  0.00    +0.000 A 
ATOM      7  C   UNL     1       7.619   5.290  18.081  0.00  0.00    +0.000 A 
ATOM      8  C   UNL     1       8.054   5.950  19.199  0.00  0.00    +0.000 A 
ATOM      9  N   UNL     1       8.322   7.271  19.228  0.00  0.00    +0.000 NA
ATOM     10  C   UNL     1       8.132   7.957  18.095  0.00  0.00    +0.000 A 
ATOM     11  N   UNL     1       8.341   9.322  18.055  0.00  0.00    +0.000 N 
ATOM     12  N   UNL     1       7.722   7.401  16.953  0.00  0.00    +0.000 NA
ATOM     13  H   UNL     1       8.494   9.596  17.092  0.00  0.00    +0.000 HD
BRANCH  11  14
ATOM     14  C   UNL     1       9.256   9.865  19.035  0.00  0.00    +0.000 C 
BRANCH  14  15
ATOM     15  C   UNL     1       9.838  11.152  18.492  0.00  0.00    +0.000 A 
ATOM     16  C   UNL     1      11.229  11.312  18.386  0.00  0.00    +0.000 A 
ATOM     17  C   UNL     1      11.774  12.507  17.918  0.00  0.00    +0.000 A 
ATOM     18  C   UNL     1      10.938  13.561  17.558  0.00  0.00    +0.000 A 
ATOM     19  C   UNL     1       9.554  13.420  17.666  0.00  0.00    +0.000 A 
ATOM     20  C   UNL     1       9.006  12.224  18.132  0.00  0.00    +0.000 A 
ENDBRANCH  14  15
ENDBRANCH  11  14
ENDBRANCH   4   6
BRANCH   5  21
ATOM     21  C   UNL     1       4.652   4.564  16.388  0.00  0.00    +0.000 A 
ATOM     22  C   UNL     1       3.984   5.657  16.972  0.00  0.00    +0.000 A 
ATOM     23  C   UNL     1       3.008   5.468  17.955  0.00  0.00    +0.000 A 
ATOM     24  C   UNL     1       2.652   4.179  18.316  0.00  0.00    +0.000 A 
ATOM     25  F   UNL     1       1.734   3.991  19.273  0.00  0.00    +0.000 F 
ATOM     26  C   UNL     1       3.248   3.080  17.711  0.00  0.00    +0.000 A 
ATOM     27  C   UNL     1       4.256   3.273  16.761  0.00  0.00    +0.000 A 
ENDBRANCH   5  21
BRANCH   1  28
ATOM     28  C   UNL     1       5.095   3.530  13.367  0.00  0.00    +0.000 C 
BRANCH  28  29
ATOM     29  O   UNL     1       5.884   2.927  12.345  0.00  0.00    +0.000 OA
BRANCH  29  31
ATOM     30  C   UNL     1       3.880   3.344  11.131  0.00  0.00    +0.000 C 
ATOM     31  C   UNL     1       5.073   2.424  11.288  0.00  0.00    +0.000 C 
ENDBRANCH  29  31
ENDBRANCH  28  29
ENDBRANCH   1  28
TORSDOF 7
ENDMDL
MODEL 3
REMARK VINA RESULT:      -8.6      3.350      4.979
REMARK  Name = 
REMARK  8 active torsions:
REMARK  status: ('A' for Active; 'I' for Inactive)
REMARK    1  A    between atoms: C_1  and  C_2
REMARK    2  A    between atoms: C_2  and  O_3
REMARK    3  A    between atoms: O_3  and  C_4
REMARK    4  A    between atoms: C_4  and  N_5
REMARK    5  A    between atoms: C_8  and  C_9
REMARK    6  A    between atoms: N_14  and  C_15
REMARK    7  A    between atoms: C_15  and  C_16
REMARK    8  A    between atoms: C_23  and  C_24
REMARK                            x       y       z     vdW  Elec       q    Type
REMARK                         _______ _______ _______ _____ _____    ______ ____
ROOT
ATOM      1  N   UNL     1       3.308   3.810  20.380  0.00  0.00    +0.000 N 
ATOM      2  N   UNL     1       4.174   2.779  20.263  0.00  0.00    +0.000 NA
ATOM      3  N   UNL     1       5.106   3.129  19.394  0.00  0.00    +0.000 NA
ATOM      4  C   UNL     1       4.834   4.403  18.970  0.00  0.00    +0.000 A 
ATOM      5  C   UNL     1       3.645   4.858  19.543  0.00  0.00    +0.000 A 
ENDROOT
BRANCH   4   6
ATOM      6  C   UNL     1       5.721   5.122  18.067  0.00  0.00    +0.000 A 
ATOM      7  C   UNL     1       5.869   4.715  16.762  0.00  0.00    +0.000 A 
ATOM      8  C   UNL     1       6.747   5.454  16.016  0.00  0.00    +0.000 A 
ATOM      9  N   UNL     1       7.434   6.507  16.500  0.00  0.00    +0.000 NA
ATOM     10  C   UNL     1       7.242   6.822  17.787  0.00  0.00    +0.000 A 
ATOM     11  N   UNL     1       7.942   7.860  18.369  0.00  0.00    +0.000 N 
ATOM     12  N   UNL     1       6.399   6.170  18.589  0.00  0.00    +0.000 NA
ATOM     13  H   UNL     1       7.435   8.170  19.190  0.00  0.00    +0.000 HD
BRANCH  11  14
ATOM     14  C   UNL     1       8.427   8.894  17.481  0.00  0.00    +0.000 C 
BRANCH  14  15
ATOM     15  C   UNL     1       8.827  10.095  18.308  0.00  0.00    +0.000 A 
ATOM     16  C   UNL     1       9.209   9.937  19.650  0.00  0.00    +0.000 A 
ATOM     17  C   UNL     1       9.547  11.043  20.428  0.00  0.00    +0.000 A 
ATOM     18  C   UNL     1       9.500  12.323  19.881  0.00  0.00    +0.000 A 
ATOM     19  C   UNL     1       9.114  12.497  18.551  0.00  0.00    +0.000 A 
ATOM     20  C   UNL     1       8.778  11.390  17.769  0.00  0.00    +0.000 A 
ENDBRANCH  14  15
ENDBRANCH  11  14
ENDBRANCH   4   6
BRANCH   5  21
ATOM     21  C   UNL     1       2.904   6.112  19.340  0.00  0.00    +0.000 A 
ATOM     22  C   UNL     1       2.910   6.722  18.070  0.00  0.00    +0.000 A 
ATOM     23  C   UNL     1       2.363   7.992  17.875  0.00  0.00    +0.000 A 
ATOM     24  C   UNL     1       1.751   8.637  18.938  0.00  0.00    +0.000 A 
ATOM     25  F   UNL     1       1.245   9.864  18.763  0.00  0.00    +0.000 F 
ATOM     26  C   UNL     1       1.673   8.034  20.186  0.00  0.00    +0.000 A 
ATOM     27  C   UNL     1       2.261   6.781  20.389  0.00  0.00    +0.000 A 
ENDBRANCH   5  21
BRANCH   1  28
ATOM     28  C   UNL     1       2.247   3.694  21.367  0.00  0.00    +0.000 C 
BRANCH  28  29
ATOM     29  O   UNL     1       1.291   2.732  20.930  0.00  0.00    +0.000 OA
BRANCH  29  31
ATOM     30  C   UNL     1       0.824   2.233  18.651  0.00  0.00    +0.000 C 
ATOM     31  C   UNL     1       0.568   3.194  19.793  0.00  0.00    +0.000 C 
ENDBRANCH  29  31
ENDBRANCH  28  29
ENDBRANCH   1  28
TORSDOF 7
ENDMDL
MODEL 4
REMARK VINA RESULT:      -8.4      5.658      8.306
REMARK  Name = 
REMARK  8 active torsions:
REMARK  status: ('A' for Active; 'I' for Inactive)
REMARK    1  A    between atoms: C_1  and  C_2
REMARK    2  A    between atoms: C_2  and  O_3
REMARK    3  A    between atoms: O_3  and  C_4
REMARK    4  A    between atoms: C_4  and  N_5
REMARK    5  A    between atoms: C_8  and  C_9
REMARK    6  A    between atoms: N_14  and  C_15
REMARK    7  A    between atoms: C_15  and  C_16
REMARK    8  A    between atoms: C_23  and  C_24
REMARK                            x       y       z     vdW  Elec       q    Type
REMARK                         _______ _______ _______ _____ _____    ______ ____
ROOT
ATOM      1  N   UNL     1       4.351   5.638  17.292  0.00  0.00    +0.000 N 
ATOM      2  N   UNL     1       4.617   6.741  16.557  0.00  0.00    +0.000 NA
ATOM      3  N   UNL     1       3.815   7.707  16.970  0.00  0.00    +0.000 NA
ATOM      4  C   UNL     1       3.045   7.212  17.989  0.00  0.00    +0.000 A 
ATOM      5  C   UNL     1       3.322   5.860  18.190  0.00  0.00    +0.000 A 
ENDROOT
BRANCH   4   6
ATOM      6  C   UNL     1       2.110   8.050  18.725  0.00  0.00    +0.000 A 
ATOM      7  C   UNL     1       2.001   7.941  20.092  0.00  0.00    +0.000 A 
ATOM      8  C   UNL     1       1.073   8.763  20.672  0.00  0.00    +0.000 A 
ATOM      9  N   UNL     1       0.305   9.626  19.977  0.00  0.00    +0.000 NA
ATOM     10  C   UNL     1       0.465   9.654  18.649  0.00  0.00    +0.000 A 
ATOM     11  N   UNL     1      -0.316  10.478  17.863  0.00  0.00    +0.000 N 
ATOM     12  N   UNL     1       1.351   8.900  17.995  0.00  0.00    +0.000 NA
ATOM     13  H   UNL     1       0.161  10.630  16.982  0.00  0.00    +0.000 HD
BRANCH  11  14
ATOM     14  C   UNL     1      -0.873  11.648  18.506  0.00  0.00    +0.000 C 
BRANCH  14  15
ATOM     15  C   UNL     1      -2.365  11.674  18.255  0.00  0.00    +0.000 A 
ATOM     16  C   UNL     1      -3.244  12.130  19.251  0.00  0.00    +0.000 A 
ATOM     17  C   UNL     1      -4.621  12.126  19.040  0.00  0.00    +0.000 A 
ATOM     18  C   UNL     1      -5.142  11.660  17.835  0.00  0.00    +0.000 A 
ATOM     19  C   UNL     1      -4.281  11.195  16.839  0.00  0.00    +0.000 A 
ATOM     20  C   UNL     1      -2.901  11.201  17.048  0.00  0.00    +0.000 A 
ENDBRANCH  14  15
ENDBRANCH  11  14
ENDBRANCH   4   6
BRANCH   5  21
ATOM     21  C   UNL     1       2.708   4.882  19.101  0.00  0.00    +0.000 A 
ATOM     22  C   UNL     1       1.568   4.169  18.685  0.00  0.00    +0.000 A 
ATOM     23  C   UNL     1       0.856   3.358  19.573  0.00  0.00    +0.000 A 
ATOM     24  C   UNL     1       1.318   3.209  20.871  0.00  0.00    +0.000 A 
ATOM     25  F   UNL     1       0.628   2.452  21.734  0.00  0.00    +0.000 F 
ATOM     26  C   UNL     1       2.476   3.848  21.293  0.00  0.00    +0.000 A 
ATOM     27  C   UNL     1       3.161   4.695  20.414  0.00  0.00    +0.000 A 
ENDBRANCH   5  21
BRANCH   1  28
ATOM     28  C   UNL     1       5.190   4.469  17.086  0.00  0.00    +0.000 C 
BRANCH  28  29
ATOM     29  O   UNL     1       6.064   4.305  18.199  0.00  0.00    +0.000 OA
BRANCH  29  31
ATOM     30  C   UNL     1       7.678   5.825  19.066  0.00  0.00    +0.000 C 
ATOM     31  C   UNL     1       7.348   4.865  17.941  0.00  0.00    +0.000 C 
ENDBRANCH  29  31
ENDBRANCH  28  29
ENDBRANCH   1  28
TORSDOF 7
ENDMDL
MODEL 5
REMARK VINA RESULT:      -8.4      5.776      8.377
REMARK  Name = 
REMARK  8 active torsions:
REMARK  status: ('A' for Active; 'I' for Inactive)
REMARK    1  A    between atoms: C_1  and  C_2
REMARK    2  A    between atoms: C_2  and  O_3
REMARK    3  A    between atoms: O_3  and  C_4
REMARK    4  A    between atoms: C_4  and  N_5
REMARK    5  A    between atoms: C_8  and  C_9
REMARK    6  A    between atoms: N_14  and  C_15
REMARK    7  A    between atoms: C_15  and  C_16
REMARK    8  A    between atoms: C_23  and  C_24
REMARK                            x       y       z     vdW  Elec       q    Type
REMARK                         _______ _______ _______ _____ _____    ______ ____
ROOT
ATOM      1  N   UNL     1       4.156   5.678  17.537  0.00  0.00    +0.000 N 
ATOM      2  N   UNL     1       4.488   6.760  16.798  0.00  0.00    +0.000 NA
ATOM      3  N   UNL     1       3.714   7.762  17.175  0.00  0.00    +0.000 NA
ATOM      4  C   UNL     1       2.893   7.311  18.175  0.00  0.00    +0.000 A 
ATOM      5  C   UNL     1       3.109   5.951  18.400  0.00  0.00    +0.000 A 
ENDROOT
BRANCH   4   6
ATOM      6  C   UNL     1       1.970   8.195  18.872  0.00  0.00    +0.000 A 
ATOM      7  C   UNL     1       1.800   8.094  20.233  0.00  0.00    +0.000 A 
ATOM      8  C   UNL     1       0.890   8.961  20.775  0.00  0.00    +0.000 A 
ATOM      9  N   UNL     1       0.194   9.859  20.049  0.00  0.00    +0.000 NA
ATOM     10  C   UNL     1       0.410   9.876  18.729  0.00  0.00    +0.000 A 
ATOM     11  N   UNL     1      -0.298  10.736  17.912  0.00  0.00    +0.000 N 
ATOM     12  N   UNL     1       1.284   9.079  18.112  0.00  0.00    +0.000 NA
ATOM     13  H   UNL     1       0.222  10.862  17.051  0.00  0.00    +0.000 HD
BRANCH  11  14
ATOM     14  C   UNL     1      -0.823  11.933  18.531  0.00  0.00    +0.000 C 
BRANCH  14  15
ATOM     15  C   UNL     1      -2.334  11.853  18.534  0.00  0.00    +0.000 A 
ATOM     16  C   UNL     1      -3.016  11.260  17.459  0.00  0.00    +0.000 A 
ATOM     17  C   UNL     1      -4.408  11.212  17.440  0.00  0.00    +0.000 A 
ATOM     18  C   UNL     1      -5.141  11.762  18.489  0.00  0.00    +0.000 A 
ATOM     19  C   UNL     1      -4.478  12.362  19.561  0.00  0.00    +0.000 A 
ATOM     20  C   UNL     1      -3.083  12.409  19.583  0.00  0.00    +0.000 A 
ENDBRANCH  14  15
ENDBRANCH  11  14
ENDBRANCH   4   6
BRANCH   5  21
ATOM     21  C   UNL     1       2.428   5.010  19.302  0.00  0.00    +0.000 A 
ATOM     22  C   UNL     1       2.815   4.946  20.654  0.00  0.00    +0.000 A 
ATOM     23  C   UNL     1       2.315   3.956  21.504  0.00  0.00    +0.000 A 
ATOM     24  C   UNL     1       1.376   3.059  21.020  0.00  0.00    +0.000 A 
ATOM     25  F   UNL     1       0.909   2.094  21.822  0.00  0.00    +0.000 F 
ATOM     26  C   UNL     1       0.927   3.138  19.708  0.00  0.00    +0.000 A 
ATOM     27  C   UNL     1       1.462   4.102  18.848  0.00  0.00    +0.000 A 
ENDBRANCH   5  21
BRANCH   1  28
ATOM     28  C   UNL     1       4.952   4.473  17.370  0.00  0.00    +0.000 C 
BRANCH  28  29
ATOM     29  O   UNL     1       5.936   4.405  18.398  0.00  0.00    +0.000 OA
BRANCH  29  31
ATOM     30  C   UNL     1       7.729   5.926  18.771  0.00  0.00    +0.000 C 
ATOM     31  C   UNL     1       7.222   4.784  17.915  0.00  0.00    +0.000 C 
ENDBRANCH  29  31
ENDBRANCH  28  29
ENDBRANCH   1  28
TORSDOF 7
ENDMDL
MODEL 6
REMARK VINA RESULT:      -8.4      4.230      7.577
REMARK  Name = 
REMARK  8 active torsions:
REMARK  status: ('A' for Active; 'I' for Inactive)
REMARK    1  A    between atoms: C_1  and  C_2
REMARK    2  A    between atoms: C_2  and  O_3
REMARK    3  A    between atoms: O_3  and  C_4
REMARK    4  A    between atoms: C_4  and  N_5
REMARK    5  A    between atoms: C_8  and  C_9
REMARK    6  A    between atoms: N_14  and  C_15
REMARK    7  A    between atoms: C_15  and  C_16
REMARK    8  A    between atoms: C_23  and  C_24
REMARK                            x       y       z     vdW  Elec       q    Type
REMARK                         _______ _______ _______ _____ _____    ______ ____
ROOT
ATOM      1  N   UNL     1       3.207   3.594  20.566  0.00  0.00    +0.000 N 
ATOM      2  N   UNL     1       3.995   2.498  20.484  0.00  0.00    +0.000 NA
ATOM      3  N   UNL     1       4.903   2.721  19.550  0.00  0.00    +0.000 NA
ATOM      4  C   UNL     1       4.695   3.979  19.048  0.00  0.00    +0.000 A 
ATOM      5  C   UNL     1       3.571   4.555  19.640  0.00  0.00    +0.000 A 
ENDROOT
BRANCH   4   6
ATOM      6  C   UNL     1       5.582   4.569  18.056  0.00  0.00    +0.000 A 
ATOM      7  C   UNL     1       6.668   5.317  18.447  0.00  0.00    +0.000 A 
ATOM      8  C   UNL     1       7.416   5.840  17.427  0.00  0.00    +0.000 A 
ATOM      9  N   UNL     1       7.130   5.654  16.123  0.00  0.00    +0.000 NA
ATOM     10  C   UNL     1       6.045   4.927  15.833  0.00  0.00    +0.000 A 
ATOM     11  N   UNL     1       5.660   4.729  14.522  0.00  0.00    +0.000 N 
ATOM     12  N   UNL     1       5.262   4.367  16.757  0.00  0.00    +0.000 NA
ATOM     13  H   UNL     1       5.069   3.906  14.481  0.00  0.00    +0.000 HD
BRANCH  11  14
ATOM     14  C   UNL     1       6.698   4.830  13.520  0.00  0.00    +0.000 C 
BRANCH  14  15
ATOM     15  C   UNL     1       6.538   3.689  12.540  0.00  0.00    +0.000 A 
ATOM     16  C   UNL     1       5.262   3.189  12.235  0.00  0.00    +0.000 A 
ATOM     17  C   UNL     1       5.109   2.116  11.358  0.00  0.00    +0.000 A 
ATOM     18  C   UNL     1       6.229   1.522  10.780  0.00  0.00    +0.000 A 
ATOM     19  C   UNL     1       7.505   2.002  11.081  0.00  0.00    +0.000 A 
ATOM     20  C   UNL     1       7.659   3.078  11.957  0.00  0.00    +0.000 A 
ENDBRANCH  14  15
ENDBRANCH  11  14
ENDBRANCH   4   6
BRANCH   5  21
ATOM     21  C   UNL     1       2.906   5.841  19.381  0.00  0.00    +0.000 A 
ATOM     22  C   UNL     1       2.938   6.387  18.083  0.00  0.00    +0.000 A 
ATOM     23  C   UNL     1       2.467   7.678  17.830  0.00  0.00    +0.000 A 
ATOM     24  C   UNL     1       1.906   8.410  18.864  0.00  0.00    +0.000 A 
ATOM     25  F   UNL     1       1.475   9.656  18.632  0.00  0.00    +0.000 F 
ATOM     26  C   UNL     1       1.803   7.873  20.140  0.00  0.00    +0.000 A 
ATOM     27  C   UNL     1       2.315   6.598  20.401  0.00  0.00    +0.000 A 
ENDBRANCH   5  21
BRANCH   1  28
ATOM     28  C   UNL     1       2.192   3.621  21.607  0.00  0.00    +0.000 C 
BRANCH  28  29
ATOM     29  O   UNL     1       1.089   2.806  21.220  0.00  0.00    +0.000 OA
BRANCH  29  31
ATOM     30  C   UNL     1       0.680   2.255  18.941  0.00  0.00    +0.000 C 
ATOM     31  C   UNL     1       0.476   3.289  20.028  0.00  0.00    +0.000 C 
ENDBRANCH  29  31
ENDBRANCH  28  29
ENDBRANCH   1  28
TORSDOF 7
ENDMDL
MODEL 7
REMARK VINA RESULT:      -8.4      5.566      8.006
REMARK  Name = 
REMARK  8 active torsions:
REMARK  status: ('A' for Active; 'I' for Inactive)
REMARK    1  A    between atoms: C_1  and  C_2
REMARK    2  A    between atoms: C_2  and  O_3
REMARK    3  A    between atoms: O_3  and  C_4
REMARK    4  A    between atoms: C_4  and  N_5
REMARK    5  A    between atoms: C_8  and  C_9
REMARK    6  A    between atoms: N_14  and  C_15
REMARK    7  A    between atoms: C_15  and  C_16
REMARK    8  A    between atoms: C_23  and  C_24
REMARK                            x       y       z     vdW  Elec       q    Type
REMARK                         _______ _______ _______ _____ _____    ______ ____
ROOT
ATOM      1  N   UNL     1       4.438   5.648  17.402  0.00  0.00    +0.000 N 
ATOM      2  N   UNL     1       4.711   6.747  16.664  0.00  0.00    +0.000 NA
ATOM      3  N   UNL     1       3.885   7.706  17.042  0.00  0.00    +0.000 NA
ATOM      4  C   UNL     1       3.091   7.212  18.043  0.00  0.00    +0.000 A 
ATOM      5  C   UNL     1       3.379   5.865  18.267  0.00  0.00    +0.000 A 
ENDROOT
BRANCH   4   6
ATOM      6  C   UNL     1       2.123   8.045  18.742  0.00  0.00    +0.000 A 
ATOM      7  C   UNL     1       1.953   7.926  20.102  0.00  0.00    +0.000 A 
ATOM      8  C   UNL     1       1.000   8.744  20.645  0.00  0.00    +0.000 A 
ATOM      9  N   UNL     1       0.264   9.613  19.922  0.00  0.00    +0.000 NA
ATOM     10  C   UNL     1       0.485   9.650  18.603  0.00  0.00    +0.000 A 
ATOM     11  N   UNL     1      -0.259  10.481  17.789  0.00  0.00    +0.000 N 
ATOM     12  N   UNL     1       1.399   8.901  17.985  0.00  0.00    +0.000 NA
ATOM     13  H   UNL     1       0.258  10.639  16.932  0.00  0.00    +0.000 HD
BRANCH  11  14
ATOM     14  C   UNL     1      -0.845  11.646  18.414  0.00  0.00    +0.000 C 
BRANCH  14  15
ATOM     15  C   UNL     1      -2.334  11.644  18.145  0.00  0.00    +0.000 A 
ATOM     16  C   UNL     1      -3.237  12.025  19.151  0.00  0.00    +0.000 A 
ATOM     17  C   UNL     1      -4.611  11.994  18.922  0.00  0.00    +0.000 A 
ATOM     18  C   UNL     1      -5.104  11.574  17.689  0.00  0.00    +0.000 A 
ATOM     19  C   UNL     1      -4.219  11.183  16.682  0.00  0.00    +0.000 A 
ATOM     20  C   UNL     1      -2.842  11.216  16.909  0.00  0.00    +0.000 A 
ENDBRANCH  14  15
ENDBRANCH  11  14
ENDBRANCH   4   6
BRANCH   5  21
ATOM     21  C   UNL     1       2.751   4.889  19.169  0.00  0.00    +0.000 A 
ATOM     22  C   UNL     1       1.569   4.237  18.768  0.00  0.00    +0.000 A 
ATOM     23  C   UNL     1       0.850   3.432  19.656  0.00  0.00    +0.000 A 
ATOM     24  C   UNL     1       1.342   3.227  20.935  0.00  0.00    +0.000 A 
ATOM     25  F   UNL     1       0.645   2.475  21.797  0.00  0.00    +0.000 F 
ATOM     26  C   UNL     1       2.538   3.805  21.338  0.00  0.00    +0.000 A 
ATOM     27  C   UNL     1       3.232   4.646  20.463  0.00  0.00    +0.000 A 
ENDBRANCH   5  21
BRANCH   1  28
ATOM     28  C   UNL     1       5.297   4.487  17.233  0.00  0.00    +0.000 C 
BRANCH  28  29
ATOM     29  O   UNL     1       5.141   3.966  15.916  0.00  0.00    +0.000 OA
BRANCH  29  31
ATOM     30  C   UNL     1       6.091   3.891  13.736  0.00  0.00    +0.000 C 
ATOM     31  C   UNL     1       6.383   3.924  15.221  0.00  0.00    +0.000 C 
ENDBRANCH  29  31
ENDBRANCH  28  29
ENDBRANCH   1  28
TORSDOF 7
ENDMDL
MODEL 8
REMARK VINA RESULT:      -8.3      5.012      6.635
REMARK  Name = 
REMARK  8 active torsions:
REMARK  status: ('A' for Active; 'I' for Inactive)
REMARK    1  A    between atoms: C_1  and  C_2
REMARK    2  A    between atoms: C_2  and  O_3
REMARK    3  A    between atoms: O_3  and  C_4
REMARK    4  A    between atoms: C_4  and  N_5
REMARK    5  A    between atoms: C_8  and  C_9
REMARK    6  A    between atoms: N_14  and  C_15
REMARK    7  A    between atoms: C_15  and  C_16
REMARK    8  A    between atoms: C_23  and  C_24
REMARK                            x       y       z     vdW  Elec       q    Type
REMARK                         _______ _______ _______ _____ _____    ______ ____
ROOT
ATOM      1  N   UNL     1       4.431   5.478  17.406  0.00  0.00    +0.000 N 
ATOM      2  N   UNL     1       4.715   6.574  16.668  0.00  0.00    +0.000 NA
ATOM      3  N   UNL     1       3.934   7.556  17.083  0.00  0.00    +0.000 NA
ATOM      4  C   UNL     1       3.159   7.078  18.106  0.00  0.00    +0.000 A 
ATOM      5  C   UNL     1       3.410   5.721  18.308  0.00  0.00    +0.000 A 
ENDROOT
BRANCH   4   6
ATOM      6  C   UNL     1       2.243   7.935  18.845  0.00  0.00    +0.000 A 
ATOM      7  C   UNL     1       1.916   7.647  20.149  0.00  0.00    +0.000 A 
ATOM      8  C   UNL     1       1.030   8.511  20.734  0.00  0.00    +0.000 A 
ATOM      9  N   UNL     1       0.497   9.574  20.099  0.00  0.00    +0.000 NA
ATOM     10  C   UNL     1       0.858   9.769  18.826  0.00  0.00    +0.000 A 
ATOM     11  N   UNL     1       0.321  10.810  18.093  0.00  0.00    +0.000 N 
ATOM     12  N   UNL     1       1.723   8.990  18.175  0.00  0.00    +0.000 NA
ATOM     13  H   UNL     1       0.942  11.011  17.318  0.00  0.00    +0.000 HD
BRANCH  11  14
ATOM     14  C   UNL     1      -0.165  11.946  18.844  0.00  0.00    +0.000 C 
BRANCH  14  15
ATOM     15  C   UNL     1       0.805  13.094  18.669  0.00  0.00    +0.000 A 
ATOM     16  C   UNL     1       2.145  12.844  18.332  0.00  0.00    +0.000 A 
ATOM     17  C   UNL     1       3.053  13.893  18.202  0.00  0.00    +0.000 A 
ATOM     18  C   UNL     1       2.639  15.206  18.414  0.00  0.00    +0.000 A 
ATOM     19  C   UNL     1       1.312  15.469  18.759  0.00  0.00    +0.000 A 
ATOM     20  C   UNL     1       0.400  14.419  18.887  0.00  0.00    +0.000 A 
ENDBRANCH  14  15
ENDBRANCH  11  14
ENDBRANCH   4   6
BRANCH   5  21
ATOM     21  C   UNL     1       2.782   4.757  19.224  0.00  0.00    +0.000 A 
ATOM     22  C   UNL     1       1.553   4.167  18.870  0.00  0.00    +0.000 A 
ATOM     23  C   UNL     1       0.840   3.379  19.778  0.00  0.00    +0.000 A 
ATOM     24  C   UNL     1       1.384   3.126  21.027  0.00  0.00    +0.000 A 
ATOM     25  F   UNL     1       0.695   2.391  21.910  0.00  0.00    +0.000 F 
ATOM     26  C   UNL     1       2.623   3.642  21.382  0.00  0.00    +0.000 A 
ATOM     27  C   UNL     1       3.313   4.467  20.487  0.00  0.00    +0.000 A 
ENDBRANCH   5  21
BRANCH   1  28
ATOM     28  C   UNL     1       5.245   4.292  17.198  0.00  0.00    +0.000 C 
BRANCH  28  29
ATOM     29  O   UNL     1       6.183   4.163  18.263  0.00  0.00    +0.000 OA
BRANCH  29  31
ATOM     30  C   UNL     1       7.757   5.847  18.858  0.00  0.00    +0.000 C 
ATOM     31  C   UNL     1       7.452   4.706  17.909  0.00  0.00    +0.000 C 
ENDBRANCH  29  31
ENDBRANCH  28  29
ENDBRANCH   1  28
TORSDOF 7
ENDMDL
MODEL 9
REMARK VINA RESULT:      -8.3      1.042      1.599
REMARK  Name = 
REMARK  8 active torsions:
REMARK  status: ('A' for Active; 'I' for Inactive)
REMARK    1  A    between atoms: C_1  and  C_2
REMARK    2  A    between atoms: C_2  and  O_3
REMARK    3  A    between atoms: O_3  and  C_4
REMARK    4  A    between atoms: C_4  and  N_5
REMARK    5  A    between atoms: C_8  and  C_9
REMARK    6  A    between atoms: N_14  and  C_15
REMARK    7  A    between atoms: C_15  and  C_16
REMARK    8  A    between atoms: C_23  and  C_24
REMARK                            x       y       z     vdW  Elec       q    Type
REMARK                         _______ _______ _______ _____ _____    ______ ____
ROOT
ATOM      1  N   UNL     1       5.870   4.406  14.231  0.00  0.00    +0.000 N 
ATOM      2  N   UNL     1       7.017   4.863  13.681  0.00  0.00    +0.000 NA
ATOM      3  N   UNL     1       7.685   5.513  14.618  0.00  0.00    +0.000 NA
ATOM      4  C   UNL     1       6.958   5.452  15.778  0.00  0.00    +0.000 A 
ATOM      5  C   UNL     1       5.749   4.791  15.554  0.00  0.00    +0.000 A 
ENDROOT
BRANCH   4   6
ATOM      6  C   UNL     1       7.457   6.000  17.030  0.00  0.00    +0.000 A 
ATOM      7  C   UNL     1       7.608   5.193  18.134  0.00  0.00    +0.000 A 
ATOM      8  C   UNL     1       8.063   5.825  19.261  0.00  0.00    +0.000 A 
ATOM      9  N   UNL     1       8.346   7.141  19.314  0.00  0.00    +0.000 NA
ATOM     10  C   UNL     1       8.153   7.853  18.198  0.00  0.00    +0.000 A 
ATOM     11  N   UNL     1       8.378   9.216  18.184  0.00  0.00    +0.000 N 
ATOM     12  N   UNL     1       7.726   7.326  17.049  0.00  0.00    +0.000 NA
ATOM     13  H   UNL     1       8.525   9.508  17.225  0.00  0.00    +0.000 HD
BRANCH  11  14
ATOM     14  C   UNL     1       9.309   9.728  19.165  0.00  0.00    +0.000 C 
BRANCH  14  15
ATOM     15  C   UNL     1       9.306  11.239  19.093  0.00  0.00    +0.000 A 
ATOM     16  C   UNL     1       9.317  12.006  20.270  0.00  0.00    +0.000 A 
ATOM     17  C   UNL     1       9.281  13.398  20.212  0.00  0.00    +0.000 A 
ATOM     18  C   UNL     1       9.225  14.044  18.980  0.00  0.00    +0.000 A 
ATOM     19  C   UNL     1       9.205  13.296  17.802  0.00  0.00    +0.000 A 
ATOM     20  C   UNL     1       9.243  11.901  17.858  0.00  0.00    +0.000 A 
ENDBRANCH  14  15
ENDBRANCH  11  14
ENDBRANCH   4   6
BRANCH   5  21
ATOM     21  C   UNL     1       4.612   4.547  16.454  0.00  0.00    +0.000 A 
ATOM     22  C   UNL     1       4.154   3.229  16.648  0.00  0.00    +0.000 A 
ATOM     23  C   UNL     1       2.979   2.969  17.358  0.00  0.00    +0.000 A 
ATOM     24  C   UNL     1       2.286   4.023  17.931  0.00  0.00    +0.000 A 
ATOM     25  F   UNL     1       1.147   3.782  18.593  0.00  0.00    +0.000 F 
ATOM     26  C   UNL     1       2.748   5.326  17.811  0.00  0.00    +0.000 A 
ATOM     27  C   UNL     1       3.900   5.589  17.062  0.00  0.00    +0.000 A 
ENDBRANCH   5  21
BRANCH   1  28
ATOM     28  C   UNL     1       5.014   3.564  13.410  0.00  0.00    +0.000 C 
BRANCH  28  29
ATOM     29  O   UNL     1       5.572   3.446  12.104  0.00  0.00    +0.000 OA
BRANCH  29  31
ATOM     30  C   UNL     1       6.943   1.738  11.174  0.00  0.00    +0.000 C 
ATOM     31  C   UNL     1       5.550   2.097  11.648  0.00  0.00    +0.000 C 
ENDBRANCH  29  31
ENDBRANCH  28  29
ENDBRANCH   1  28
TORSDOF 7
ENDMDL
