MODEL 1
REMARK VINA RESULT:      -7.9      0.000      0.000
REMARK  Name = 
REMARK  4 active torsions:
REMARK  status: ('A' for Active; 'I' for Inactive)
REMARK    1  A    between atoms: C_1  and  C_2
REMARK    2  A    between atoms: C_2  and  N_3
REMARK    3  A    between atoms: C_5  and  C_6
REMARK    4  A    between atoms: C_8  and  C_9
REMARK                            x       y       z     vdW  Elec       q    Type
REMARK                         _______ _______ _______ _____ _____    ______ ____
ROOT
ATOM      1  C   UNL     1       4.388   6.046  17.513  0.00  0.00    +0.000 C 
ATOM      2  O   UNL     1       4.218   5.430  18.558  0.00  0.00    +0.000 OA
ATOM      3  N   UNL     1       3.734   7.220  17.207  0.00  0.00    +0.000 N 
ATOM      4  C   UNL     1       2.868   7.848  18.067  0.00  0.00    +0.000 A 
ATOM      5  N   UNL     1       2.119   8.892  17.594  0.00  0.00    +0.000 NA
ATOM      6  C   UNL     1       1.381   9.225  18.632  0.00  0.00    +0.000 A 
ATOM      7  C   UNL     1       0.358  10.198  18.818  0.00  0.00    +0.000 A 
ATOM      8  C   UNL     1      -0.220  10.334  20.029  0.00  0.00    +0.000 A 
ATOM      9  C   UNL     1       0.178   9.508  21.163  0.00  0.00    +0.000 A 
ATOM     10 BR   UNL     1      -0.663   9.778  22.800  0.00  0.00    +0.000 Br
ATOM     11  C   UNL     1       1.131   8.580  20.982  0.00  0.00    +0.000 A 
ATOM     12  N   UNL     1       1.721   8.434  19.730  0.00  0.00    +0.000 N 
ATOM     13  N   UNL     1       2.670   7.559  19.353  0.00  0.00    +0.000 NA
ATOM     14  H   UNL     1       3.801   7.640  16.296  0.00  0.00    +0.000 HD
ENDROOT
BRANCH   1  20
ATOM     15  N   UNL     1       6.675   5.680  16.571  0.00  0.00    +0.000 N 
ATOM     16  N   UNL     1       7.330   5.203  15.494  0.00  0.00    +0.000 NA
ATOM     17  C   UNL     1       6.371   4.728  14.701  0.00  0.00    +0.000 A 
ATOM     18  C   UNL     1       6.734   4.136  13.390  0.00  0.00    +0.000 C 
ATOM     19  C   UNL     1       5.092   4.891  15.286  0.00  0.00    +0.000 A 
ATOM     20  C   UNL     1       5.301   5.544  16.495  0.00  0.00    +0.000 A 
BRANCH  15  22
ATOM     21  C   UNL     1       7.653   7.745  17.512  0.00  0.00    +0.000 C 
ATOM     22  C   UNL     1       7.476   6.242  17.646  0.00  0.00    +0.000 C 
ENDBRANCH  15  22
ENDBRANCH   1  20
TORSDOF 2
ENDMDL
MODEL 2
REMARK VINA RESULT:      -7.2      2.253      3.644
REMARK  Name = 
REMARK  4 active torsions:
REMARK  status: ('A' for Active; 'I' for Inactive)
REMARK    1  A    between atoms: C_1  and  C_2
REMARK    2  A    between atoms: C_2  and  N_3
REMARK    3  A    between atoms: C_5  and  C_6
REMARK    4  A    between atoms: C_8  and  C_9
REMARK                            x       y       z     vdW  Elec       q    Type
REMARK                         _______ _______ _______ _____ _____    ______ ____
ROOT
ATOM      1  C   UNL     1       2.752   7.544  18.304  0.00  0.00    +0.000 C 
ATOM      2  O   UNL     1       2.500   8.527  17.616  0.00  0.00    +0.000 OA
ATOM      3  N   UNL     1       2.301   7.384  19.596  0.00  0.00    +0.000 N 
ATOM      4  C   UNL     1       1.478   8.284  20.225  0.00  0.00    +0.000 A 
ATOM      5  N   UNL     1       1.254   8.137  21.568  0.00  0.00    +0.000 NA
ATOM      6  C   UNL     1       0.483   9.164  21.857  0.00  0.00    +0.000 A 
ATOM      7  C   UNL     1      -0.081   9.637  23.076  0.00  0.00    +0.000 A 
ATOM      8  C   UNL     1      -0.871  10.730  23.066  0.00  0.00    +0.000 A 
ATOM      9  C   UNL     1      -1.169  11.446  21.830  0.00  0.00    +0.000 A 
ATOM     10 BR   UNL     1      -2.283  12.933  21.910  0.00  0.00    +0.000 Br
ATOM     11  C   UNL     1      -0.624  11.008  20.684  0.00  0.00    +0.000 A 
ATOM     12  N   UNL     1       0.199   9.886  20.697  0.00  0.00    +0.000 N 
ATOM     13  N   UNL     1       0.843   9.312  19.665  0.00  0.00    +0.000 NA
ATOM     14  H   UNL     1       2.620   6.627  20.177  0.00  0.00    +0.000 HD
ENDROOT
BRANCH   1  20
ATOM     15  N   UNL     1       3.137   5.171  17.617  0.00  0.00    +0.000 N 
ATOM     16  N   UNL     1       4.086   4.318  17.184  0.00  0.00    +0.000 NA
ATOM     17  C   UNL     1       5.176   5.071  17.046  0.00  0.00    +0.000 A 
ATOM     18  C   UNL     1       6.445   4.445  16.600  0.00  0.00    +0.000 C 
ATOM     19  C   UNL     1       4.914   6.422  17.382  0.00  0.00    +0.000 A 
ATOM     20  C   UNL     1       3.585   6.468  17.784  0.00  0.00    +0.000 A 
BRANCH  15  22
ATOM     21  C   UNL     1       1.818   3.148  18.143  0.00  0.00    +0.000 C 
ATOM     22  C   UNL     1       1.802   4.634  17.830  0.00  0.00    +0.000 C 
ENDBRANCH  15  22
ENDBRANCH   1  20
TORSDOF 2
ENDMDL
MODEL 3
REMARK VINA RESULT:      -7.2      1.534      2.278
REMARK  Name = 
REMARK  4 active torsions:
REMARK  status: ('A' for Active; 'I' for Inactive)
REMARK    1  A    between atoms: C_1  and  C_2
REMARK    2  A    between atoms: C_2  and  N_3
REMARK    3  A    between atoms: C_5  and  C_6
REMARK    4  A    between atoms: C_8  and  C_9
REMARK                            x       y       z     vdW  Elec       q    Type
REMARK                         _______ _______ _______ _____ _____    ______ ____
ROOT
ATOM      1  C   UNL     1       3.512   6.263  18.164  0.00  0.00    +0.000 C 
ATOM      2  O   UNL     1       3.334   5.828  19.296  0.00  0.00    +0.000 OA
ATOM      3  N   UNL     1       2.928   7.419  17.694  0.00  0.00    +0.000 N 
ATOM      4  C   UNL     1       2.131   8.230  18.464  0.00  0.00    +0.000 A 
ATOM      5  N   UNL     1       1.438   9.238  17.850  0.00  0.00    +0.000 NA
ATOM      6  C   UNL     1       0.754   9.776  18.837  0.00  0.00    +0.000 A 
ATOM      7  C   UNL     1      -0.197  10.834  18.891  0.00  0.00    +0.000 A 
ATOM      8  C   UNL     1      -0.729  11.193  20.078  0.00  0.00    +0.000 A 
ATOM      9  C   UNL     1      -0.352  10.525  21.317  0.00  0.00    +0.000 A 
ATOM     10 BR   UNL     1      -1.125  11.099  22.909  0.00  0.00    +0.000 Br
ATOM     11  C   UNL     1       0.532   9.516  21.263  0.00  0.00    +0.000 A 
ATOM     12  N   UNL     1       1.074   9.140  20.038  0.00  0.00    +0.000 N 
ATOM     13  N   UNL     1       1.952   8.155  19.782  0.00  0.00    +0.000 NA
ATOM     14  H   UNL     1       2.995   7.689  16.728  0.00  0.00    +0.000 HD
ENDROOT
BRANCH   1  20
ATOM     15  N   UNL     1       4.508   4.175  17.216  0.00  0.00    +0.000 N 
ATOM     16  N   UNL     1       5.388   3.724  16.301  0.00  0.00    +0.000 NA
ATOM     17  C   UNL     1       5.814   4.820  15.676  0.00  0.00    +0.000 A 
ATOM     18  C   UNL     1       6.829   4.700  14.600  0.00  0.00    +0.000 C 
ATOM     19  C   UNL     1       5.188   5.982  16.190  0.00  0.00    +0.000 A 
ATOM     20  C   UNL     1       4.360   5.550  17.219  0.00  0.00    +0.000 A 
BRANCH  15  22
ATOM     21  C   UNL     1       2.502   2.754  17.466  0.00  0.00    +0.000 C 
ATOM     22  C   UNL     1       3.838   3.185  18.045  0.00  0.00    +0.000 C 
ENDBRANCH  15  22
ENDBRANCH   1  20
TORSDOF 2
ENDMDL
MODEL 4
REMARK VINA RESULT:      -7.0      3.417      8.152
REMARK  Name = 
REMARK  4 active torsions:
REMARK  status: ('A' for Active; 'I' for Inactive)
REMARK    1  A    between atoms: C_1  and  C_2
REMARK    2  A    between atoms: C_2  and  N_3
REMARK    3  A    between atoms: C_5  and  C_6
REMARK    4  A    between atoms: C_8  and  C_9
REMARK                            x       y       z     vdW  Elec       q    Type
REMARK                         _______ _______ _______ _____ _____    ______ ____
ROOT
ATOM      1  C   UNL     1       1.598   9.381  18.608  0.00  0.00    +0.000 C 
ATOM      2  O   UNL     1       2.109   9.927  17.638  0.00  0.00    +0.000 OA
ATOM      3  N   UNL     1       1.834   8.069  18.955  0.00  0.00    +0.000 N 
ATOM      4  C   UNL     1       2.710   7.256  18.280  0.00  0.00    +0.000 A 
ATOM      5  N   UNL     1       2.721   5.919  18.576  0.00  0.00    +0.000 NA
ATOM      6  C   UNL     1       3.615   5.435  17.740  0.00  0.00    +0.000 A 
ATOM      7  C   UNL     1       4.083   4.115  17.482  0.00  0.00    +0.000 A 
ATOM      8  C   UNL     1       5.047   3.917  16.560  0.00  0.00    +0.000 A 
ATOM      9  C   UNL     1       5.631   5.027  15.816  0.00  0.00    +0.000 A 
ATOM     10 BR   UNL     1       6.969   4.661  14.576  0.00  0.00    +0.000 Br
ATOM     11  C   UNL     1       5.178   6.269  16.048  0.00  0.00    +0.000 A 
ATOM     12  N   UNL     1       4.176   6.471  16.992  0.00  0.00    +0.000 N 
ATOM     13  N   UNL     1       3.587   7.626  17.348  0.00  0.00    +0.000 NA
ATOM     14  H   UNL     1       1.311   7.613  19.683  0.00  0.00    +0.000 HD
ENDROOT
BRANCH   1  20
ATOM     15  N   UNL     1      -0.598  10.493  19.053  0.00  0.00    +0.000 N 
ATOM     16  N   UNL     1      -1.273  11.208  19.974  0.00  0.00    +0.000 NA
ATOM     17  C   UNL     1      -0.447  11.278  21.016  0.00  0.00    +0.000 A 
ATOM     18  C   UNL     1      -0.861  12.027  22.228  0.00  0.00    +0.000 C 
ATOM     19  C   UNL     1       0.763  10.588  20.761  0.00  0.00    +0.000 A 
ATOM     20  C   UNL     1       0.665  10.106  19.462  0.00  0.00    +0.000 A 
BRANCH  15  22
ATOM     21  C   UNL     1      -2.783  10.187  17.941  0.00  0.00    +0.000 C 
ATOM     22  C   UNL     1      -1.272  10.218  17.794  0.00  0.00    +0.000 C 
ENDBRANCH  15  22
ENDBRANCH   1  20
TORSDOF 2
ENDMDL
MODEL 5
REMARK VINA RESULT:      -6.7      4.188      7.526
REMARK  Name = 
REMARK  4 active torsions:
REMARK  status: ('A' for Active; 'I' for Inactive)
REMARK    1  A    between atoms: C_1  and  C_2
REMARK    2  A    between atoms: C_2  and  N_3
REMARK    3  A    between atoms: C_5  and  C_6
REMARK    4  A    between atoms: C_8  and  C_9
REMARK                            x       y       z     vdW  Elec       q    Type
REMARK                         _______ _______ _______ _____ _____    ______ ____
ROOT
ATOM      1  C   UNL     1       1.609   9.572  18.395  0.00  0.00    +0.000 C 
ATOM      2  O   UNL     1       1.854   9.114  17.285  0.00  0.00    +0.000 OA
ATOM      3  N   UNL     1       1.592   8.812  19.544  0.00  0.00    +0.000 N 
ATOM      4  C   UNL     1       1.904   7.475  19.570  0.00  0.00    +0.000 A 
ATOM      5  N   UNL     1       1.661   6.769  20.718  0.00  0.00    +0.000 NA
ATOM      6  C   UNL     1       2.017   5.544  20.396  0.00  0.00    +0.000 A 
ATOM      7  C   UNL     1       1.983   4.309  21.105  0.00  0.00    +0.000 A 
ATOM      8  C   UNL     1       2.448   3.188  20.516  0.00  0.00    +0.000 A 
ATOM      9  C   UNL     1       2.993   3.206  19.164  0.00  0.00    +0.000 A 
ATOM     10 BR   UNL     1       3.629   1.614  18.439  0.00  0.00    +0.000 Br
ATOM     11  C   UNL     1       3.010   4.367  18.491  0.00  0.00    +0.000 A 
ATOM     12  N   UNL     1       2.522   5.522  19.095  0.00  0.00    +0.000 N 
ATOM     13  N   UNL     1       2.441   6.761  18.581  0.00  0.00    +0.000 NA
ATOM     14  H   UNL     1       1.271   9.186  20.421  0.00  0.00    +0.000 HD
ENDROOT
BRANCH   1  20
ATOM     15  N   UNL     1       0.001  11.457  18.733  0.00  0.00    +0.000 N 
ATOM     16  N   UNL     1      -0.080  12.800  18.805  0.00  0.00    +0.000 NA
ATOM     17  C   UNL     1       1.180  13.219  18.698  0.00  0.00    +0.000 A 
ATOM     18  C   UNL     1       1.470  14.674  18.715  0.00  0.00    +0.000 C 
ATOM     19  C   UNL     1       2.075  12.129  18.571  0.00  0.00    +0.000 A 
ATOM     20  C   UNL     1       1.289  10.983  18.563  0.00  0.00    +0.000 A 
BRANCH  15  22
ATOM     21  C   UNL     1      -1.855  10.381  17.506  0.00  0.00    +0.000 C 
ATOM     22  C   UNL     1      -1.237  10.705  18.855  0.00  0.00    +0.000 C 
ENDBRANCH  15  22
ENDBRANCH   1  20
TORSDOF 2
ENDMDL
MODEL 6
REMARK VINA RESULT:      -6.7      2.672      3.498
REMARK  Name = 
REMARK  4 active torsions:
REMARK  status: ('A' for Active; 'I' for Inactive)
REMARK    1  A    between atoms: C_1  and  C_2
REMARK    2  A    between atoms: C_2  and  N_3
REMARK    3  A    between atoms: C_5  and  C_6
REMARK    4  A    between atoms: C_8  and  C_9
REMARK                            x       y       z     vdW  Elec       q    Type
REMARK                         _______ _______ _______ _____ _____    ______ ____
ROOT
ATOM      1  C   UNL     1       2.939   6.384  19.040  0.00  0.00    +0.000 C 
ATOM      2  O   UNL     1       3.201   7.176  18.142  0.00  0.00    +0.000 OA
ATOM      3  N   UNL     1       2.186   6.712  20.147  0.00  0.00    +0.000 N 
ATOM      4  C   UNL     1       1.608   7.944  20.329  0.00  0.00    +0.000 A 
ATOM      5  N   UNL     1       1.056   8.233  21.548  0.00  0.00    +0.000 NA
ATOM      6  C   UNL     1       0.645   9.475  21.403  0.00  0.00    +0.000 A 
ATOM      7  C   UNL     1       0.025  10.398  22.293  0.00  0.00    +0.000 A 
ATOM      8  C   UNL     1      -0.315  11.626  21.849  0.00  0.00    +0.000 A 
ATOM      9  C   UNL     1      -0.066  12.037  20.473  0.00  0.00    +0.000 A 
ATOM     10 BR   UNL     1      -0.584  13.744  19.945  0.00  0.00    +0.000 Br
ATOM     11  C   UNL     1       0.533  11.172  19.639  0.00  0.00    +0.000 A 
ATOM     12  N   UNL     1       0.892   9.908  20.100  0.00  0.00    +0.000 N 
ATOM     13  N   UNL     1       1.509   8.920  19.428  0.00  0.00    +0.000 NA
ATOM     14  H   UNL     1       2.087   6.081  20.924  0.00  0.00    +0.000 HD
ENDROOT
BRANCH   1  20
ATOM     15  N   UNL     1       4.783   4.697  19.089  0.00  0.00    +0.000 N 
ATOM     16  N   UNL     1       5.038   3.380  18.962  0.00  0.00    +0.000 NA
ATOM     17  C   UNL     1       3.841   2.820  18.800  0.00  0.00    +0.000 A 
ATOM     18  C   UNL     1       3.741   1.353  18.602  0.00  0.00    +0.000 C 
ATOM     19  C   UNL     1       2.810   3.790  18.839  0.00  0.00    +0.000 A 
ATOM     20  C   UNL     1       3.441   5.018  18.996  0.00  0.00    +0.000 A 
BRANCH  15  22
ATOM     21  C   UNL     1       6.661   5.909  18.034  0.00  0.00    +0.000 C 
ATOM     22  C   UNL     1       5.917   5.579  19.317  0.00  0.00    +0.000 C 
ENDBRANCH  15  22
ENDBRANCH   1  20
TORSDOF 2
ENDMDL
MODEL 7
REMARK VINA RESULT:      -6.6      3.372      7.730
REMARK  Name = 
REMARK  4 active torsions:
REMARK  status: ('A' for Active; 'I' for Inactive)
REMARK    1  A    between atoms: C_1  and  C_2
REMARK    2  A    between atoms: C_2  and  N_3
REMARK    3  A    between atoms: C_5  and  C_6
REMARK    4  A    between atoms: C_8  and  C_9
REMARK                            x       y       z     vdW  Elec       q    Type
REMARK                         _______ _______ _______ _____ _____    ______ ____
ROOT
ATOM      1  C   UNL     1       1.012   9.704  19.392  0.00  0.00    +0.000 C 
ATOM      2  O   UNL     1       0.804   9.146  20.463  0.00  0.00    +0.000 OA
ATOM      3  N   UNL     1       1.805   9.173  18.398  0.00  0.00    +0.000 N 
ATOM      4  C   UNL     1       2.398   7.938  18.485  0.00  0.00    +0.000 A 
ATOM      5  N   UNL     1       3.326   7.590  17.540  0.00  0.00    +0.000 NA
ATOM      6  C   UNL     1       3.722   6.399  17.933  0.00  0.00    +0.000 A 
ATOM      7  C   UNL     1       4.698   5.491  17.433  0.00  0.00    +0.000 A 
ATOM      8  C   UNL     1       4.876   4.300  18.043  0.00  0.00    +0.000 A 
ATOM      9  C   UNL     1       4.089   3.914  19.208  0.00  0.00    +0.000 A 
ATOM     10 BR   UNL     1       4.392   2.245  19.973  0.00  0.00    +0.000 Br
ATOM     11  C   UNL     1       3.181   4.778  19.689  0.00  0.00    +0.000 A 
ATOM     12  N   UNL     1       3.004   6.009  19.065  0.00  0.00    +0.000 N 
ATOM     13  N   UNL     1       2.165   7.003  19.405  0.00  0.00    +0.000 NA
ATOM     14  H   UNL     1       2.055   9.704  17.582  0.00  0.00    +0.000 HD
ENDROOT
BRANCH   1  20
ATOM     15  N   UNL     1      -0.793  11.183  18.493  0.00  0.00    +0.000 N 
ATOM     16  N   UNL     1      -1.114  12.472  18.269  0.00  0.00    +0.000 NA
ATOM     17  C   UNL     1      -0.090  13.164  18.766  0.00  0.00    +0.000 A 
ATOM     18  C   UNL     1      -0.094  14.645  18.670  0.00  0.00    +0.000 C 
ATOM     19  C   UNL     1       0.888  12.306  19.325  0.00  0.00    +0.000 A 
ATOM     20  C   UNL     1       0.432  11.011  19.111  0.00  0.00    +0.000 A 
BRANCH  15  22
ATOM     21  C   UNL     1      -2.258  10.395  16.666  0.00  0.00    +0.000 C 
ATOM     22  C   UNL     1      -1.755  10.173  18.081  0.00  0.00    +0.000 C 
ENDBRANCH  15  22
ENDBRANCH   1  20
TORSDOF 2
ENDMDL
MODEL 8
REMARK VINA RESULT:      -6.6      2.570      4.092
REMARK  Name = 
REMARK  4 active torsions:
REMARK  status: ('A' for Active; 'I' for Inactive)
REMARK    1  A    between atoms: C_1  and  C_2
REMARK    2  A    between atoms: C_2  and  N_3
REMARK    3  A    between atoms: C_5  and  C_6
REMARK    4  A    between atoms: C_8  and  C_9
REMARK                            x       y       z     vdW  Elec       q    Type
REMARK                         _______ _______ _______ _____ _____    ______ ____
ROOT
ATOM      1  C   UNL     1       2.315   7.304  19.494  0.00  0.00    +0.000 C 
ATOM      2  O   UNL     1       2.270   8.108  18.571  0.00  0.00    +0.000 OA
ATOM      3  N   UNL     1       1.681   7.495  20.702  0.00  0.00    +0.000 N 
ATOM      4  C   UNL     1       0.887   8.582  20.973  0.00  0.00    +0.000 A 
ATOM      5  N   UNL     1       0.470   8.782  22.262  0.00  0.00    +0.000 NA
ATOM      6  C   UNL     1      -0.212   9.905  22.186  0.00  0.00    +0.000 A 
ATOM      7  C   UNL     1      -0.877  10.700  23.162  0.00  0.00    +0.000 A 
ATOM      8  C   UNL     1      -1.530  11.817  22.779  0.00  0.00    +0.000 A 
ATOM      9  C   UNL     1      -1.578  12.234  21.383  0.00  0.00    +0.000 A 
ATOM     10 BR   UNL     1      -2.518  13.779  20.947  0.00  0.00    +0.000 Br
ATOM     11  C   UNL     1      -0.937  11.492  20.466  0.00  0.00    +0.000 A 
ATOM     12  N   UNL     1      -0.255  10.345  20.862  0.00  0.00    +0.000 N 
ATOM     13  N   UNL     1       0.452   9.491  20.102  0.00  0.00    +0.000 NA
ATOM     14  H   UNL     1       1.832   6.879  21.482  0.00  0.00    +0.000 HD
ENDROOT
BRANCH   1  20
ATOM     15  N   UNL     1       4.027   5.861  18.380  0.00  0.00    +0.000 N 
ATOM     16  N   UNL     1       4.577   4.631  18.407  0.00  0.00    +0.000 NA
ATOM     17  C   UNL     1       4.000   4.027  19.444  0.00  0.00    +0.000 A 
ATOM     18  C   UNL     1       4.356   2.623  19.762  0.00  0.00    +0.000 C 
ATOM     19  C   UNL     1       3.081   4.887  20.094  0.00  0.00    +0.000 A 
ATOM     20  C   UNL     1       3.085   6.073  19.370  0.00  0.00    +0.000 A 
BRANCH  15  22
ATOM     21  C   UNL     1       5.138   6.063  16.182  0.00  0.00    +0.000 C 
ATOM     22  C   UNL     1       4.495   6.781  17.356  0.00  0.00    +0.000 C 
ENDBRANCH  15  22
ENDBRANCH   1  20
TORSDOF 2
ENDMDL
MODEL 9
REMARK VINA RESULT:      -6.5      3.378      8.042
REMARK  Name = 
REMARK  4 active torsions:
REMARK  status: ('A' for Active; 'I' for Inactive)
REMARK    1  A    between atoms: C_1  and  C_2
REMARK    2  A    between atoms: C_2  and  N_3
REMARK    3  A    between atoms: C_5  and  C_6
REMARK    4  A    between atoms: C_8  and  C_9
REMARK                            x       y       z     vdW  Elec       q    Type
REMARK                         _______ _______ _______ _____ _____    ______ ____
ROOT
ATOM      1  C   UNL     1       1.696   9.053  19.101  0.00  0.00    +0.000 C 
ATOM      2  O   UNL     1       2.006   9.615  18.056  0.00  0.00    +0.000 OA
ATOM      3  N   UNL     1       2.079   7.768  19.416  0.00  0.00    +0.000 N 
ATOM      4  C   UNL     1       2.893   7.005  18.616  0.00  0.00    +0.000 A 
ATOM      5  N   UNL     1       3.048   5.678  18.916  0.00  0.00    +0.000 NA
ATOM      6  C   UNL     1       3.829   5.242  17.952  0.00  0.00    +0.000 A 
ATOM      7  C   UNL     1       4.344   3.953  17.633  0.00  0.00    +0.000 A 
ATOM      8  C   UNL     1       5.162   3.806  16.570  0.00  0.00    +0.000 A 
ATOM      9  C   UNL     1       5.538   4.939  15.733  0.00  0.00    +0.000 A 
ATOM     10 BR   UNL     1       6.684   4.643  14.297  0.00  0.00    +0.000 Br
ATOM     11  C   UNL     1       5.038   6.150  16.024  0.00  0.00    +0.000 A 
ATOM     12  N   UNL     1       4.187   6.300  17.116  0.00  0.00    +0.000 N 
ATOM     13  N   UNL     1       3.581   7.418  17.552  0.00  0.00    +0.000 NA
ATOM     14  H   UNL     1       1.713   7.290  20.221  0.00  0.00    +0.000 HD
ENDROOT
BRANCH   1  20
ATOM     15  N   UNL     1       0.485  11.054  19.986  0.00  0.00    +0.000 N 
ATOM     16  N   UNL     1      -0.233  11.497  21.037  0.00  0.00    +0.000 NA
ATOM     17  C   UNL     1      -0.347  10.438  21.836  0.00  0.00    +0.000 A 
ATOM     18  C   UNL     1      -1.072  10.570  23.124  0.00  0.00    +0.000 C 
ATOM     19  C   UNL     1       0.293   9.303  21.282  0.00  0.00    +0.000 A 
ATOM     20  C   UNL     1       0.862   9.727  20.087  0.00  0.00    +0.000 A 
BRANCH  15  22
ATOM     21  C   UNL     1      -0.483  12.802  18.532  0.00  0.00    +0.000 C 
ATOM     22  C   UNL     1       0.748  11.996  18.910  0.00  0.00    +0.000 C 
ENDBRANCH  15  22
ENDBRANCH   1  20
TORSDOF 2
ENDMDL
