MODEL 1
REMARK VINA RESULT:      -8.4      0.000      0.000
REMARK  Name = 
REMARK  4 active torsions:
REMARK  status: ('A' for Active; 'I' for Inactive)
REMARK    1  A    between atoms: N_3  and  C_4
REMARK    2  A    between atoms: N_11  and  C_12
REMARK    3  A    between atoms: C_15  and  O_16
REMARK    4  A    between atoms: O_16  and  C_17
REMARK                            x       y       z     vdW  Elec       q    Type
REMARK                         _______ _______ _______ _____ _____    ______ ____
ROOT
ATOM      1  C   UNL     1       7.936   7.095  18.171  0.00  0.00    +0.000 C 
ATOM      2  C   UNL     1       7.783   5.765  18.936  0.00  0.00    +0.000 C 
ATOM      3  C   UNL     1       6.993   4.724  18.144  0.00  0.00    +0.000 C 
ATOM      4  C   UNL     1       5.623   5.274  17.728  0.00  0.00    +0.000 C 
ATOM      5  C   UNL     1       5.834   6.513  16.850  0.00  0.00    +0.000 C 
ATOM      6  C   UNL     1       6.594   7.598  17.606  0.00  0.00    +0.000 C 
ENDROOT
BRANCH   1  10
ATOM      7  O   UNL     1       8.427   9.729  17.359  0.00  0.00    +0.000 OA
ATOM      8  C   UNL     1       8.800   9.408  18.477  0.00  0.00    +0.000 C 
ATOM      9  N   UNL     1       9.451  10.235  19.373  0.00  0.00    +0.000 N 
ATOM     10  N   UNL     1       8.615   8.131  18.963  0.00  0.00    +0.000 N 
ATOM     11  H   UNL     1       9.993   9.783  20.089  0.00  0.00    +0.000 HD
ATOM     12  H   UNL     1       8.730   7.972  19.952  0.00  0.00    +0.000 HD
BRANCH   9  13
ATOM     13  C   UNL     1       9.721  11.605  19.121  0.00  0.00    +0.000 A 
ATOM     14  C   UNL     1       9.031  12.642  19.759  0.00  0.00    +0.000 A 
ATOM     15  C   UNL     1       9.256  13.979  19.418  0.00  0.00    +0.000 A 
ATOM     16  C   UNL     1      10.204  14.292  18.452  0.00  0.00    +0.000 A 
ATOM     17  I   UNL     1      10.501  16.276  17.914  0.00  0.00    +0.000 I 
ATOM     18  C   UNL     1      10.946  13.276  17.846  0.00  0.00    +0.000 A 
ATOM     19  C   UNL     1      10.714  11.937  18.188  0.00  0.00    +0.000 A 
ENDBRANCH   9  13
ENDBRANCH   1  10
BRANCH   4  20
ATOM     20  O   UNL     1       4.903   4.315  16.946  0.00  0.00    +0.000 OA
BRANCH  20  21
ATOM     21  C   UNL     1       3.798   3.709  17.480  0.00  0.00    +0.000 A 
ATOM     22  C   UNL     1       3.698   2.379  17.894  0.00  0.00    +0.000 A 
ATOM     23  C   UNL     1       2.479   1.879  18.368  0.00  0.00    +0.000 A 
ATOM     24  C   UNL     1       1.369   2.712  18.432  0.00  0.00    +0.000 A 
ATOM     25  F   UNL     1       0.198   2.220  18.856  0.00  0.00    +0.000 F 
ATOM     26  C   UNL     1       1.459   4.045  18.056  0.00  0.00    +0.000 A 
ATOM     27  C   UNL     1       2.676   4.542  17.584  0.00  0.00    +0.000 A 
ENDBRANCH  20  21
ENDBRANCH   4  20
TORSDOF 4
ENDMDL
MODEL 2
REMARK VINA RESULT:      -8.3      0.989      1.833
REMARK  Name = 
REMARK  4 active torsions:
REMARK  status: ('A' for Active; 'I' for Inactive)
REMARK    1  A    between atoms: N_3  and  C_4
REMARK    2  A    between atoms: N_11  and  C_12
REMARK    3  A    between atoms: C_15  and  O_16
REMARK    4  A    between atoms: O_16  and  C_17
REMARK                            x       y       z     vdW  Elec       q    Type
REMARK                         _______ _______ _______ _____ _____    ______ ____
ROOT
ATOM      1  C   UNL     1       7.065   6.738  18.100  0.00  0.00    +0.000 C 
ATOM      2  C   UNL     1       7.356   6.204  16.684  0.00  0.00    +0.000 C 
ATOM      3  C   UNL     1       6.216   5.344  16.140  0.00  0.00    +0.000 C 
ATOM      4  C   UNL     1       5.889   4.193  17.099  0.00  0.00    +0.000 C 
ATOM      5  C   UNL     1       5.467   4.782  18.450  0.00  0.00    +0.000 C 
ATOM      6  C   UNL     1       6.584   5.627  19.053  0.00  0.00    +0.000 C 
ENDROOT
BRANCH   1  10
ATOM      7  O   UNL     1       7.542   9.480  17.787  0.00  0.00    +0.000 OA
ATOM      8  C   UNL     1       8.337   8.845  18.464  0.00  0.00    +0.000 C 
ATOM      9  N   UNL     1       9.457   9.367  19.083  0.00  0.00    +0.000 N 
ATOM     10  N   UNL     1       8.195   7.489  18.667  0.00  0.00    +0.000 N 
ATOM     11  H   UNL     1      10.190   8.716  19.309  0.00  0.00    +0.000 HD
ATOM     12  H   UNL     1       8.733   7.054  19.401  0.00  0.00    +0.000 HD
BRANCH   9  13
ATOM     13  C   UNL     1       9.798  10.744  19.055  0.00  0.00    +0.000 A 
ATOM     14  C   UNL     1      10.275  11.381  17.903  0.00  0.00    +0.000 A 
ATOM     15  C   UNL     1      10.692  12.715  17.933  0.00  0.00    +0.000 A 
ATOM     16  C   UNL     1      10.603  13.436  19.117  0.00  0.00    +0.000 A 
ATOM     17  I   UNL     1      11.269  15.403  19.171  0.00  0.00    +0.000 I 
ATOM     18  C   UNL     1      10.075  12.837  20.262  0.00  0.00    +0.000 A 
ATOM     19  C   UNL     1       9.663  11.498  20.228  0.00  0.00    +0.000 A 
ENDBRANCH   9  13
ENDBRANCH   1  10
BRANCH   4  20
ATOM     20  O   UNL     1       4.789   3.417  16.611  0.00  0.00    +0.000 OA
BRANCH  20  21
ATOM     21  C   UNL     1       3.641   3.343  17.352  0.00  0.00    +0.000 A 
ATOM     22  C   UNL     1       2.658   4.329  17.463  0.00  0.00    +0.000 A 
ATOM     23  C   UNL     1       1.561   4.137  18.310  0.00  0.00    +0.000 A 
ATOM     24  C   UNL     1       1.447   2.958  19.036  0.00  0.00    +0.000 A 
ATOM     25  F   UNL     1       0.411   2.792  19.870  0.00  0.00    +0.000 F 
ATOM     26  C   UNL     1       2.396   1.953  18.912  0.00  0.00    +0.000 A 
ATOM     27  C   UNL     1       3.491   2.147  18.066  0.00  0.00    +0.000 A 
ENDBRANCH  20  21
ENDBRANCH   4  20
TORSDOF 4
ENDMDL
MODEL 3
REMARK VINA RESULT:      -8.3      0.389      1.039
REMARK  Name = 
REMARK  4 active torsions:
REMARK  status: ('A' for Active; 'I' for Inactive)
REMARK    1  A    between atoms: N_3  and  C_4
REMARK    2  A    between atoms: N_11  and  C_12
REMARK    3  A    between atoms: C_15  and  O_16
REMARK    4  A    between atoms: O_16  and  C_17
REMARK                            x       y       z     vdW  Elec       q    Type
REMARK                         _______ _______ _______ _____ _____    ______ ____
ROOT
ATOM      1  C   UNL     1       7.930   7.096  18.230  0.00  0.00    +0.000 C 
ATOM      2  C   UNL     1       7.884   5.679  18.835  0.00  0.00    +0.000 C 
ATOM      3  C   UNL     1       7.060   4.710  17.988  0.00  0.00    +0.000 C 
ATOM      4  C   UNL     1       5.643   5.248  17.758  0.00  0.00    +0.000 C 
ATOM      5  C   UNL     1       5.739   6.592  17.025  0.00  0.00    +0.000 C 
ATOM      6  C   UNL     1       6.529   7.608  17.844  0.00  0.00    +0.000 C 
ENDROOT
BRANCH   1  10
ATOM      7  O   UNL     1       8.602   9.727  17.546  0.00  0.00    +0.000 OA
ATOM      8  C   UNL     1       8.919   9.338  18.660  0.00  0.00    +0.000 C 
ATOM      9  N   UNL     1       9.588  10.087  19.609  0.00  0.00    +0.000 N 
ATOM     10  N   UNL     1       8.643   8.056  19.085  0.00  0.00    +0.000 N 
ATOM     11  H   UNL     1      10.080   9.574  20.322  0.00  0.00    +0.000 HD
ATOM     12  H   UNL     1       8.716   7.850  20.070  0.00  0.00    +0.000 HD
BRANCH   9  13
ATOM     13  C   UNL     1       9.948  11.446  19.424  0.00  0.00    +0.000 A 
ATOM     14  C   UNL     1       9.096  12.506  19.756  0.00  0.00    +0.000 A 
ATOM     15  C   UNL     1       9.442  13.831  19.473  0.00  0.00    +0.000 A 
ATOM     16  C   UNL     1      10.668  14.109  18.881  0.00  0.00    +0.000 A 
ATOM     17  I   UNL     1      11.159  16.073  18.417  0.00  0.00    +0.000 I 
ATOM     18  C   UNL     1      11.557  13.071  18.595  0.00  0.00    +0.000 A 
ATOM     19  C   UNL     1      11.204  11.745  18.877  0.00  0.00    +0.000 A 
ENDBRANCH   9  13
ENDBRANCH   1  10
BRANCH   4  20
ATOM     20  O   UNL     1       4.888   4.363  16.925  0.00  0.00    +0.000 OA
BRANCH  20  21
ATOM     21  C   UNL     1       3.680   3.895  17.367  0.00  0.00    +0.000 A 
ATOM     22  C   UNL     1       2.510   4.641  17.536  0.00  0.00    +0.000 A 
ATOM     23  C   UNL     1       1.360   4.038  18.056  0.00  0.00    +0.000 A 
ATOM     24  C   UNL     1       1.379   2.692  18.398  0.00  0.00    +0.000 A 
ATOM     25  F   UNL     1       0.285   2.128  18.925  0.00  0.00    +0.000 F 
ATOM     26  C   UNL     1       2.521   1.928  18.205  0.00  0.00    +0.000 A 
ATOM     27  C   UNL     1       3.669   2.531  17.686  0.00  0.00    +0.000 A 
ENDBRANCH  20  21
ENDBRANCH   4  20
TORSDOF 4
ENDMDL
MODEL 4
REMARK VINA RESULT:      -8.3      0.949      1.243
REMARK  Name = 
REMARK  4 active torsions:
REMARK  status: ('A' for Active; 'I' for Inactive)
REMARK    1  A    between atoms: N_3  and  C_4
REMARK    2  A    between atoms: N_11  and  C_12
REMARK    3  A    between atoms: C_15  and  O_16
REMARK    4  A    between atoms: O_16  and  C_17
REMARK                            x       y       z     vdW  Elec       q    Type
REMARK                         _______ _______ _______ _____ _____    ______ ____
ROOT
ATOM      1  C   UNL     1       7.087   6.728  18.081  0.00  0.00    +0.000 C 
ATOM      2  C   UNL     1       7.422   6.149  16.692  0.00  0.00    +0.000 C 
ATOM      3  C   UNL     1       6.288   5.292  16.129  0.00  0.00    +0.000 C 
ATOM      4  C   UNL     1       5.907   4.173  17.107  0.00  0.00    +0.000 C 
ATOM      5  C   UNL     1       5.446   4.807  18.425  0.00  0.00    +0.000 C 
ATOM      6  C   UNL     1       6.554   5.652  19.046  0.00  0.00    +0.000 C 
ENDROOT
BRANCH   1  10
ATOM      7  O   UNL     1       7.563   9.473  17.794  0.00  0.00    +0.000 OA
ATOM      8  C   UNL     1       8.350   8.835  18.477  0.00  0.00    +0.000 C 
ATOM      9  N   UNL     1       9.461   9.355  19.115  0.00  0.00    +0.000 N 
ATOM     10  N   UNL     1       8.208   7.477  18.669  0.00  0.00    +0.000 N 
ATOM     11  H   UNL     1      10.192   8.704  19.347  0.00  0.00    +0.000 HD
ATOM     12  H   UNL     1       8.737   7.037  19.407  0.00  0.00    +0.000 HD
BRANCH   9  13
ATOM     13  C   UNL     1       9.799  10.732  19.102  0.00  0.00    +0.000 A 
ATOM     14  C   UNL     1       9.693  11.548  20.234  0.00  0.00    +0.000 A 
ATOM     15  C   UNL     1       9.944  12.922  20.164  0.00  0.00    +0.000 A 
ATOM     16  C   UNL     1      10.337  13.487  18.957  0.00  0.00    +0.000 A 
ATOM     17  I   UNL     1      10.661  15.535  18.844  0.00  0.00    +0.000 I 
ATOM     18  C   UNL     1      10.506  12.681  17.830  0.00  0.00    +0.000 A 
ATOM     19  C   UNL     1      10.250  11.306  17.905  0.00  0.00    +0.000 A 
ENDBRANCH   9  13
ENDBRANCH   1  10
BRANCH   4  20
ATOM     20  O   UNL     1       4.814   3.401  16.600  0.00  0.00    +0.000 OA
BRANCH  20  21
ATOM     21  C   UNL     1       3.733   3.164  17.405  0.00  0.00    +0.000 A 
ATOM     22  C   UNL     1       3.555   2.072  18.258  0.00  0.00    +0.000 A 
ATOM     23  C   UNL     1       2.364   1.929  18.980  0.00  0.00    +0.000 A 
ATOM     24  C   UNL     1       1.360   2.881  18.852  0.00  0.00    +0.000 A 
ATOM     25  F   UNL     1       0.211   2.722  19.520  0.00  0.00    +0.000 F 
ATOM     26  C   UNL     1       1.533   3.989  18.035  0.00  0.00    +0.000 A 
ATOM     27  C   UNL     1       2.722   4.130  17.316  0.00  0.00    +0.000 A 
ENDBRANCH  20  21
ENDBRANCH   4  20
TORSDOF 4
ENDMDL
MODEL 5
REMARK VINA RESULT:      -8.3      0.863      1.553
REMARK  Name = 
REMARK  4 active torsions:
REMARK  status: ('A' for Active; 'I' for Inactive)
REMARK    1  A    between atoms: N_3  and  C_4
REMARK    2  A    between atoms: N_11  and  C_12
REMARK    3  A    between atoms: C_15  and  O_16
REMARK    4  A    between atoms: O_16  and  C_17
REMARK                            x       y       z     vdW  Elec       q    Type
REMARK                         _______ _______ _______ _____ _____    ______ ____
ROOT
ATOM      1  C   UNL     1       7.168   6.795  18.229  0.00  0.00    +0.000 C 
ATOM      2  C   UNL     1       7.289   6.490  16.723  0.00  0.00    +0.000 C 
ATOM      3  C   UNL     1       6.163   5.589  16.219  0.00  0.00    +0.000 C 
ATOM      4  C   UNL     1       6.091   4.290  17.032  0.00  0.00    +0.000 C 
ATOM      5  C   UNL     1       5.827   4.643  18.501  0.00  0.00    +0.000 C 
ATOM      6  C   UNL     1       6.941   5.520  19.064  0.00  0.00    +0.000 C 
ENDROOT
BRANCH   1  10
ATOM      7  O   UNL     1       7.564   9.541  17.846  0.00  0.00    +0.000 OA
ATOM      8  C   UNL     1       8.399   8.940  18.507  0.00  0.00    +0.000 C 
ATOM      9  N   UNL     1       9.526   9.502  19.076  0.00  0.00    +0.000 N 
ATOM     10  N   UNL     1       8.298   7.585  18.741  0.00  0.00    +0.000 N 
ATOM     11  H   UNL     1      10.282   8.874  19.288  0.00  0.00    +0.000 HD
ATOM     12  H   UNL     1       8.872   7.178  19.464  0.00  0.00    +0.000 HD
BRANCH   9  13
ATOM     13  C   UNL     1       9.830  10.886  19.008  0.00  0.00    +0.000 A 
ATOM     14  C   UNL     1       9.660  11.751  20.096  0.00  0.00    +0.000 A 
ATOM     15  C   UNL     1       9.880  13.126  19.969  0.00  0.00    +0.000 A 
ATOM     16  C   UNL     1      10.306  13.644  18.752  0.00  0.00    +0.000 A 
ATOM     17  I   UNL     1      10.584  15.693  18.553  0.00  0.00    +0.000 I 
ATOM     18  C   UNL     1      10.538  12.791  17.672  0.00  0.00    +0.000 A 
ATOM     19  C   UNL     1      10.313  11.414  17.803  0.00  0.00    +0.000 A 
ENDBRANCH   9  13
ENDBRANCH   1  10
BRANCH   4  20
ATOM     20  O   UNL     1       5.006   3.469  16.590  0.00  0.00    +0.000 OA
BRANCH  20  21
ATOM     21  C   UNL     1       3.830   3.481  17.288  0.00  0.00    +0.000 A 
ATOM     22  C   UNL     1       2.989   4.580  17.484  0.00  0.00    +0.000 A 
ATOM     23  C   UNL     1       1.842   4.457  18.276  0.00  0.00    +0.000 A 
ATOM     24  C   UNL     1       1.535   3.235  18.863  0.00  0.00    +0.000 A 
ATOM     25  F   UNL     1       0.453   3.131  19.645  0.00  0.00    +0.000 F 
ATOM     26  C   UNL     1       2.340   2.125  18.651  0.00  0.00    +0.000 A 
ATOM     27  C   UNL     1       3.484   2.249  17.861  0.00  0.00    +0.000 A 
ENDBRANCH  20  21
ENDBRANCH   4  20
TORSDOF 4
ENDMDL
MODEL 6
REMARK VINA RESULT:      -8.1      1.085      1.578
REMARK  Name = 
REMARK  4 active torsions:
REMARK  status: ('A' for Active; 'I' for Inactive)
REMARK    1  A    between atoms: N_3  and  C_4
REMARK    2  A    between atoms: N_11  and  C_12
REMARK    3  A    between atoms: C_15  and  O_16
REMARK    4  A    between atoms: O_16  and  C_17
REMARK                            x       y       z     vdW  Elec       q    Type
REMARK                         _______ _______ _______ _____ _____    ______ ____
ROOT
ATOM      1  C   UNL     1       7.046   6.742  17.810  0.00  0.00    +0.000 C 
ATOM      2  C   UNL     1       7.451   5.942  16.556  0.00  0.00    +0.000 C 
ATOM      3  C   UNL     1       6.290   5.131  15.983  0.00  0.00    +0.000 C 
ATOM      4  C   UNL     1       5.688   4.205  17.047  0.00  0.00    +0.000 C 
ATOM      5  C   UNL     1       5.171   5.062  18.210  0.00  0.00    +0.000 C 
ATOM      6  C   UNL     1       6.299   5.872  18.839  0.00  0.00    +0.000 C 
ENDROOT
BRANCH   1  10
ATOM      7  O   UNL     1       7.452   9.513  17.797  0.00  0.00    +0.000 OA
ATOM      8  C   UNL     1       8.285   8.827  18.370  0.00  0.00    +0.000 C 
ATOM      9  N   UNL     1       9.415   9.304  19.006  0.00  0.00    +0.000 N 
ATOM     10  N   UNL     1       8.180   7.453  18.421  0.00  0.00    +0.000 N 
ATOM     11  H   UNL     1      10.170   8.650  19.131  0.00  0.00    +0.000 HD
ATOM     12  H   UNL     1       8.753   6.951  19.081  0.00  0.00    +0.000 HD
BRANCH   9  13
ATOM     13  C   UNL     1       9.725  10.683  19.124  0.00  0.00    +0.000 A 
ATOM     14  C   UNL     1      10.164  11.455  18.042  0.00  0.00    +0.000 A 
ATOM     15  C   UNL     1      10.551  12.787  18.211  0.00  0.00    +0.000 A 
ATOM     16  C   UNL     1      10.471  13.371  19.470  0.00  0.00    +0.000 A 
ATOM     17  I   UNL     1      11.093  15.335  19.728  0.00  0.00    +0.000 I 
ATOM     18  C   UNL     1       9.980  12.636  20.551  0.00  0.00    +0.000 A 
ATOM     19  C   UNL     1       9.597  11.300  20.376  0.00  0.00    +0.000 A 
ENDBRANCH   9  13
ENDBRANCH   1  10
BRANCH   4  20
ATOM     20  O   UNL     1       4.570   3.481  16.523  0.00  0.00    +0.000 OA
BRANCH  20  21
ATOM     21  C   UNL     1       3.521   3.178  17.348  0.00  0.00    +0.000 A 
ATOM     22  C   UNL     1       3.411   2.059  18.177  0.00  0.00    +0.000 A 
ATOM     23  C   UNL     1       2.247   1.848  18.925  0.00  0.00    +0.000 A 
ATOM     24  C   UNL     1       1.202   2.760  18.847  0.00  0.00    +0.000 A 
ATOM     25  F   UNL     1       0.078   2.537  19.541  0.00  0.00    +0.000 F 
ATOM     26  C   UNL     1       1.307   3.895  18.056  0.00  0.00    +0.000 A 
ATOM     27  C   UNL     1       2.470   4.103  17.310  0.00  0.00    +0.000 A 
ENDBRANCH  20  21
ENDBRANCH   4  20
TORSDOF 4
ENDMDL
MODEL 7
REMARK VINA RESULT:      -7.6      6.430      8.022
REMARK  Name = 
REMARK  4 active torsions:
REMARK  status: ('A' for Active; 'I' for Inactive)
REMARK    1  A    between atoms: N_3  and  C_4
REMARK    2  A    between atoms: N_11  and  C_12
REMARK    3  A    between atoms: C_15  and  O_16
REMARK    4  A    between atoms: O_16  and  C_17
REMARK                            x       y       z     vdW  Elec       q    Type
REMARK                         _______ _______ _______ _____ _____    ______ ____
ROOT
ATOM      1  C   UNL     1       2.213   6.430  19.861  0.00  0.00    +0.000 C 
ATOM      2  C   UNL     1       3.403   6.954  19.033  0.00  0.00    +0.000 C 
ATOM      3  C   UNL     1       3.783   6.008  17.895  0.00  0.00    +0.000 C 
ATOM      4  C   UNL     1       4.070   4.597  18.426  0.00  0.00    +0.000 C 
ATOM      5  C   UNL     1       2.808   4.065  19.116  0.00  0.00    +0.000 C 
ATOM      6  C   UNL     1       2.401   4.960  20.282  0.00  0.00    +0.000 C 
ENDROOT
BRANCH   1  10
ATOM      7  O   UNL     1       0.701   8.786  19.795  0.00  0.00    +0.000 OA
ATOM      8  C   UNL     1       1.135   8.428  20.880  0.00  0.00    +0.000 C 
ATOM      9  N   UNL     1       0.948   9.094  22.076  0.00  0.00    +0.000 N 
ATOM     10  N   UNL     1       1.900   7.289  21.013  0.00  0.00    +0.000 N 
ATOM     11  H   UNL     1       1.614   8.903  22.805  0.00  0.00    +0.000 HD
ATOM     12  H   UNL     1       2.046   6.913  21.938  0.00  0.00    +0.000 HD
BRANCH   9  13
ATOM     13  C   UNL     1       0.165  10.269  22.205  0.00  0.00    +0.000 A 
ATOM     14  C   UNL     1      -0.923  10.361  23.082  0.00  0.00    +0.000 A 
ATOM     15  C   UNL     1      -1.732  11.500  23.116  0.00  0.00    +0.000 A 
ATOM     16  C   UNL     1      -1.437  12.577  22.290  0.00  0.00    +0.000 A 
ATOM     17  I   UNL     1      -2.670  14.249  22.308  0.00  0.00    +0.000 I 
ATOM     18  C   UNL     1      -0.323  12.530  21.450  0.00  0.00    +0.000 A 
ATOM     19  C   UNL     1       0.484  11.384  21.417  0.00  0.00    +0.000 A 
ENDBRANCH   9  13
ENDBRANCH   1  10
BRANCH   4  20
ATOM     20  O   UNL     1       4.379   3.701  17.354  0.00  0.00    +0.000 OA
BRANCH  20  21
ATOM     21  C   UNL     1       5.332   4.056  16.438  0.00  0.00    +0.000 A 
ATOM     22  C   UNL     1       6.599   4.577  16.715  0.00  0.00    +0.000 A 
ATOM     23  C   UNL     1       7.450   4.953  15.670  0.00  0.00    +0.000 A 
ATOM     24  C   UNL     1       7.035   4.800  14.353  0.00  0.00    +0.000 A 
ATOM     25  F   UNL     1       7.841   5.191  13.357  0.00  0.00    +0.000 F 
ATOM     26  C   UNL     1       5.795   4.253  14.058  0.00  0.00    +0.000 A 
ATOM     27  C   UNL     1       4.946   3.878  15.103  0.00  0.00    +0.000 A 
ENDBRANCH  20  21
ENDBRANCH   4  20
TORSDOF 4
ENDMDL
MODEL 8
REMARK VINA RESULT:      -7.6      6.423      8.033
REMARK  Name = 
REMARK  4 active torsions:
REMARK  status: ('A' for Active; 'I' for Inactive)
REMARK    1  A    between atoms: N_3  and  C_4
REMARK    2  A    between atoms: N_11  and  C_12
REMARK    3  A    between atoms: C_15  and  O_16
REMARK    4  A    between atoms: O_16  and  C_17
REMARK                            x       y       z     vdW  Elec       q    Type
REMARK                         _______ _______ _______ _____ _____    ______ ____
ROOT
ATOM      1  C   UNL     1       2.074   6.293  20.142  0.00  0.00    +0.000 C 
ATOM      2  C   UNL     1       3.117   6.887  19.174  0.00  0.00    +0.000 C 
ATOM      3  C   UNL     1       3.543   5.892  18.095  0.00  0.00    +0.000 C 
ATOM      4  C   UNL     1       4.060   4.590  18.720  0.00  0.00    +0.000 C 
ATOM      5  C   UNL     1       2.937   3.966  19.558  0.00  0.00    +0.000 C 
ATOM      6  C   UNL     1       2.494   4.909  20.672  0.00  0.00    +0.000 C 
ENDROOT
BRANCH   1  10
ATOM      7  O   UNL     1       0.746   8.745  19.876  0.00  0.00    +0.000 OA
ATOM      8  C   UNL     1       1.061   8.397  21.004  0.00  0.00    +0.000 C 
ATOM      9  N   UNL     1       0.823   9.115  22.160  0.00  0.00    +0.000 N 
ATOM     10  N   UNL     1       1.728   7.212  21.237  0.00  0.00    +0.000 N 
ATOM     11  H   UNL     1       1.409   8.904  22.950  0.00  0.00    +0.000 HD
ATOM     12  H   UNL     1       1.768   6.860  22.181  0.00  0.00    +0.000 HD
BRANCH   9  13
ATOM     13  C   UNL     1       0.118  10.346  22.187  0.00  0.00    +0.000 A 
ATOM     14  C   UNL     1       0.487  11.446  21.403  0.00  0.00    +0.000 A 
ATOM     15  C   UNL     1      -0.170  12.674  21.522  0.00  0.00    +0.000 A 
ATOM     16  C   UNL     1      -1.231  12.802  22.410  0.00  0.00    +0.000 A 
ATOM     17  I   UNL     1      -2.174  14.640  22.620  0.00  0.00    +0.000 I 
ATOM     18  C   UNL     1      -1.654  11.701  23.157  0.00  0.00    +0.000 A 
ATOM     19  C   UNL     1      -0.989  10.473  23.037  0.00  0.00    +0.000 A 
ENDBRANCH   9  13
ENDBRANCH   1  10
BRANCH   4  20
ATOM     20  O   UNL     1       4.413   3.642  17.708  0.00  0.00    +0.000 OA
BRANCH  20  21
ATOM     21  C   UNL     1       5.166   4.051  16.641  0.00  0.00    +0.000 A 
ATOM     22  C   UNL     1       4.770   4.068  15.301  0.00  0.00    +0.000 A 
ATOM     23  C   UNL     1       5.673   4.459  14.305  0.00  0.00    +0.000 A 
ATOM     24  C   UNL     1       6.963   4.837  14.652  0.00  0.00    +0.000 A 
ATOM     25  F   UNL     1       7.833   5.179  13.692  0.00  0.00    +0.000 F 
ATOM     26  C   UNL     1       7.363   4.859  15.981  0.00  0.00    +0.000 A 
ATOM     27  C   UNL     1       6.462   4.469  16.974  0.00  0.00    +0.000 A 
ENDBRANCH  20  21
ENDBRANCH   4  20
TORSDOF 4
ENDMDL
MODEL 9
REMARK VINA RESULT:      -7.6      6.914      8.085
REMARK  Name = 
REMARK  4 active torsions:
REMARK  status: ('A' for Active; 'I' for Inactive)
REMARK    1  A    between atoms: N_3  and  C_4
REMARK    2  A    between atoms: N_11  and  C_12
REMARK    3  A    between atoms: C_15  and  O_16
REMARK    4  A    between atoms: O_16  and  C_17
REMARK                            x       y       z     vdW  Elec       q    Type
REMARK                         _______ _______ _______ _____ _____    ______ ____
ROOT
ATOM      1  C   UNL     1       1.951   8.045  19.769  0.00  0.00    +0.000 C 
ATOM      2  C   UNL     1       1.446   6.796  20.518  0.00  0.00    +0.000 C 
ATOM      3  C   UNL     1       2.435   5.633  20.444  0.00  0.00    +0.000 C 
ATOM      4  C   UNL     1       2.776   5.293  18.988  0.00  0.00    +0.000 C 
ATOM      5  C   UNL     1       3.406   6.526  18.329  0.00  0.00    +0.000 C 
ATOM      6  C   UNL     1       2.446   7.711  18.349  0.00  0.00    +0.000 C 
ENDROOT
BRANCH   1  10
ATOM      7  O   UNL     1       1.385   9.774  21.899  0.00  0.00    +0.000 OA
ATOM      8  C   UNL     1       0.767   9.943  20.858  0.00  0.00    +0.000 C 
ATOM      9  N   UNL     1      -0.194  10.914  20.647  0.00  0.00    +0.000 N 
ATOM     10  N   UNL     1       0.966   9.137  19.758  0.00  0.00    +0.000 N 
ATOM     11  H   UNL     1      -0.851  10.741  19.905  0.00  0.00    +0.000 HD
ATOM     12  H   UNL     1       0.609   9.444  18.866  0.00  0.00    +0.000 HD
BRANCH   9  13
ATOM     13  C   UNL     1      -0.549  11.889  21.614  0.00  0.00    +0.000 A 
ATOM     14  C   UNL     1      -1.525  11.664  22.593  0.00  0.00    +0.000 A 
ATOM     15  C   UNL     1      -1.918  12.678  23.471  0.00  0.00    +0.000 A 
ATOM     16  C   UNL     1      -1.309  13.925  23.397  0.00  0.00    +0.000 A 
ATOM     17  I   UNL     1      -1.930  15.444  24.670  0.00  0.00    +0.000 I 
ATOM     18  C   UNL     1      -0.293  14.152  22.467  0.00  0.00    +0.000 A 
ATOM     19  C   UNL     1       0.095  13.134  21.587  0.00  0.00    +0.000 A 
ENDBRANCH   9  13
ENDBRANCH   1  10
BRANCH   4  20
ATOM     20  O   UNL     1       3.738   4.236  18.921  0.00  0.00    +0.000 OA
BRANCH  20  21
ATOM     21  C   UNL     1       4.767   4.323  18.023  0.00  0.00    +0.000 A 
ATOM     22  C   UNL     1       6.085   4.696  18.302  0.00  0.00    +0.000 A 
ATOM     23  C   UNL     1       7.021   4.799  17.267  0.00  0.00    +0.000 A 
ATOM     24  C   UNL     1       6.640   4.522  15.960  0.00  0.00    +0.000 A 
ATOM     25  F   UNL     1       7.532   4.654  14.970  0.00  0.00    +0.000 F 
ATOM     26  C   UNL     1       5.345   4.118  15.669  0.00  0.00    +0.000 A 
ATOM     27  C   UNL     1       4.411   4.015  16.703  0.00  0.00    +0.000 A 
ENDBRANCH  20  21
ENDBRANCH   4  20
TORSDOF 4
ENDMDL
