MODEL 1
REMARK VINA RESULT:      -8.7      0.000      0.000
REMARK  Name = 
REMARK  3 active torsions:
REMARK  status: ('A' for Active; 'I' for Inactive)
REMARK    1  A    between atoms: N_8  and  C_9
REMARK    2  A    between atoms: C_12  and  C_13
REMARK    3  A    between atoms: C_13  and  C_14
REMARK                            x       y       z     vdW  Elec       q    Type
REMARK                         _______ _______ _______ _____ _____    ______ ____
ROOT
ATOM      1  C   UNL     1       3.702   6.677  18.068  0.00  0.00    +0.000 A 
ATOM      2  N   UNL     1       4.933   7.161  17.800  0.00  0.00    +0.000 NA
ATOM      3  N   UNL     1       5.932   6.339  17.345  0.00  0.00    +0.000 NA
ATOM      4  C   UNL     1       5.714   5.013  17.191  0.00  0.00    +0.000 A 
ATOM      5  C   UNL     1       4.471   4.431  17.503  0.00  0.00    +0.000 A 
ATOM      6  C   UNL     1       4.200   3.038  17.444  0.00  0.00    +0.000 A 
ATOM      7  C   UNL     1       2.920   2.522  17.662  0.00  0.00    +0.000 A 
ATOM      8  C   UNL     1       1.867   3.388  17.882  0.00  0.00    +0.000 A 
ATOM      9  C   UNL     1       2.119   4.752  17.956  0.00  0.00    +0.000 A 
ATOM     10  C   UNL     1       3.425   5.301  17.866  0.00  0.00    +0.000 A 
ENDROOT
BRANCH   1  18
ATOM     11  C   UNL     1      -1.348  12.752  20.565  0.00  0.00    +0.000 A 
ATOM     12  C   UNL     1      -1.655  12.107  19.376  0.00  0.00    +0.000 A 
ATOM     13  C   UNL     1      -0.914  10.994  19.012  0.00  0.00    +0.000 A 
ATOM     14  C   UNL     1       0.126  10.537  19.827  0.00  0.00    +0.000 A 
ATOM     15  N   UNL     1       0.832   9.422  19.391  0.00  0.00    +0.000 N 
ATOM     16  C   UNL     1       1.563   8.610  20.391  0.00  0.00    +0.000 C 
ATOM     17  C   UNL     1       1.943   7.246  19.730  0.00  0.00    +0.000 C 
ATOM     18  N   UNL     1       2.710   7.538  18.504  0.00  0.00    +0.000 N 
ATOM     19  C   UNL     1       1.946   8.327  17.520  0.00  0.00    +0.000 C 
ATOM     20  C   UNL     1       1.630   9.686  18.175  0.00  0.00    +0.000 C 
ATOM     21  N   UNL     1       0.419  11.148  20.991  0.00  0.00    +0.000 NA
ATOM     22  C   UNL     1      -0.314  12.239  21.325  0.00  0.00    +0.000 A 
ENDBRANCH   1  18
BRANCH   4  23
ATOM     23  C   UNL     1       6.826   4.261  16.490  0.00  0.00    +0.000 C 
BRANCH  23  24
ATOM     24  C   UNL     1       6.736   4.373  14.984  0.00  0.00    +0.000 A 
ATOM     25  C   UNL     1       5.811   3.617  14.255  0.00  0.00    +0.000 A 
ATOM     26  C   UNL     1       5.819   3.662  12.864  0.00  0.00    +0.000 A 
ATOM     27  C   UNL     1       6.748   4.476  12.241  0.00  0.00    +0.000 A 
ATOM     28  N   UNL     1       7.631   5.251  12.906  0.00  0.00    +0.000 NA
ATOM     29  C   UNL     1       7.602   5.183  14.258  0.00  0.00    +0.000 A 
ENDBRANCH  23  24
ENDBRANCH   4  23
TORSDOF 3
ENDMDL
MODEL 2
REMARK VINA RESULT:      -8.7      0.963      1.577
REMARK  Name = 
REMARK  3 active torsions:
REMARK  status: ('A' for Active; 'I' for Inactive)
REMARK    1  A    between atoms: N_8  and  C_9
REMARK    2  A    between atoms: C_12  and  C_13
REMARK    3  A    between atoms: C_13  and  C_14
REMARK                            x       y       z     vdW  Elec       q    Type
REMARK                         _______ _______ _______ _____ _____    ______ ____
ROOT
ATOM      1  C   UNL     1       3.354   6.398  17.787  0.00  0.00    +0.000 A 
ATOM      2  N   UNL     1       4.496   6.631  17.107  0.00  0.00    +0.000 NA
ATOM      3  N   UNL     1       5.182   5.607  16.507  0.00  0.00    +0.000 NA
ATOM      4  C   UNL     1       4.747   4.330  16.616  0.00  0.00    +0.000 A 
ATOM      5  C   UNL     1       3.594   4.008  17.355  0.00  0.00    +0.000 A 
ATOM      6  C   UNL     1       3.129   2.684  17.579  0.00  0.00    +0.000 A 
ATOM      7  C   UNL     1       1.921   2.424  18.231  0.00  0.00    +0.000 A 
ATOM      8  C   UNL     1       1.117   3.478  18.618  0.00  0.00    +0.000 A 
ATOM      9  C   UNL     1       1.565   4.778  18.418  0.00  0.00    +0.000 A 
ATOM     10  C   UNL     1       2.842   5.078  17.876  0.00  0.00    +0.000 A 
ENDROOT
BRANCH   1  18
ATOM     11  C   UNL     1      -1.724  11.935  21.279  0.00  0.00    +0.000 A 
ATOM     12  C   UNL     1      -0.628  11.511  22.017  0.00  0.00    +0.000 A 
ATOM     13  C   UNL     1       0.314  10.701  21.403  0.00  0.00    +0.000 A 
ATOM     14  C   UNL     1       0.156  10.317  20.068  0.00  0.00    +0.000 A 
ATOM     15  N   UNL     1       1.137   9.494  19.524  0.00  0.00    +0.000 N 
ATOM     16  C   UNL     1       1.306   9.470  18.053  0.00  0.00    +0.000 C 
ATOM     17  C   UNL     1       2.673   8.789  17.728  0.00  0.00    +0.000 C 
ATOM     18  N   UNL     1       2.674   7.457  18.363  0.00  0.00    +0.000 N 
ATOM     19  C   UNL     1       2.528   7.517  19.829  0.00  0.00    +0.000 C 
ATOM     20  C   UNL     1       1.151   8.142  20.122  0.00  0.00    +0.000 C 
ATOM     21  N   UNL     1      -0.895  10.738  19.341  0.00  0.00    +0.000 NA
ATOM     22  C   UNL     1      -1.809  11.525  19.963  0.00  0.00    +0.000 A 
ENDBRANCH   1  18
BRANCH   4  23
ATOM     23  C   UNL     1       5.474   3.332  15.740  0.00  0.00    +0.000 C 
BRANCH  23  24
ATOM     24  C   UNL     1       6.214   3.998  14.600  0.00  0.00    +0.000 A 
ATOM     25  C   UNL     1       5.970   3.640  13.269  0.00  0.00    +0.000 A 
ATOM     26  C   UNL     1       6.736   4.193  12.248  0.00  0.00    +0.000 A 
ATOM     27  C   UNL     1       7.720   5.105  12.589  0.00  0.00    +0.000 A 
ATOM     28  N   UNL     1       7.961   5.509  13.855  0.00  0.00    +0.000 NA
ATOM     29  C   UNL     1       7.203   4.949  14.827  0.00  0.00    +0.000 A 
ENDBRANCH  23  24
ENDBRANCH   4  23
TORSDOF 3
ENDMDL
MODEL 3
REMARK VINA RESULT:      -8.6      1.533      2.148
REMARK  Name = 
REMARK  3 active torsions:
REMARK  status: ('A' for Active; 'I' for Inactive)
REMARK    1  A    between atoms: N_8  and  C_9
REMARK    2  A    between atoms: C_12  and  C_13
REMARK    3  A    between atoms: C_13  and  C_14
REMARK                            x       y       z     vdW  Elec       q    Type
REMARK                         _______ _______ _______ _____ _____    ______ ____
ROOT
ATOM      1  C   UNL     1       2.786   7.190  18.639  0.00  0.00    +0.000 A 
ATOM      2  N   UNL     1       3.800   7.340  17.761  0.00  0.00    +0.000 NA
ATOM      3  N   UNL     1       4.643   6.298  17.472  0.00  0.00    +0.000 NA
ATOM      4  C   UNL     1       4.499   5.104  18.094  0.00  0.00    +0.000 A 
ATOM      5  C   UNL     1       3.498   4.894  19.060  0.00  0.00    +0.000 A 
ATOM      6  C   UNL     1       3.344   3.697  19.809  0.00  0.00    +0.000 A 
ATOM      7  C   UNL     1       2.269   3.501  20.680  0.00  0.00    +0.000 A 
ATOM      8  C   UNL     1       1.289   4.469  20.778  0.00  0.00    +0.000 A 
ATOM      9  C   UNL     1       1.434   5.651  20.062  0.00  0.00    +0.000 A 
ATOM     10  C   UNL     1       2.574   5.937  19.268  0.00  0.00    +0.000 A 
ENDROOT
BRANCH   1  18
ATOM     11  C   UNL     1      -3.185  12.672  20.353  0.00  0.00    +0.000 A 
ATOM     12  C   UNL     1      -2.108  12.600  21.224  0.00  0.00    +0.000 A 
ATOM     13  C   UNL     1      -1.029  11.800  20.883  0.00  0.00    +0.000 A 
ATOM     14  C   UNL     1      -1.034  11.077  19.686  0.00  0.00    +0.000 A 
ATOM     15  N   UNL     1       0.079  10.287  19.418  0.00  0.00    +0.000 N 
ATOM     16  C   UNL     1       0.365   9.920  18.011  0.00  0.00    +0.000 C 
ATOM     17  C   UNL     1       1.826   9.374  17.935  0.00  0.00    +0.000 C 
ATOM     18  N   UNL     1       1.939   8.255  18.891  0.00  0.00    +0.000 N 
ATOM     19  C   UNL     1       1.672   8.659  20.284  0.00  0.00    +0.000 C 
ATOM     20  C   UNL     1       0.210   9.143  20.344  0.00  0.00    +0.000 C 
ATOM     21  N   UNL     1      -2.068  11.154  18.828  0.00  0.00    +0.000 NA
ATOM     22  C   UNL     1      -3.116  11.938  19.185  0.00  0.00    +0.000 A 
ENDBRANCH   1  18
BRANCH   4  23
ATOM     23  C   UNL     1       5.357   3.988  17.536  0.00  0.00    +0.000 C 
BRANCH  23  24
ATOM     24  C   UNL     1       5.930   4.327  16.177  0.00  0.00    +0.000 A 
ATOM     25  C   UNL     1       5.337   3.854  15.001  0.00  0.00    +0.000 A 
ATOM     26  C   UNL     1       5.941   4.093  13.772  0.00  0.00    +0.000 A 
ATOM     27  C   UNL     1       7.122   4.815  13.753  0.00  0.00    +0.000 A 
ATOM     28  N   UNL     1       7.706   5.325  14.859  0.00  0.00    +0.000 NA
ATOM     29  C   UNL     1       7.097   5.070  16.040  0.00  0.00    +0.000 A 
ENDBRANCH  23  24
ENDBRANCH   4  23
TORSDOF 3
ENDMDL
MODEL 4
REMARK VINA RESULT:      -8.3      2.544     10.547
REMARK  Name = 
REMARK  3 active torsions:
REMARK  status: ('A' for Active; 'I' for Inactive)
REMARK    1  A    between atoms: N_8  and  C_9
REMARK    2  A    between atoms: C_12  and  C_13
REMARK    3  A    between atoms: C_13  and  C_14
REMARK                            x       y       z     vdW  Elec       q    Type
REMARK                         _______ _______ _______ _____ _____    ______ ____
ROOT
ATOM      1  C   UNL     1      -0.098  10.930  19.614  0.00  0.00    +0.000 A 
ATOM      2  N   UNL     1       0.233  11.916  20.473  0.00  0.00    +0.000 NA
ATOM      3  N   UNL     1      -0.646  12.929  20.757  0.00  0.00    +0.000 NA
ATOM      4  C   UNL     1      -1.854  12.983  20.149  0.00  0.00    +0.000 A 
ATOM      5  C   UNL     1      -2.243  12.018  19.202  0.00  0.00    +0.000 A 
ATOM      6  C   UNL     1      -3.459  12.059  18.468  0.00  0.00    +0.000 A 
ATOM      7  C   UNL     1      -3.845  11.021  17.616  0.00  0.00    +0.000 A 
ATOM      8  C   UNL     1      -3.061   9.889  17.525  0.00  0.00    +0.000 A 
ATOM      9  C   UNL     1      -1.862   9.840  18.227  0.00  0.00    +0.000 A 
ATOM     10  C   UNL     1      -1.377  10.927  19.000  0.00  0.00    +0.000 A 
ENDROOT
BRANCH   1  18
ATOM     11  C   UNL     1       4.442   4.410  17.263  0.00  0.00    +0.000 A 
ATOM     12  C   UNL     1       4.948   5.674  17.001  0.00  0.00    +0.000 A 
ATOM     13  C   UNL     1       4.281   6.777  17.513  0.00  0.00    +0.000 A 
ATOM     14  C   UNL     1       3.120   6.612  18.273  0.00  0.00    +0.000 A 
ATOM     15  N   UNL     1       2.501   7.765  18.744  0.00  0.00    +0.000 N 
ATOM     16  C   UNL     1       1.613   7.661  19.925  0.00  0.00    +0.000 C 
ATOM     17  C   UNL     1       1.353   9.102  20.471  0.00  0.00    +0.000 C 
ATOM     18  N   UNL     1       0.804   9.909  19.365  0.00  0.00    +0.000 N 
ATOM     19  C   UNL     1       1.722  10.013  18.215  0.00  0.00    +0.000 C 
ATOM     20  C   UNL     1       1.918   8.588  17.663  0.00  0.00    +0.000 C 
ATOM     21  N   UNL     1       2.633   5.387  18.546  0.00  0.00    +0.000 NA
ATOM     22  C   UNL     1       3.296   4.323  18.030  0.00  0.00    +0.000 A 
ENDBRANCH   1  18
BRANCH   4  23
ATOM     23  C   UNL     1      -2.800  14.027  20.703  0.00  0.00    +0.000 C 
BRANCH  23  24
ATOM     24  C   UNL     1      -3.312  13.667  22.081  0.00  0.00    +0.000 A 
ATOM     25  C   UNL     1      -2.792  14.273  23.230  0.00  0.00    +0.000 A 
ATOM     26  C   UNL     1      -3.207  13.851  24.488  0.00  0.00    +0.000 A 
ATOM     27  C   UNL     1      -4.146  12.837  24.561  0.00  0.00    +0.000 A 
ATOM     28  N   UNL     1      -4.704  12.254  23.479  0.00  0.00    +0.000 NA
ATOM     29  C   UNL     1      -4.276  12.683  22.268  0.00  0.00    +0.000 A 
ENDBRANCH  23  24
ENDBRANCH   4  23
TORSDOF 3
ENDMDL
MODEL 5
REMARK VINA RESULT:      -8.2      1.516      1.756
REMARK  Name = 
REMARK  3 active torsions:
REMARK  status: ('A' for Active; 'I' for Inactive)
REMARK    1  A    between atoms: N_8  and  C_9
REMARK    2  A    between atoms: C_12  and  C_13
REMARK    3  A    between atoms: C_13  and  C_14
REMARK                            x       y       z     vdW  Elec       q    Type
REMARK                         _______ _______ _______ _____ _____    ______ ____
ROOT
ATOM      1  C   UNL     1       2.848   6.798  19.199  0.00  0.00    +0.000 A 
ATOM      2  N   UNL     1       3.851   7.048  18.331  0.00  0.00    +0.000 NA
ATOM      3  N   UNL     1       4.697   6.048  17.923  0.00  0.00    +0.000 NA
ATOM      4  C   UNL     1       4.566   4.794  18.414  0.00  0.00    +0.000 A 
ATOM      5  C   UNL     1       3.577   4.475  19.362  0.00  0.00    +0.000 A 
ATOM      6  C   UNL     1       3.437   3.203  19.979  0.00  0.00    +0.000 A 
ATOM      7  C   UNL     1       2.373   2.907  20.835  0.00  0.00    +0.000 A 
ATOM      8  C   UNL     1       1.389   3.852  21.048  0.00  0.00    +0.000 A 
ATOM      9  C   UNL     1       1.520   5.106  20.462  0.00  0.00    +0.000 A 
ATOM     10  C   UNL     1       2.650   5.483  19.691  0.00  0.00    +0.000 A 
ENDROOT
BRANCH   1  18
ATOM     11  C   UNL     1      -1.256  13.724  21.157  0.00  0.00    +0.000 A 
ATOM     12  C   UNL     1      -1.722  12.982  20.081  0.00  0.00    +0.000 A 
ATOM     13  C   UNL     1      -1.145  11.748  19.825  0.00  0.00    +0.000 A 
ATOM     14  C   UNL     1      -0.112  11.267  20.634  0.00  0.00    +0.000 A 
ATOM     15  N   UNL     1       0.424  10.025  20.308  0.00  0.00    +0.000 N 
ATOM     16  C   UNL     1       1.123   9.256  21.364  0.00  0.00    +0.000 C 
ATOM     17  C   UNL     1       1.291   7.785  20.867  0.00  0.00    +0.000 C 
ATOM     18  N   UNL     1       1.999   7.825  19.573  0.00  0.00    +0.000 N 
ATOM     19  C   UNL     1       1.266   8.577  18.538  0.00  0.00    +0.000 C 
ATOM     20  C   UNL     1       1.161  10.035  19.027  0.00  0.00    +0.000 C 
ATOM     21  N   UNL     1       0.334  11.973  21.690  0.00  0.00    +0.000 NA
ATOM     22  C   UNL     1      -0.240  13.181  21.919  0.00  0.00    +0.000 A 
ENDBRANCH   1  18
BRANCH   4  23
ATOM     23  C   UNL     1       5.423   3.750  17.730  0.00  0.00    +0.000 C 
BRANCH  23  24
ATOM     24  C   UNL     1       5.924   4.212  16.378  0.00  0.00    +0.000 A 
ATOM     25  C   UNL     1       5.236   3.893  15.202  0.00  0.00    +0.000 A 
ATOM     26  C   UNL     1       5.772   4.242  13.967  0.00  0.00    +0.000 A 
ATOM     27  C   UNL     1       6.982   4.914  13.944  0.00  0.00    +0.000 A 
ATOM     28  N   UNL     1       7.658   5.277  15.056  0.00  0.00    +0.000 NA
ATOM     29  C   UNL     1       7.114   4.919  16.242  0.00  0.00    +0.000 A 
ENDBRANCH  23  24
ENDBRANCH   4  23
TORSDOF 3
ENDMDL
MODEL 6
REMARK VINA RESULT:      -8.0      2.855     10.225
REMARK  Name = 
REMARK  3 active torsions:
REMARK  status: ('A' for Active; 'I' for Inactive)
REMARK    1  A    between atoms: N_8  and  C_9
REMARK    2  A    between atoms: C_12  and  C_13
REMARK    3  A    between atoms: C_13  and  C_14
REMARK                            x       y       z     vdW  Elec       q    Type
REMARK                         _______ _______ _______ _____ _____    ______ ____
ROOT
ATOM      1  C   UNL     1       0.650   9.939  20.189  0.00  0.00    +0.000 A 
ATOM      2  N   UNL     1       1.006  10.651  21.278  0.00  0.00    +0.000 NA
ATOM      3  N   UNL     1       0.393  11.841  21.575  0.00  0.00    +0.000 NA
ATOM      4  C   UNL     1      -0.559  12.347  20.757  0.00  0.00    +0.000 A 
ATOM      5  C   UNL     1      -0.941  11.685  19.576  0.00  0.00    +0.000 A 
ATOM      6  C   UNL     1      -1.871  12.199  18.632  0.00  0.00    +0.000 A 
ATOM      7  C   UNL     1      -2.295  11.454  17.529  0.00  0.00    +0.000 A 
ATOM      8  C   UNL     1      -1.851  10.156  17.374  0.00  0.00    +0.000 A 
ATOM      9  C   UNL     1      -0.930   9.644  18.281  0.00  0.00    +0.000 A 
ATOM     10  C   UNL     1      -0.381  10.415  19.339  0.00  0.00    +0.000 A 
ENDROOT
BRANCH   1  18
ATOM     11  C   UNL     1       3.463   2.536  17.753  0.00  0.00    +0.000 A 
ATOM     12  C   UNL     1       4.273   3.639  17.525  0.00  0.00    +0.000 A 
ATOM     13  C   UNL     1       3.893   4.864  18.053  0.00  0.00    +0.000 A 
ATOM     14  C   UNL     1       2.714   4.980  18.795  0.00  0.00    +0.000 A 
ATOM     15  N   UNL     1       2.393   6.242  19.283  0.00  0.00    +0.000 N 
ATOM     16  C   UNL     1       1.486   6.342  20.450  0.00  0.00    +0.000 C 
ATOM     17  C   UNL     1       1.584   7.791  21.024  0.00  0.00    +0.000 C 
ATOM     18  N   UNL     1       1.273   8.731  19.930  0.00  0.00    +0.000 N 
ATOM     19  C   UNL     1       2.208   8.622  18.794  0.00  0.00    +0.000 C 
ATOM     20  C   UNL     1       2.054   7.204  18.213  0.00  0.00    +0.000 C 
ATOM     21  N   UNL     1       1.931   3.911  19.034  0.00  0.00    +0.000 NA
ATOM     22  C   UNL     1       2.318   2.724  18.503  0.00  0.00    +0.000 A 
ENDBRANCH   1  18
BRANCH   4  23
ATOM     23  C   UNL     1      -1.294  13.552  21.305  0.00  0.00    +0.000 C 
BRANCH  23  24
ATOM     24  C   UNL     1      -2.606  13.177  21.958  0.00  0.00    +0.000 A 
ATOM     25  C   UNL     1      -3.832  13.519  21.375  0.00  0.00    +0.000 A 
ATOM     26  C   UNL     1      -5.021  13.253  22.047  0.00  0.00    +0.000 A 
ATOM     27  C   UNL     1      -4.949  12.637  23.284  0.00  0.00    +0.000 A 
ATOM     28  N   UNL     1      -3.791  12.254  23.864  0.00  0.00    +0.000 NA
ATOM     29  C   UNL     1      -2.652  12.531  23.189  0.00  0.00    +0.000 A 
ENDBRANCH  23  24
ENDBRANCH   4  23
TORSDOF 3
ENDMDL
MODEL 7
REMARK VINA RESULT:      -7.9      2.174     10.263
REMARK  Name = 
REMARK  3 active torsions:
REMARK  status: ('A' for Active; 'I' for Inactive)
REMARK    1  A    between atoms: N_8  and  C_9
REMARK    2  A    between atoms: C_12  and  C_13
REMARK    3  A    between atoms: C_13  and  C_14
REMARK                            x       y       z     vdW  Elec       q    Type
REMARK                         _______ _______ _______ _____ _____    ______ ____
ROOT
ATOM      1  C   UNL     1       0.389  10.027  20.081  0.00  0.00    +0.000 A 
ATOM      2  N   UNL     1       0.552  10.517  21.328  0.00  0.00    +0.000 NA
ATOM      3  N   UNL     1      -0.322  11.438  21.845  0.00  0.00    +0.000 NA
ATOM      4  C   UNL     1      -1.349  11.906  21.098  0.00  0.00    +0.000 A 
ATOM      5  C   UNL     1      -1.547  11.480  19.772  0.00  0.00    +0.000 A 
ATOM      6  C   UNL     1      -2.552  11.991  18.907  0.00  0.00    +0.000 A 
ATOM      7  C   UNL     1      -2.774  11.460  17.634  0.00  0.00    +0.000 A 
ATOM      8  C   UNL     1      -2.042  10.365  17.217  0.00  0.00    +0.000 A 
ATOM      9  C   UNL     1      -1.047   9.864  18.047  0.00  0.00    +0.000 A 
ATOM     10  C   UNL     1      -0.708  10.457  19.291  0.00  0.00    +0.000 A 
ENDROOT
BRANCH   1  18
ATOM     11  C   UNL     1       4.813   4.142  16.282  0.00  0.00    +0.000 A 
ATOM     12  C   UNL     1       5.317   5.434  16.270  0.00  0.00    +0.000 A 
ATOM     13  C   UNL     1       4.673   6.406  17.021  0.00  0.00    +0.000 A 
ATOM     14  C   UNL     1       3.537   6.086  17.770  0.00  0.00    +0.000 A 
ATOM     15  N   UNL     1       2.940   7.115  18.489  0.00  0.00    +0.000 N 
ATOM     16  C   UNL     1       2.092   6.768  19.652  0.00  0.00    +0.000 C 
ATOM     17  C   UNL     1       1.858   8.064  20.493  0.00  0.00    +0.000 C 
ATOM     18  N   UNL     1       1.276   9.082  19.597  0.00  0.00    +0.000 N 
ATOM     19  C   UNL     1       2.156   9.422  18.463  0.00  0.00    +0.000 C 
ATOM     20  C   UNL     1       2.326   8.143  17.621  0.00  0.00    +0.000 C 
ATOM     21  N   UNL     1       3.053   4.830  17.800  0.00  0.00    +0.000 NA
ATOM     22  C   UNL     1       3.693   3.896  17.053  0.00  0.00    +0.000 A 
ENDBRANCH   1  18
BRANCH   4  23
ATOM     23  C   UNL     1      -2.351  12.754  21.853  0.00  0.00    +0.000 C 
BRANCH  23  24
ATOM     24  C   UNL     1      -1.720  13.989  22.458  0.00  0.00    +0.000 A 
ATOM     25  C   UNL     1      -1.276  15.045  21.654  0.00  0.00    +0.000 A 
ATOM     26  C   UNL     1      -0.607  16.122  22.226  0.00  0.00    +0.000 A 
ATOM     27  C   UNL     1      -0.412  16.118  23.597  0.00  0.00    +0.000 A 
ATOM     28  N   UNL     1      -0.860  15.141  24.414  0.00  0.00    +0.000 NA
ATOM     29  C   UNL     1      -1.502  14.104  23.827  0.00  0.00    +0.000 A 
ENDBRANCH  23  24
ENDBRANCH   4  23
TORSDOF 3
ENDMDL
MODEL 8
REMARK VINA RESULT:      -7.9      3.003     10.491
REMARK  Name = 
REMARK  3 active torsions:
REMARK  status: ('A' for Active; 'I' for Inactive)
REMARK    1  A    between atoms: N_8  and  C_9
REMARK    2  A    between atoms: C_12  and  C_13
REMARK    3  A    between atoms: C_13  and  C_14
REMARK                            x       y       z     vdW  Elec       q    Type
REMARK                         _______ _______ _______ _____ _____    ______ ____
ROOT
ATOM      1  C   UNL     1      -0.858  10.632  19.364  0.00  0.00    +0.000 A 
ATOM      2  N   UNL     1      -0.972  11.442  20.438  0.00  0.00    +0.000 NA
ATOM      3  N   UNL     1      -2.029  12.305  20.562  0.00  0.00    +0.000 NA
ATOM      4  C   UNL     1      -2.964  12.392  19.588  0.00  0.00    +0.000 A 
ATOM      5  C   UNL     1      -2.880  11.617  18.416  0.00  0.00    +0.000 A 
ATOM      6  C   UNL     1      -3.778  11.718  17.321  0.00  0.00    +0.000 A 
ATOM      7  C   UNL     1      -3.712  10.853  16.226  0.00  0.00    +0.000 A 
ATOM      8  C   UNL     1      -2.790   9.826  16.227  0.00  0.00    +0.000 A 
ATOM      9  C   UNL     1      -1.895   9.723  17.285  0.00  0.00    +0.000 A 
ATOM     10  C   UNL     1      -1.850  10.660  18.350  0.00  0.00    +0.000 A 
ENDROOT
BRANCH   1  18
ATOM     11  C   UNL     1       4.763   4.676  18.113  0.00  0.00    +0.000 A 
ATOM     12  C   UNL     1       5.039   5.937  17.606  0.00  0.00    +0.000 A 
ATOM     13  C   UNL     1       4.187   6.984  17.927  0.00  0.00    +0.000 A 
ATOM     14  C   UNL     1       3.073   6.765  18.742  0.00  0.00    +0.000 A 
ATOM     15  N   UNL     1       2.259   7.861  19.011  0.00  0.00    +0.000 N 
ATOM     16  C   UNL     1       1.403   7.827  20.219  0.00  0.00    +0.000 C 
ATOM     17  C   UNL     1       0.892   9.277  20.497  0.00  0.00    +0.000 C 
ATOM     18  N   UNL     1       0.210   9.756  19.280  0.00  0.00    +0.000 N 
ATOM     19  C   UNL     1       1.096   9.799  18.102  0.00  0.00    +0.000 C 
ATOM     20  C   UNL     1       1.542   8.352  17.816  0.00  0.00    +0.000 C 
ATOM     21  N   UNL     1       2.809   5.548  19.252  0.00  0.00    +0.000 NA
ATOM     22  C   UNL     1       3.651   4.537  18.919  0.00  0.00    +0.000 A 
ENDBRANCH   1  18
BRANCH   4  23
ATOM     23  C   UNL     1      -4.178  13.226  19.942  0.00  0.00    +0.000 C 
BRANCH  23  24
ATOM     24  C   UNL     1      -5.332  12.381  20.438  0.00  0.00    +0.000 A 
ATOM     25  C   UNL     1      -6.032  11.531  19.574  0.00  0.00    +0.000 A 
ATOM     26  C   UNL     1      -7.152  10.844  20.030  0.00  0.00    +0.000 A 
ATOM     27  C   UNL     1      -7.533  11.018  21.349  0.00  0.00    +0.000 A 
ATOM     28  N   UNL     1      -6.863  11.796  22.227  0.00  0.00    +0.000 NA
ATOM     29  C   UNL     1      -5.781  12.455  21.752  0.00  0.00    +0.000 A 
ENDBRANCH  23  24
ENDBRANCH   4  23
TORSDOF 3
ENDMDL
MODEL 9
REMARK VINA RESULT:      -7.8      1.465      2.327
REMARK  Name = 
REMARK  3 active torsions:
REMARK  status: ('A' for Active; 'I' for Inactive)
REMARK    1  A    between atoms: N_8  and  C_9
REMARK    2  A    between atoms: C_12  and  C_13
REMARK    3  A    between atoms: C_13  and  C_14
REMARK                            x       y       z     vdW  Elec       q    Type
REMARK                         _______ _______ _______ _____ _____    ______ ____
ROOT
ATOM      1  C   UNL     1       2.583   6.822  18.710  0.00  0.00    +0.000 A 
ATOM      2  N   UNL     1       3.459   6.944  17.691  0.00  0.00    +0.000 NA
ATOM      3  N   UNL     1       4.098   5.847  17.174  0.00  0.00    +0.000 NA
ATOM      4  C   UNL     1       3.893   4.618  17.705  0.00  0.00    +0.000 A 
ATOM      5  C   UNL     1       3.035   4.426  18.803  0.00  0.00    +0.000 A 
ATOM      6  C   UNL     1       2.838   3.181  19.459  0.00  0.00    +0.000 A 
ATOM      7  C   UNL     1       1.896   3.022  20.479  0.00  0.00    +0.000 A 
ATOM      8  C   UNL     1       1.084   4.083  20.825  0.00  0.00    +0.000 A 
ATOM      9  C   UNL     1       1.274   5.310  20.201  0.00  0.00    +0.000 A 
ATOM     10  C   UNL     1       2.305   5.542  19.254  0.00  0.00    +0.000 A 
ENDROOT
BRANCH   1  18
ATOM     11  C   UNL     1      -2.301  12.787  21.745  0.00  0.00    +0.000 A 
ATOM     12  C   UNL     1      -1.200  12.410  22.500  0.00  0.00    +0.000 A 
ATOM     13  C   UNL     1      -0.288  11.523  21.950  0.00  0.00    +0.000 A 
ATOM     14  C   UNL     1      -0.482  11.016  20.661  0.00  0.00    +0.000 A 
ATOM     15  N   UNL     1       0.469  10.122  20.182  0.00  0.00    +0.000 N 
ATOM     16  C   UNL     1       0.608   9.954  18.716  0.00  0.00    +0.000 C 
ATOM     17  C   UNL     1       1.953   9.212  18.434  0.00  0.00    +0.000 C 
ATOM     18  N   UNL     1       1.938   7.947  19.194  0.00  0.00    +0.000 N 
ATOM     19  C   UNL     1       1.823   8.151  20.650  0.00  0.00    +0.000 C 
ATOM     20  C   UNL     1       0.466   8.834  20.907  0.00  0.00    +0.000 C 
ATOM     21  N   UNL     1      -1.539  11.390  19.916  0.00  0.00    +0.000 NA
ATOM     22  C   UNL     1      -2.422  12.254  20.477  0.00  0.00    +0.000 A 
ENDBRANCH   1  18
BRANCH   4  23
ATOM     23  C   UNL     1       4.494   3.475  16.914  0.00  0.00    +0.000 C 
BRANCH  23  24
ATOM     24  C   UNL     1       5.561   3.941  15.948  0.00  0.00    +0.000 A 
ATOM     25  C   UNL     1       6.698   4.623  16.396  0.00  0.00    +0.000 A 
ATOM     26  C   UNL     1       7.612   5.131  15.479  0.00  0.00    +0.000 A 
ATOM     27  C   UNL     1       7.367   4.928  14.132  0.00  0.00    +0.000 A 
ATOM     28  N   UNL     1       6.306   4.241  13.658  0.00  0.00    +0.000 NA
ATOM     29  C   UNL     1       5.432   3.764  14.575  0.00  0.00    +0.000 A 
ENDBRANCH  23  24
ENDBRANCH   4  23
TORSDOF 3
ENDMDL
