MODEL 1
REMARK VINA RESULT:      -8.1      0.000      0.000
REMARK  Name = 
REMARK  5 active torsions:
REMARK  status: ('A' for Active; 'I' for Inactive)
REMARK    1  A    between atoms: C_2  and  C_3
REMARK    2  A    between atoms: C_12  and  C_14
REMARK    3  A    between atoms: C_19  and  O_20
REMARK    4  A    between atoms: O_20  and  C_21
REMARK    5  A    between atoms: C_21  and  C_23
REMARK                            x       y       z     vdW  Elec       q    Type
REMARK                         _______ _______ _______ _____ _____    ______ ____
ROOT
ATOM      1  C   UNL     1      -0.125  10.465  19.262  0.00  0.00    +0.000 A 
ATOM      2  C   UNL     1      -1.364  10.298  18.619  0.00  0.00    +0.000 A 
ATOM      3  C   UNL     1      -2.073  11.371  18.059  0.00  0.00    +0.000 A 
ATOM      4  C   UNL     1      -1.503  12.631  18.014  0.00  0.00    +0.000 A 
ATOM      5  C   UNL     1      -0.216  12.803  18.499  0.00  0.00    +0.000 A 
ATOM      6  C   UNL     1       0.486  11.731  19.094  0.00  0.00    +0.000 A 
ENDROOT
BRANCH   1  13
ATOM      7  O   UNL     1       4.489   5.542  16.726  0.00  0.00    +0.000 OA
ATOM      8  C   UNL     1       3.910   5.267  17.784  0.00  0.00    +0.000 C 
ATOM      9  N   UNL     1       3.238   6.298  18.483  0.00  0.00    +0.000 N 
ATOM     10  C   UNL     1       2.503   6.133  19.744  0.00  0.00    +0.000 C 
ATOM     11  C   UNL     1       2.114   7.470  20.424  0.00  0.00    +0.000 C 
ATOM     12  N   UNL     1       1.475   8.437  19.513  0.00  0.00    +0.000 N 
ATOM     13  C   UNL     1       0.522   9.346  20.064  0.00  0.00    +0.000 C 
ATOM     14  O   UNL     1       0.156   9.224  21.235  0.00  0.00    +0.000 OA
ATOM     15  C   UNL     1       2.232   8.622  18.277  0.00  0.00    +0.000 C 
ATOM     16  C   UNL     1       2.749   7.351  17.608  0.00  0.00    +0.000 C 
BRANCH   8  17
ATOM     17  C   UNL     1       3.886   3.879  18.234  0.00  0.00    +0.000 A 
ATOM     18  C   UNL     1       3.141   2.828  17.730  0.00  0.00    +0.000 A 
ATOM     19  C   UNL     1       3.366   1.710  18.563  0.00  0.00    +0.000 A 
ATOM     20  C   UNL     1       4.235   2.141  19.534  0.00  0.00    +0.000 A 
ATOM     21  O   UNL     1       4.555   3.450  19.349  0.00  0.00    +0.000 OA
ENDBRANCH   8  17
ENDBRANCH   1  13
BRANCH   6  22
ATOM     22  O   UNL     1       1.775  12.042  19.591  0.00  0.00    +0.000 OA
BRANCH  22  23
ATOM     23  C   UNL     1       1.865  13.192  20.395  0.00  0.00    +0.000 C 
ATOM     24  O   UNL     1       1.421  13.289  21.535  0.00  0.00    +0.000 OA
BRANCH  23  25
ATOM     25  C   UNL     1       2.739  14.279  19.750  0.00  0.00    +0.000 C 
ATOM     26  C   UNL     1       3.278  13.889  18.357  0.00  0.00    +0.000 C 
ATOM     27  C   UNL     1       4.155  15.013  17.776  0.00  0.00    +0.000 C 
ATOM     28  C   UNL     1       3.318  16.294  17.649  0.00  0.00    +0.000 C 
ATOM     29  C   UNL     1       2.798  16.722  19.031  0.00  0.00    +0.000 C 
ATOM     30  C   UNL     1       3.993  16.975  19.966  0.00  0.00    +0.000 C 
ATOM     31  C   UNL     1       4.829  15.692  20.106  0.00  0.00    +0.000 C 
ATOM     32  C   UNL     1       5.342  15.275  18.718  0.00  0.00    +0.000 C 
ATOM     33  C   UNL     1       3.951  14.563  20.680  0.00  0.00    +0.000 C 
ATOM     34  C   UNL     1       1.927  15.593  19.614  0.00  0.00    +0.000 C 
ENDBRANCH  23  25
ENDBRANCH  22  23
ENDBRANCH   6  22
TORSDOF 5
ENDMDL
MODEL 2
REMARK VINA RESULT:      -8.1      0.159      1.256
REMARK  Name = 
REMARK  5 active torsions:
REMARK  status: ('A' for Active; 'I' for Inactive)
REMARK    1  A    between atoms: C_2  and  C_3
REMARK    2  A    between atoms: C_12  and  C_14
REMARK    3  A    between atoms: C_19  and  O_20
REMARK    4  A    between atoms: O_20  and  C_21
REMARK    5  A    between atoms: C_21  and  C_23
REMARK                            x       y       z     vdW  Elec       q    Type
REMARK                         _______ _______ _______ _____ _____    ______ ____
ROOT
ATOM      1  C   UNL     1      -0.140  10.371  19.178  0.00  0.00    +0.000 A 
ATOM      2  C   UNL     1      -1.394  10.173  18.576  0.00  0.00    +0.000 A 
ATOM      3  C   UNL     1      -2.128  11.221  18.000  0.00  0.00    +0.000 A 
ATOM      4  C   UNL     1      -1.570  12.483  17.898  0.00  0.00    +0.000 A 
ATOM      5  C   UNL     1      -0.272  12.682  18.343  0.00  0.00    +0.000 A 
ATOM      6  C   UNL     1       0.455  11.635  18.952  0.00  0.00    +0.000 A 
ENDROOT
BRANCH   1  13
ATOM      7  O   UNL     1       4.532   5.474  16.700  0.00  0.00    +0.000 OA
ATOM      8  C   UNL     1       3.973   5.214  17.772  0.00  0.00    +0.000 C 
ATOM      9  N   UNL     1       3.290   6.249  18.455  0.00  0.00    +0.000 N 
ATOM     10  C   UNL     1       2.575   6.101  19.729  0.00  0.00    +0.000 C 
ATOM     11  C   UNL     1       2.170   7.447  20.382  0.00  0.00    +0.000 C 
ATOM     12  N   UNL     1       1.501   8.379  19.456  0.00  0.00    +0.000 N 
ATOM     13  C   UNL     1       0.538   9.284  19.998  0.00  0.00    +0.000 C 
ATOM     14  O   UNL     1       0.190   9.183  21.177  0.00  0.00    +0.000 OA
ATOM     15  C   UNL     1       2.239   8.548  18.207  0.00  0.00    +0.000 C 
ATOM     16  C   UNL     1       2.771   7.271  17.562  0.00  0.00    +0.000 C 
BRANCH   8  17
ATOM     17  C   UNL     1       3.981   3.837  18.255  0.00  0.00    +0.000 A 
ATOM     18  C   UNL     1       3.210   2.773  17.825  0.00  0.00    +0.000 A 
ATOM     19  C   UNL     1       3.488   1.676  18.668  0.00  0.00    +0.000 A 
ATOM     20  C   UNL     1       4.415   2.132  19.573  0.00  0.00    +0.000 A 
ATOM     21  O   UNL     1       4.719   3.436  19.337  0.00  0.00    +0.000 OA
ENDBRANCH   8  17
ENDBRANCH   1  13
BRANCH   6  22
ATOM     22  O   UNL     1       1.754  11.973  19.404  0.00  0.00    +0.000 OA
BRANCH  22  23
ATOM     23  C   UNL     1       1.834  13.049  20.304  0.00  0.00    +0.000 C 
ATOM     24  O   UNL     1       1.425  13.029  21.461  0.00  0.00    +0.000 OA
BRANCH  23  25
ATOM     25  C   UNL     1       2.652  14.219  19.734  0.00  0.00    +0.000 C 
ATOM     26  C   UNL     1       1.805  15.476  19.440  0.00  0.00    +0.000 C 
ATOM     27  C   UNL     1       2.681  16.601  18.858  0.00  0.00    +0.000 C 
ATOM     28  C   UNL     1       3.779  16.961  19.869  0.00  0.00    +0.000 C 
ATOM     29  C   UNL     1       4.657  15.731  20.151  0.00  0.00    +0.000 C 
ATOM     30  C   UNL     1       5.300  15.254  18.837  0.00  0.00    +0.000 C 
ATOM     31  C   UNL     1       4.204  14.881  17.824  0.00  0.00    +0.000 C 
ATOM     32  C   UNL     1       3.333  16.118  17.551  0.00  0.00    +0.000 C 
ATOM     33  C   UNL     1       3.321  13.761  18.408  0.00  0.00    +0.000 C 
ATOM     34  C   UNL     1       3.778  14.604  20.725  0.00  0.00    +0.000 C 
ENDBRANCH  23  25
ENDBRANCH  22  23
ENDBRANCH   6  22
TORSDOF 5
ENDMDL
MODEL 3
REMARK VINA RESULT:      -8.1      0.162      1.310
REMARK  Name = 
REMARK  5 active torsions:
REMARK  status: ('A' for Active; 'I' for Inactive)
REMARK    1  A    between atoms: C_2  and  C_3
REMARK    2  A    between atoms: C_12  and  C_14
REMARK    3  A    between atoms: C_19  and  O_20
REMARK    4  A    between atoms: O_20  and  C_21
REMARK    5  A    between atoms: C_21  and  C_23
REMARK                            x       y       z     vdW  Elec       q    Type
REMARK                         _______ _______ _______ _____ _____    ______ ____
ROOT
ATOM      1  C   UNL     1      -0.187  10.433  19.197  0.00  0.00    +0.000 A 
ATOM      2  C   UNL     1      -1.455  10.259  18.615  0.00  0.00    +0.000 A 
ATOM      3  C   UNL     1      -2.174  11.318  18.042  0.00  0.00    +0.000 A 
ATOM      4  C   UNL     1      -1.589  12.567  17.921  0.00  0.00    +0.000 A 
ATOM      5  C   UNL     1      -0.280  12.739  18.344  0.00  0.00    +0.000 A 
ATOM      6  C   UNL     1       0.433  11.681  18.951  0.00  0.00    +0.000 A 
ENDROOT
BRANCH   1  13
ATOM      7  O   UNL     1       4.524   5.564  16.738  0.00  0.00    +0.000 OA
ATOM      8  C   UNL     1       3.949   5.292  17.799  0.00  0.00    +0.000 C 
ATOM      9  N   UNL     1       3.255   6.320  18.482  0.00  0.00    +0.000 N 
ATOM     10  C   UNL     1       2.521   6.157  19.744  0.00  0.00    +0.000 C 
ATOM     11  C   UNL     1       2.106   7.496  20.405  0.00  0.00    +0.000 C 
ATOM     12  N   UNL     1       1.450   8.439  19.479  0.00  0.00    +0.000 N 
ATOM     13  C   UNL     1       0.479   9.337  20.015  0.00  0.00    +0.000 C 
ATOM     14  O   UNL     1       0.112   9.224  21.187  0.00  0.00    +0.000 OA
ATOM     15  C   UNL     1       2.207   8.621  18.242  0.00  0.00    +0.000 C 
ATOM     16  C   UNL     1       2.749   7.351  17.592  0.00  0.00    +0.000 C 
BRANCH   8  17
ATOM     17  C   UNL     1       3.950   3.911  18.267  0.00  0.00    +0.000 A 
ATOM     18  C   UNL     1       3.261   2.829  17.749  0.00  0.00    +0.000 A 
ATOM     19  C   UNL     1       3.486   1.730  18.606  0.00  0.00    +0.000 A 
ATOM     20  C   UNL     1       4.300   2.202  19.606  0.00  0.00    +0.000 A 
ATOM     21  O   UNL     1       4.585   3.518  19.415  0.00  0.00    +0.000 OA
ENDBRANCH   8  17
ENDBRANCH   1  13
BRANCH   6  22
ATOM     22  O   UNL     1       1.746  11.993  19.380  0.00  0.00    +0.000 OA
BRANCH  22  23
ATOM     23  C   UNL     1       1.855  13.014  20.340  0.00  0.00    +0.000 C 
ATOM     24  O   UNL     1       1.464  12.932  21.501  0.00  0.00    +0.000 OA
BRANCH  23  25
ATOM     25  C   UNL     1       2.681  14.203  19.825  0.00  0.00    +0.000 C 
ATOM     26  C   UNL     1       3.861  14.579  20.747  0.00  0.00    +0.000 C 
ATOM     27  C   UNL     1       4.635  15.783  20.182  0.00  0.00    +0.000 C 
ATOM     28  C   UNL     1       5.180  15.427  18.791  0.00  0.00    +0.000 C 
ATOM     29  C   UNL     1       4.019  15.082  17.844  0.00  0.00    +0.000 C 
ATOM     30  C   UNL     1       3.076  16.293  17.736  0.00  0.00    +0.000 C 
ATOM     31  C   UNL     1       2.519  16.648  19.125  0.00  0.00    +0.000 C 
ATOM     32  C   UNL     1       3.688  16.990  20.061  0.00  0.00    +0.000 C 
ATOM     33  C   UNL     1       1.750  15.440  19.696  0.00  0.00    +0.000 C 
ATOM     34  C   UNL     1       3.241  13.882  18.416  0.00  0.00    +0.000 C 
ENDBRANCH  23  25
ENDBRANCH  22  23
ENDBRANCH   6  22
TORSDOF 5
ENDMDL
MODEL 4
REMARK VINA RESULT:      -8.0      5.930     10.381
REMARK  Name = 
REMARK  5 active torsions:
REMARK  status: ('A' for Active; 'I' for Inactive)
REMARK    1  A    between atoms: C_2  and  C_3
REMARK    2  A    between atoms: C_12  and  C_14
REMARK    3  A    between atoms: C_19  and  O_20
REMARK    4  A    between atoms: O_20  and  C_21
REMARK    5  A    between atoms: C_21  and  C_23
REMARK                            x       y       z     vdW  Elec       q    Type
REMARK                         _______ _______ _______ _____ _____    ______ ____
ROOT
ATOM      1  C   UNL     1       6.858   4.823  15.977  0.00  0.00    +0.000 A 
ATOM      2  C   UNL     1       7.383   5.162  14.718  0.00  0.00    +0.000 A 
ATOM      3  C   UNL     1       6.937   4.566  13.529  0.00  0.00    +0.000 A 
ATOM      4  C   UNL     1       5.859   3.698  13.551  0.00  0.00    +0.000 A 
ATOM      5  C   UNL     1       5.215   3.457  14.755  0.00  0.00    +0.000 A 
ATOM      6  C   UNL     1       5.684   4.032  15.957  0.00  0.00    +0.000 A 
ENDROOT
BRANCH   1  13
ATOM      7  O   UNL     1       8.072  11.678  17.845  0.00  0.00    +0.000 OA
ATOM      8  C   UNL     1       8.731  10.816  18.439  0.00  0.00    +0.000 C 
ATOM      9  N   UNL     1       8.330   9.462  18.342  0.00  0.00    +0.000 N 
ATOM     10  C   UNL     1       9.007   8.326  18.981  0.00  0.00    +0.000 C 
ATOM     11  C   UNL     1       8.193   7.007  18.941  0.00  0.00    +0.000 C 
ATOM     12  N   UNL     1       7.660   6.678  17.606  0.00  0.00    +0.000 N 
ATOM     13  C   UNL     1       7.500   5.299  17.270  0.00  0.00    +0.000 C 
ATOM     14  O   UNL     1       7.926   4.425  18.029  0.00  0.00    +0.000 OA
ATOM     15  C   UNL     1       6.957   7.803  16.994  0.00  0.00    +0.000 C 
ATOM     16  C   UNL     1       7.646   9.162  17.095  0.00  0.00    +0.000 C 
BRANCH   8  17
ATOM     17  C   UNL     1       9.933  11.221  19.160  0.00  0.00    +0.000 A 
ATOM     18  C   UNL     1      10.038  11.682  20.460  0.00  0.00    +0.000 A 
ATOM     19  C   UNL     1      11.383  12.057  20.672  0.00  0.00    +0.000 A 
ATOM     20  C   UNL     1      12.027  11.806  19.485  0.00  0.00    +0.000 A 
ATOM     21  O   UNL     1      11.162  11.304  18.563  0.00  0.00    +0.000 OA
ENDBRANCH   8  17
ENDBRANCH   1  13
BRANCH   6  22
ATOM     22  O   UNL     1       4.969   3.676  17.127  0.00  0.00    +0.000 OA
BRANCH  22  23
ATOM     23  C   UNL     1       4.063   4.635  17.612  0.00  0.00    +0.000 C 
ATOM     24  O   UNL     1       3.923   5.765  17.153  0.00  0.00    +0.000 OA
BRANCH  23  25
ATOM     25  C   UNL     1       3.132   4.056  18.689  0.00  0.00    +0.000 C 
ATOM     26  C   UNL     1       3.474   2.603  19.082  0.00  0.00    +0.000 C 
ATOM     27  C   UNL     1       2.497   2.080  20.150  0.00  0.00    +0.000 C 
ATOM     28  C   UNL     1       2.587   2.971  21.397  0.00  0.00    +0.000 C 
ATOM     29  C   UNL     1       2.216   4.419  21.037  0.00  0.00    +0.000 C 
ATOM     30  C   UNL     1       0.783   4.452  20.481  0.00  0.00    +0.000 C 
ATOM     31  C   UNL     1       0.689   3.569  19.224  0.00  0.00    +0.000 C 
ATOM     32  C   UNL     1       1.062   2.126  19.597  0.00  0.00    +0.000 C 
ATOM     33  C   UNL     1       1.672   4.086  18.156  0.00  0.00    +0.000 C 
ATOM     34  C   UNL     1       3.190   4.937  19.962  0.00  0.00    +0.000 C 
ENDBRANCH  23  25
ENDBRANCH  22  23
ENDBRANCH   6  22
TORSDOF 5
ENDMDL
MODEL 5
REMARK VINA RESULT:      -7.9      3.038      9.113
REMARK  Name = 
REMARK  5 active torsions:
REMARK  status: ('A' for Active; 'I' for Inactive)
REMARK    1  A    between atoms: C_2  and  C_3
REMARK    2  A    between atoms: C_12  and  C_14
REMARK    3  A    between atoms: C_19  and  O_20
REMARK    4  A    between atoms: O_20  and  C_21
REMARK    5  A    between atoms: C_21  and  C_23
REMARK                            x       y       z     vdW  Elec       q    Type
REMARK                         _______ _______ _______ _____ _____    ______ ____
ROOT
ATOM      1  C   UNL     1       2.087   4.416  19.997  0.00  0.00    +0.000 A 
ATOM      2  C   UNL     1       0.978   4.007  20.756  0.00  0.00    +0.000 A 
ATOM      3  C   UNL     1       0.960   2.804  21.478  0.00  0.00    +0.000 A 
ATOM      4  C   UNL     1       2.105   2.031  21.564  0.00  0.00    +0.000 A 
ATOM      5  C   UNL     1       3.266   2.480  20.955  0.00  0.00    +0.000 A 
ATOM      6  C   UNL     1       3.276   3.675  20.201  0.00  0.00    +0.000 A 
ENDROOT
BRANCH   1  13
ATOM      7  O   UNL     1       0.967  11.301  21.816  0.00  0.00    +0.000 OA
ATOM      8  C   UNL     1       0.742  10.994  20.639  0.00  0.00    +0.000 C 
ATOM      9  N   UNL     1       1.225   9.756  20.151  0.00  0.00    +0.000 N 
ATOM     10  C   UNL     1       1.037   9.248  18.786  0.00  0.00    +0.000 C 
ATOM     11  C   UNL     1       1.909   8.010  18.451  0.00  0.00    +0.000 C 
ATOM     12  N   UNL     1       1.848   6.947  19.471  0.00  0.00    +0.000 N 
ATOM     13  C   UNL     1       2.015   5.596  19.040  0.00  0.00    +0.000 C 
ATOM     14  O   UNL     1       2.070   5.334  17.836  0.00  0.00    +0.000 OA
ATOM     15  C   UNL     1       2.072   7.457  20.822  0.00  0.00    +0.000 C 
ATOM     16  C   UNL     1       1.333   8.742  21.186  0.00  0.00    +0.000 C 
BRANCH   8  17
ATOM     17  C   UNL     1      -0.069  11.889  19.820  0.00  0.00    +0.000 A 
ATOM     18  C   UNL     1      -1.448  11.971  19.749  0.00  0.00    +0.000 A 
ATOM     19  C   UNL     1      -1.768  12.901  18.735  0.00  0.00    +0.000 A 
ATOM     20  C   UNL     1      -0.563  13.335  18.239  0.00  0.00    +0.000 A 
ATOM     21  O   UNL     1       0.470  12.729  18.883  0.00  0.00    +0.000 OA
ENDBRANCH   8  17
ENDBRANCH   1  13
BRANCH   6  22
ATOM     22  O   UNL     1       4.510   4.006  19.592  0.00  0.00    +0.000 OA
BRANCH  22  23
ATOM     23  C   UNL     1       4.734   3.462  18.315  0.00  0.00    +0.000 C 
ATOM     24  O   UNL     1       4.299   2.383  17.925  0.00  0.00    +0.000 OA
BRANCH  23  25
ATOM     25  C   UNL     1       5.452   4.453  17.384  0.00  0.00    +0.000 C 
ATOM     26  C   UNL     1       6.983   4.262  17.346  0.00  0.00    +0.000 C 
ATOM     27  C   UNL     1       7.640   5.292  16.410  0.00  0.00    +0.000 C 
ATOM     28  C   UNL     1       7.077   5.117  14.991  0.00  0.00    +0.000 C 
ATOM     29  C   UNL     1       5.556   5.338  14.999  0.00  0.00    +0.000 C 
ATOM     30  C   UNL     1       5.251   6.758  15.505  0.00  0.00    +0.000 C 
ATOM     31  C   UNL     1       5.803   6.935  16.929  0.00  0.00    +0.000 C 
ATOM     32  C   UNL     1       7.324   6.712  16.909  0.00  0.00    +0.000 C 
ATOM     33  C   UNL     1       5.153   5.899  17.867  0.00  0.00    +0.000 C 
ATOM     34  C   UNL     1       4.902   4.311  15.942  0.00  0.00    +0.000 C 
ENDBRANCH  23  25
ENDBRANCH  22  23
ENDBRANCH   6  22
TORSDOF 5
ENDMDL
MODEL 6
REMARK VINA RESULT:      -7.9      2.742      9.187
REMARK  Name = 
REMARK  5 active torsions:
REMARK  status: ('A' for Active; 'I' for Inactive)
REMARK    1  A    between atoms: C_2  and  C_3
REMARK    2  A    between atoms: C_12  and  C_14
REMARK    3  A    between atoms: C_19  and  O_20
REMARK    4  A    between atoms: O_20  and  C_21
REMARK    5  A    between atoms: C_21  and  C_23
REMARK                            x       y       z     vdW  Elec       q    Type
REMARK                         _______ _______ _______ _____ _____    ______ ____
ROOT
ATOM      1  C   UNL     1       2.068   4.357  19.975  0.00  0.00    +0.000 A 
ATOM      2  C   UNL     1       0.947   3.953  20.720  0.00  0.00    +0.000 A 
ATOM      3  C   UNL     1       0.927   2.767  21.469  0.00  0.00    +0.000 A 
ATOM      4  C   UNL     1       2.077   2.009  21.597  0.00  0.00    +0.000 A 
ATOM      5  C   UNL     1       3.246   2.456  21.002  0.00  0.00    +0.000 A 
ATOM      6  C   UNL     1       3.260   3.633  20.221  0.00  0.00    +0.000 A 
ENDROOT
BRANCH   1  13
ATOM      7  O   UNL     1       1.161  11.312  21.639  0.00  0.00    +0.000 OA
ATOM      8  C   UNL     1       0.903  10.982  20.476  0.00  0.00    +0.000 C 
ATOM      9  N   UNL     1       1.344   9.720  20.009  0.00  0.00    +0.000 N 
ATOM     10  C   UNL     1       1.113   9.182  18.662  0.00  0.00    +0.000 C 
ATOM     11  C   UNL     1       1.946   7.915  18.341  0.00  0.00    +0.000 C 
ATOM     12  N   UNL     1       1.881   6.879  19.389  0.00  0.00    +0.000 N 
ATOM     13  C   UNL     1       2.004   5.514  18.990  0.00  0.00    +0.000 C 
ATOM     14  O   UNL     1       2.027   5.220  17.792  0.00  0.00    +0.000 OA
ATOM     15  C   UNL     1       2.147   7.417  20.721  0.00  0.00    +0.000 C 
ATOM     16  C   UNL     1       1.449   8.730  21.068  0.00  0.00    +0.000 C 
BRANCH   8  17
ATOM     17  C   UNL     1       0.096  11.876  19.652  0.00  0.00    +0.000 A 
ATOM     18  C   UNL     1       0.526  12.887  18.812  0.00  0.00    +0.000 A 
ATOM     19  C   UNL     1      -0.621  13.550  18.321  0.00  0.00    +0.000 A 
ATOM     20  C   UNL     1      -1.691  12.907  18.894  0.00  0.00    +0.000 A 
ATOM     21  O   UNL     1      -1.272  11.896  19.701  0.00  0.00    +0.000 OA
ENDBRANCH   8  17
ENDBRANCH   1  13
BRANCH   6  22
ATOM     22  O   UNL     1       4.504   3.964  19.630  0.00  0.00    +0.000 OA
BRANCH  22  23
ATOM     23  C   UNL     1       4.725   3.462  18.336  0.00  0.00    +0.000 C 
ATOM     24  O   UNL     1       4.321   2.378  17.924  0.00  0.00    +0.000 OA
BRANCH  23  25
ATOM     25  C   UNL     1       5.392   4.501  17.421  0.00  0.00    +0.000 C 
ATOM     26  C   UNL     1       5.125   5.960  17.849  0.00  0.00    +0.000 C 
ATOM     27  C   UNL     1       5.807   6.946  16.884  0.00  0.00    +0.000 C 
ATOM     28  C   UNL     1       7.322   6.693  16.890  0.00  0.00    +0.000 C 
ATOM     29  C   UNL     1       7.615   5.254  16.433  0.00  0.00    +0.000 C 
ATOM     30  C   UNL     1       7.062   5.050  15.013  0.00  0.00    +0.000 C 
ATOM     31  C   UNL     1       5.543   5.292  15.004  0.00  0.00    +0.000 C 
ATOM     32  C   UNL     1       5.263   6.732  15.462  0.00  0.00    +0.000 C 
ATOM     33  C   UNL     1       4.858   4.311  15.975  0.00  0.00    +0.000 C 
ATOM     34  C   UNL     1       6.925   4.269  17.394  0.00  0.00    +0.000 C 
ENDBRANCH  23  25
ENDBRANCH  22  23
ENDBRANCH   6  22
TORSDOF 5
ENDMDL
MODEL 7
REMARK VINA RESULT:      -7.9      5.770     10.284
REMARK  Name = 
REMARK  5 active torsions:
REMARK  status: ('A' for Active; 'I' for Inactive)
REMARK    1  A    between atoms: C_2  and  C_3
REMARK    2  A    between atoms: C_12  and  C_14
REMARK    3  A    between atoms: C_19  and  O_20
REMARK    4  A    between atoms: O_20  and  C_21
REMARK    5  A    between atoms: C_21  and  C_23
REMARK                            x       y       z     vdW  Elec       q    Type
REMARK                         _______ _______ _______ _____ _____    ______ ____
ROOT
ATOM      1  C   UNL     1       6.883   4.901  16.098  0.00  0.00    +0.000 A 
ATOM      2  C   UNL     1       7.407   5.168  14.821  0.00  0.00    +0.000 A 
ATOM      3  C   UNL     1       6.936   4.530  13.665  0.00  0.00    +0.000 A 
ATOM      4  C   UNL     1       5.835   3.693  13.734  0.00  0.00    +0.000 A 
ATOM      5  C   UNL     1       5.195   3.525  14.952  0.00  0.00    +0.000 A 
ATOM      6  C   UNL     1       5.689   4.142  16.123  0.00  0.00    +0.000 A 
ENDROOT
BRANCH   1  13
ATOM      7  O   UNL     1       8.029  11.818  17.770  0.00  0.00    +0.000 OA
ATOM      8  C   UNL     1       8.716  10.982  18.369  0.00  0.00    +0.000 C 
ATOM      9  N   UNL     1       8.335   9.620  18.314  0.00  0.00    +0.000 N 
ATOM     10  C   UNL     1       9.045   8.510  18.964  0.00  0.00    +0.000 C 
ATOM     11  C   UNL     1       8.253   7.178  18.975  0.00  0.00    +0.000 C 
ATOM     12  N   UNL     1       7.693   6.808  17.662  0.00  0.00    +0.000 N 
ATOM     13  C   UNL     1       7.548   5.419  17.364  0.00  0.00    +0.000 C 
ATOM     14  O   UNL     1       8.007   4.571  18.133  0.00  0.00    +0.000 OA
ATOM     15  C   UNL     1       6.957   7.907  17.040  0.00  0.00    +0.000 C 
ATOM     16  C   UNL     1       7.626   9.278  17.092  0.00  0.00    +0.000 C 
BRANCH   8  17
ATOM     17  C   UNL     1       9.928  11.423  19.051  0.00  0.00    +0.000 A 
ATOM     18  C   UNL     1      11.216  11.489  18.552  0.00  0.00    +0.000 A 
ATOM     19  C   UNL     1      12.067  11.864  19.615  0.00  0.00    +0.000 A 
ATOM     20  C   UNL     1      11.249  12.004  20.709  0.00  0.00    +0.000 A 
ATOM     21  O   UNL     1       9.956  11.738  20.383  0.00  0.00    +0.000 OA
ENDBRANCH   8  17
ENDBRANCH   1  13
BRANCH   6  22
ATOM     22  O   UNL     1       4.974   3.861  17.313  0.00  0.00    +0.000 OA
BRANCH  22  23
ATOM     23  C   UNL     1       4.088   4.860  17.752  0.00  0.00    +0.000 C 
ATOM     24  O   UNL     1       3.986   5.977  17.253  0.00  0.00    +0.000 OA
BRANCH  23  25
ATOM     25  C   UNL     1       3.126   4.343  18.833  0.00  0.00    +0.000 C 
ATOM     26  C   UNL     1       2.650   5.440  19.810  0.00  0.00    +0.000 C 
ATOM     27  C   UNL     1       1.704   4.854  20.873  0.00  0.00    +0.000 C 
ATOM     28  C   UNL     1       0.481   4.237  20.177  0.00  0.00    +0.000 C 
ATOM     29  C   UNL     1       0.929   3.117  19.225  0.00  0.00    +0.000 C 
ATOM     30  C   UNL     1       1.668   2.033  20.027  0.00  0.00    +0.000 C 
ATOM     31  C   UNL     1       2.900   2.642  20.717  0.00  0.00    +0.000 C 
ATOM     32  C   UNL     1       2.440   3.760  21.666  0.00  0.00    +0.000 C 
ATOM     33  C   UNL     1       3.845   3.238  19.655  0.00  0.00    +0.000 C 
ATOM     34  C   UNL     1       1.882   3.704  18.166  0.00  0.00    +0.000 C 
ENDBRANCH  23  25
ENDBRANCH  22  23
ENDBRANCH   6  22
TORSDOF 5
ENDMDL
MODEL 8
REMARK VINA RESULT:      -7.8      2.789      9.090
REMARK  Name = 
REMARK  5 active torsions:
REMARK  status: ('A' for Active; 'I' for Inactive)
REMARK    1  A    between atoms: C_2  and  C_3
REMARK    2  A    between atoms: C_12  and  C_14
REMARK    3  A    between atoms: C_19  and  O_20
REMARK    4  A    between atoms: O_20  and  C_21
REMARK    5  A    between atoms: C_21  and  C_23
REMARK                            x       y       z     vdW  Elec       q    Type
REMARK                         _______ _______ _______ _____ _____    ______ ____
ROOT
ATOM      1  C   UNL     1       2.062   4.373  19.969  0.00  0.00    +0.000 A 
ATOM      2  C   UNL     1       0.960   3.977  20.746  0.00  0.00    +0.000 A 
ATOM      3  C   UNL     1       0.952   2.791  21.494  0.00  0.00    +0.000 A 
ATOM      4  C   UNL     1       2.100   2.024  21.589  0.00  0.00    +0.000 A 
ATOM      5  C   UNL     1       3.256   2.463  20.962  0.00  0.00    +0.000 A 
ATOM      6  C   UNL     1       3.255   3.641  20.181  0.00  0.00    +0.000 A 
ENDROOT
BRANCH   1  13
ATOM      7  O   UNL     1       1.157  11.323  21.654  0.00  0.00    +0.000 OA
ATOM      8  C   UNL     1       0.881  10.993  20.494  0.00  0.00    +0.000 C 
ATOM      9  N   UNL     1       1.319   9.733  20.020  0.00  0.00    +0.000 N 
ATOM     10  C   UNL     1       1.069   9.195  18.676  0.00  0.00    +0.000 C 
ATOM     11  C   UNL     1       1.901   7.931  18.341  0.00  0.00    +0.000 C 
ATOM     12  N   UNL     1       1.856   6.894  19.388  0.00  0.00    +0.000 N 
ATOM     13  C   UNL     1       1.979   5.530  18.985  0.00  0.00    +0.000 C 
ATOM     14  O   UNL     1       1.983   5.238  17.787  0.00  0.00    +0.000 OA
ATOM     15  C   UNL     1       2.142   7.432  20.717  0.00  0.00    +0.000 C 
ATOM     16  C   UNL     1       1.445   8.743  21.076  0.00  0.00    +0.000 C 
BRANCH   8  17
ATOM     17  C   UNL     1       0.059  11.885  19.684  0.00  0.00    +0.000 A 
ATOM     18  C   UNL     1       0.470  12.808  18.740  0.00  0.00    +0.000 A 
ATOM     19  C   UNL     1      -0.674  13.514  18.308  0.00  0.00    +0.000 A 
ATOM     20  C   UNL     1      -1.724  12.984  19.016  0.00  0.00    +0.000 A 
ATOM     21  O   UNL     1      -1.295  12.002  19.853  0.00  0.00    +0.000 OA
ENDBRANCH   8  17
ENDBRANCH   1  13
BRANCH   6  22
ATOM     22  O   UNL     1       4.484   3.962  19.555  0.00  0.00    +0.000 OA
BRANCH  22  23
ATOM     23  C   UNL     1       4.677   3.433  18.266  0.00  0.00    +0.000 C 
ATOM     24  O   UNL     1       4.252   2.348  17.881  0.00  0.00    +0.000 OA
BRANCH  23  25
ATOM     25  C   UNL     1       5.343   4.446  17.321  0.00  0.00    +0.000 C 
ATOM     26  C   UNL     1       4.870   4.324  15.857  0.00  0.00    +0.000 C 
ATOM     27  C   UNL     1       5.585   5.355  14.964  0.00  0.00    +0.000 C 
ATOM     28  C   UNL     1       5.274   6.769  15.475  0.00  0.00    +0.000 C 
ATOM     29  C   UNL     1       5.767   6.925  16.922  0.00  0.00    +0.000 C 
ATOM     30  C   UNL     1       7.285   6.681  16.970  0.00  0.00    +0.000 C 
ATOM     31  C   UNL     1       7.602   5.261  16.470  0.00  0.00    +0.000 C 
ATOM     32  C   UNL     1       7.104   5.118  15.023  0.00  0.00    +0.000 C 
ATOM     33  C   UNL     1       6.881   4.228  17.358  0.00  0.00    +0.000 C 
ATOM     34  C   UNL     1       5.057   5.888  17.812  0.00  0.00    +0.000 C 
ENDBRANCH  23  25
ENDBRANCH  22  23
ENDBRANCH   6  22
TORSDOF 5
ENDMDL
MODEL 9
REMARK VINA RESULT:      -7.8      4.368      8.374
REMARK  Name = 
REMARK  5 active torsions:
REMARK  status: ('A' for Active; 'I' for Inactive)
REMARK    1  A    between atoms: C_2  and  C_3
REMARK    2  A    between atoms: C_12  and  C_14
REMARK    3  A    between atoms: C_19  and  O_20
REMARK    4  A    between atoms: O_20  and  C_21
REMARK    5  A    between atoms: C_21  and  C_23
REMARK                            x       y       z     vdW  Elec       q    Type
REMARK                         _______ _______ _______ _____ _____    ______ ____
ROOT
ATOM      1  C   UNL     1       5.967  16.916  20.321  0.00  0.00    +0.000 A 
ATOM      2  C   UNL     1       6.001  18.160  20.974  0.00  0.00    +0.000 A 
ATOM      3  C   UNL     1       6.930  18.456  21.982  0.00  0.00    +0.000 A 
ATOM      4  C   UNL     1       7.939  17.557  22.282  0.00  0.00    +0.000 A 
ATOM      5  C   UNL     1       8.031  16.383  21.551  0.00  0.00    +0.000 A 
ATOM      6  C   UNL     1       7.076  16.069  20.558  0.00  0.00    +0.000 A 
ENDROOT
BRANCH   1  13
ATOM      7  O   UNL     1       0.984  11.883  21.659  0.00  0.00    +0.000 OA
ATOM      8  C   UNL     1       1.138  12.209  20.476  0.00  0.00    +0.000 C 
ATOM      9  N   UNL     1       1.867  13.387  20.182  0.00  0.00    +0.000 N 
ATOM     10  C   UNL     1       2.141  13.904  18.835  0.00  0.00    +0.000 C 
ATOM     11  C   UNL     1       2.707  15.347  18.820  0.00  0.00    +0.000 C 
ATOM     12  N   UNL     1       3.831  15.555  19.752  0.00  0.00    +0.000 N 
ATOM     13  C   UNL     1       4.821  16.522  19.401  0.00  0.00    +0.000 C 
ATOM     14  O   UNL     1       4.796  17.058  18.291  0.00  0.00    +0.000 OA
ATOM     15  C   UNL     1       3.535  15.070  21.098  0.00  0.00    +0.000 C 
ATOM     16  C   UNL     1       2.869  13.699  21.188  0.00  0.00    +0.000 C 
BRANCH   8  17
ATOM     17  C   UNL     1       0.623  11.333  19.430  0.00  0.00    +0.000 A 
ATOM     18  C   UNL     1      -0.677  11.221  18.969  0.00  0.00    +0.000 A 
ATOM     19  C   UNL     1      -0.708  10.162  18.036  0.00  0.00    +0.000 A 
ATOM     20  C   UNL     1       0.576   9.681  17.981  0.00  0.00    +0.000 A 
ATOM     21  O   UNL     1       1.390  10.377  18.820  0.00  0.00    +0.000 OA
ENDBRANCH   8  17
ENDBRANCH   1  13
BRANCH   6  22
ATOM     22  O   UNL     1       7.252  14.822  19.910  0.00  0.00    +0.000 OA
BRANCH  22  23
ATOM     23  C   UNL     1       8.259  14.772  18.930  0.00  0.00    +0.000 C 
ATOM     24  O   UNL     1       8.507  15.671  18.132  0.00  0.00    +0.000 OA
BRANCH  23  25
ATOM     25  C   UNL     1       9.141  13.522  19.073  0.00  0.00    +0.000 C 
ATOM     26  C   UNL     1       9.018  12.836  20.450  0.00  0.00    +0.000 C 
ATOM     27  C   UNL     1       9.936  11.603  20.531  0.00  0.00    +0.000 C 
ATOM     28  C   UNL     1       9.539  10.603  19.435  0.00  0.00    +0.000 C 
ATOM     29  C   UNL     1       9.688  11.255  18.051  0.00  0.00    +0.000 C 
ATOM     30  C   UNL     1      11.149  11.690  17.849  0.00  0.00    +0.000 C 
ATOM     31  C   UNL     1      11.549  12.700  18.937  0.00  0.00    +0.000 C 
ATOM     32  C   UNL     1      11.396  12.037  20.316  0.00  0.00    +0.000 C 
ATOM     33  C   UNL     1      10.626  13.931  18.863  0.00  0.00    +0.000 C 
ATOM     34  C   UNL     1       8.774  12.492  17.974  0.00  0.00    +0.000 C 
ENDBRANCH  23  25
ENDBRANCH  22  23
ENDBRANCH   6  22
TORSDOF 5
ENDMDL
