MODEL 1
REMARK VINA RESULT:      -8.0      0.000      0.000
REMARK  Name = 
REMARK  1 active torsions:
REMARK  status: ('A' for Active; 'I' for Inactive)
REMARK    1  A    between atoms: C_4  and  C_5
REMARK                            x       y       z     vdW  Elec       q    Type
REMARK                         _______ _______ _______ _____ _____    ______ ____
ROOT
ATOM      1  O   UNL     1       1.840   5.680  21.079  0.00  0.00    +0.000 OA
ATOM      2  C   UNL     1       2.298   6.300  20.125  0.00  0.00    +0.000 A 
ATOM      3  N   UNL     1       3.337   5.786  19.382  0.00  0.00    +0.000 N 
ATOM      4  C   UNL     1       3.895   6.430  18.290  0.00  0.00    +0.000 A 
ATOM      5  N   UNL     1       3.467   7.572  17.846  0.00  0.00    +0.000 NA
ATOM      6  C   UNL     1       2.452   8.124  18.557  0.00  0.00    +0.000 A 
ATOM      7  S   UNL     1       1.809   9.642  18.134  0.00  0.00    +0.000 S 
ATOM      8  C   UNL     1       0.732   9.630  19.458  0.00  0.00    +0.000 A 
ATOM      9  C   UNL     1       0.827   8.471  20.211  0.00  0.00    +0.000 A 
ATOM     10  C   UNL     1       1.833   7.597  19.672  0.00  0.00    +0.000 A 
ATOM     11  C   UNL     1       0.000   8.232  21.442  0.00  0.00    +0.000 C 
ATOM     12  C   UNL     1       0.267   9.277  22.529  0.00  0.00    +0.000 C 
ATOM     13  C   UNL     1      -0.408  10.630  22.277  0.00  0.00    +0.000 C 
ATOM     14  C   UNL     1       0.134  11.433  21.088  0.00  0.00    +0.000 C 
ATOM     15  C   UNL     1      -0.156  10.809  19.721  0.00  0.00    +0.000 C 
ATOM     16  H   UNL     1       3.638   4.869  19.671  0.00  0.00    +0.000 HD
ENDROOT
BRANCH   4  17
ATOM     17  C   UNL     1       5.036   5.750  17.623  0.00  0.00    +0.000 A 
ATOM     18  C   UNL     1       6.200   5.504  18.365  0.00  0.00    +0.000 A 
ATOM     19  C   UNL     1       7.272   4.823  17.787  0.00  0.00    +0.000 A 
ATOM     20  C   UNL     1       7.186   4.381  16.468  0.00  0.00    +0.000 A 
ATOM     21  C   UNL     1       6.027   4.622  15.732  0.00  0.00    +0.000 A 
ATOM     22 BR   UNL     1       5.904   4.006  13.948  0.00  0.00    +0.000 Br
ATOM     23  C   UNL     1       4.948   5.299  16.300  0.00  0.00    +0.000 A 
ENDBRANCH   4  17
TORSDOF 1
ENDMDL
MODEL 2
REMARK VINA RESULT:      -7.9      3.585      7.803
REMARK  Name = 
REMARK  1 active torsions:
REMARK  status: ('A' for Active; 'I' for Inactive)
REMARK    1  A    between atoms: C_4  and  C_5
REMARK                            x       y       z     vdW  Elec       q    Type
REMARK                         _______ _______ _______ _____ _____    ______ ____
ROOT
ATOM      1  O   UNL     1       2.572   9.179  17.057  0.00  0.00    +0.000 OA
ATOM      2  C   UNL     1       2.285   8.648  18.126  0.00  0.00    +0.000 A 
ATOM      3  N   UNL     1       1.464   9.281  19.031  0.00  0.00    +0.000 N 
ATOM      4  C   UNL     1       1.096   8.736  20.249  0.00  0.00    +0.000 A 
ATOM      5  N   UNL     1       1.471   7.556  20.639  0.00  0.00    +0.000 NA
ATOM      6  C   UNL     1       2.295   6.899  19.784  0.00  0.00    +0.000 A 
ATOM      7  S   UNL     1       2.916   5.362  20.170  0.00  0.00    +0.000 S 
ATOM      8  C   UNL     1       3.832   5.297  18.731  0.00  0.00    +0.000 A 
ATOM      9  C   UNL     1       3.655   6.418  17.936  0.00  0.00    +0.000 A 
ATOM     10  C   UNL     1       2.752   7.346  18.561  0.00  0.00    +0.000 A 
ATOM     11  C   UNL     1       4.372   6.608  16.631  0.00  0.00    +0.000 C 
ATOM     12  C   UNL     1       5.893   6.645  16.806  0.00  0.00    +0.000 C 
ATOM     13  C   UNL     1       6.533   5.267  17.014  0.00  0.00    +0.000 C 
ATOM     14  C   UNL     1       6.194   4.569  18.336  0.00  0.00    +0.000 C 
ATOM     15  C   UNL     1       4.733   4.130  18.461  0.00  0.00    +0.000 C 
ATOM     16  H   UNL     1       1.108  10.170  18.716  0.00  0.00    +0.000 HD
ENDROOT
BRANCH   4  17
ATOM     17  C   UNL     1       0.231   9.571  21.123  0.00  0.00    +0.000 A 
ATOM     18  C   UNL     1       0.106   9.223  22.474  0.00  0.00    +0.000 A 
ATOM     19  C   UNL     1      -0.657  10.013  23.336  0.00  0.00    +0.000 A 
ATOM     20  C   UNL     1      -1.293  11.155  22.854  0.00  0.00    +0.000 A 
ATOM     21  C   UNL     1      -1.164  11.503  21.510  0.00  0.00    +0.000 A 
ATOM     22 BR   UNL     1      -2.013  13.063  20.859  0.00  0.00    +0.000 Br
ATOM     23  C   UNL     1      -0.403  10.723  20.640  0.00  0.00    +0.000 A 
ENDBRANCH   4  17
TORSDOF 1
ENDMDL
MODEL 3
REMARK VINA RESULT:      -7.7      3.214      4.560
REMARK  Name = 
REMARK  1 active torsions:
REMARK  status: ('A' for Active; 'I' for Inactive)
REMARK    1  A    between atoms: C_4  and  C_5
REMARK                            x       y       z     vdW  Elec       q    Type
REMARK                         _______ _______ _______ _____ _____    ______ ____
ROOT
ATOM      1  O   UNL     1       1.019  10.717  18.314  0.00  0.00    +0.000 OA
ATOM      2  C   UNL     1       0.993   9.962  19.282  0.00  0.00    +0.000 A 
ATOM      3  N   UNL     1       1.558   8.709  19.214  0.00  0.00    +0.000 N 
ATOM      4  C   UNL     1       1.569   7.812  20.269  0.00  0.00    +0.000 A 
ATOM      5  N   UNL     1       1.070   8.084  21.437  0.00  0.00    +0.000 NA
ATOM      6  C   UNL     1       0.489   9.305  21.545  0.00  0.00    +0.000 A 
ATOM      7  S   UNL     1      -0.256   9.796  22.995  0.00  0.00    +0.000 S 
ATOM      8  C   UNL     1      -0.753  11.281  22.315  0.00  0.00    +0.000 A 
ATOM      9  C   UNL     1      -0.338  11.431  21.001  0.00  0.00    +0.000 A 
ATOM     10  C   UNL     1       0.390  10.270  20.564  0.00  0.00    +0.000 A 
ATOM     11  C   UNL     1      -0.672  12.641  20.178  0.00  0.00    +0.000 C 
ATOM     12  C   UNL     1      -2.182  12.821  20.000  0.00  0.00    +0.000 C 
ATOM     13  C   UNL     1      -2.893  13.400  21.230  0.00  0.00    +0.000 C 
ATOM     14  C   UNL     1      -2.942  12.487  22.461  0.00  0.00    +0.000 C 
ATOM     15  C   UNL     1      -1.581  12.240  23.116  0.00  0.00    +0.000 C 
ATOM     16  H   UNL     1       2.010   8.505  18.337  0.00  0.00    +0.000 HD
ENDROOT
BRANCH   4  17
ATOM     17  C   UNL     1       2.190   6.486  20.014  0.00  0.00    +0.000 A 
ATOM     18  C   UNL     1       3.202   6.392  19.049  0.00  0.00    +0.000 A 
ATOM     19  C   UNL     1       3.843   5.174  18.818  0.00  0.00    +0.000 A 
ATOM     20  C   UNL     1       3.480   4.046  19.552  0.00  0.00    +0.000 A 
ATOM     21  C   UNL     1       2.475   4.141  20.514  0.00  0.00    +0.000 A 
ATOM     22 BR   UNL     1       1.994   2.615  21.522  0.00  0.00    +0.000 Br
ATOM     23  C   UNL     1       1.830   5.354  20.756  0.00  0.00    +0.000 A 
ENDBRANCH   4  17
TORSDOF 1
ENDMDL
MODEL 4
REMARK VINA RESULT:      -7.6      2.673      3.983
REMARK  Name = 
REMARK  1 active torsions:
REMARK  status: ('A' for Active; 'I' for Inactive)
REMARK    1  A    between atoms: C_4  and  C_5
REMARK                            x       y       z     vdW  Elec       q    Type
REMARK                         _______ _______ _______ _____ _____    ______ ____
ROOT
ATOM      1  O   UNL     1       1.283  10.488  18.212  0.00  0.00    +0.000 OA
ATOM      2  C   UNL     1       1.231   9.719  19.168  0.00  0.00    +0.000 A 
ATOM      3  N   UNL     1       1.766   8.453  19.085  0.00  0.00    +0.000 N 
ATOM      4  C   UNL     1       1.747   7.541  20.126  0.00  0.00    +0.000 A 
ATOM      5  N   UNL     1       1.246   7.808  21.294  0.00  0.00    +0.000 NA
ATOM      6  C   UNL     1       0.694   9.041  21.417  0.00  0.00    +0.000 A 
ATOM      7  S   UNL     1      -0.049   9.528  22.868  0.00  0.00    +0.000 S 
ATOM      8  C   UNL     1      -0.504  11.035  22.208  0.00  0.00    +0.000 A 
ATOM      9  C   UNL     1      -0.075  11.195  20.900  0.00  0.00    +0.000 A 
ATOM     10  C   UNL     1       0.627  10.023  20.450  0.00  0.00    +0.000 A 
ATOM     11  C   UNL     1      -0.373  12.425  20.092  0.00  0.00    +0.000 C 
ATOM     12  C   UNL     1      -1.877  12.645  19.907  0.00  0.00    +0.000 C 
ATOM     13  C   UNL     1      -2.582  13.223  21.140  0.00  0.00    +0.000 C 
ATOM     14  C   UNL     1      -2.663  12.293  22.357  0.00  0.00    +0.000 C 
ATOM     15  C   UNL     1      -1.313  12.002  23.018  0.00  0.00    +0.000 C 
ATOM     16  H   UNL     1       2.218   8.252  18.208  0.00  0.00    +0.000 HD
ENDROOT
BRANCH   4  17
ATOM     17  C   UNL     1       2.336   6.203  19.854  0.00  0.00    +0.000 A 
ATOM     18  C   UNL     1       2.069   5.157  20.748  0.00  0.00    +0.000 A 
ATOM     19  C   UNL     1       2.564   3.876  20.499  0.00  0.00    +0.000 A 
ATOM     20  C   UNL     1       3.323   3.633  19.356  0.00  0.00    +0.000 A 
ATOM     21  C   UNL     1       3.585   4.674  18.466  0.00  0.00    +0.000 A 
ATOM     22 BR   UNL     1       4.601   4.339  16.906  0.00  0.00    +0.000 Br
ATOM     23  C   UNL     1       3.094   5.957  18.703  0.00  0.00    +0.000 A 
ENDBRANCH   4  17
TORSDOF 1
ENDMDL
MODEL 5
REMARK VINA RESULT:      -7.4      2.251      3.328
REMARK  Name = 
REMARK  1 active torsions:
REMARK  status: ('A' for Active; 'I' for Inactive)
REMARK    1  A    between atoms: C_4  and  C_5
REMARK                            x       y       z     vdW  Elec       q    Type
REMARK                         _______ _______ _______ _____ _____    ______ ____
ROOT
ATOM      1  O   UNL     1       2.097  10.692  17.353  0.00  0.00    +0.000 OA
ATOM      2  C   UNL     1       1.997   9.755  18.140  0.00  0.00    +0.000 A 
ATOM      3  N   UNL     1       2.482   8.508  17.817  0.00  0.00    +0.000 N 
ATOM      4  C   UNL     1       2.408   7.412  18.660  0.00  0.00    +0.000 A 
ATOM      5  N   UNL     1       1.898   7.468  19.853  0.00  0.00    +0.000 NA
ATOM      6  C   UNL     1       1.393   8.677  20.208  0.00  0.00    +0.000 A 
ATOM      7  S   UNL     1       0.645   8.904  21.720  0.00  0.00    +0.000 S 
ATOM      8  C   UNL     1       0.262  10.528  21.361  0.00  0.00    +0.000 A 
ATOM      9  C   UNL     1       0.720  10.921  20.114  0.00  0.00    +0.000 A 
ATOM     10  C   UNL     1       1.383   9.830  19.451  0.00  0.00    +0.000 A 
ATOM     11  C   UNL     1       0.486  12.296  19.558  0.00  0.00    +0.000 C 
ATOM     12  C   UNL     1      -1.004  12.612  19.405  0.00  0.00    +0.000 C 
ATOM     13  C   UNL     1      -1.707  12.969  20.720  0.00  0.00    +0.000 C 
ATOM     14  C   UNL     1      -1.847  11.825  21.731  0.00  0.00    +0.000 C 
ATOM     15  C   UNL     1      -0.523  11.353  22.336  0.00  0.00    +0.000 C 
ATOM     16  H   UNL     1       2.942   8.462  16.922  0.00  0.00    +0.000 HD
ENDROOT
BRANCH   4  17
ATOM     17  C   UNL     1       2.949   6.129  18.139  0.00  0.00    +0.000 A 
ATOM     18  C   UNL     1       2.126   4.995  18.163  0.00  0.00    +0.000 A 
ATOM     19  C   UNL     1       2.582   3.785  17.636  0.00  0.00    +0.000 A 
ATOM     20  C   UNL     1       3.857   3.704  17.081  0.00  0.00    +0.000 A 
ATOM     21  C   UNL     1       4.673   4.834  17.054  0.00  0.00    +0.000 A 
ATOM     22 BR   UNL     1       6.397   4.728  16.285  0.00  0.00    +0.000 Br
ATOM     23  C   UNL     1       4.228   6.049  17.575  0.00  0.00    +0.000 A 
ENDBRANCH   4  17
TORSDOF 1
ENDMDL
MODEL 6
REMARK VINA RESULT:      -7.4      2.966      3.950
REMARK  Name = 
REMARK  1 active torsions:
REMARK  status: ('A' for Active; 'I' for Inactive)
REMARK    1  A    between atoms: C_4  and  C_5
REMARK                            x       y       z     vdW  Elec       q    Type
REMARK                         _______ _______ _______ _____ _____    ______ ____
ROOT
ATOM      1  O   UNL     1       2.077   9.270  17.533  0.00  0.00    +0.000 OA
ATOM      2  C   UNL     1       1.846   8.740  18.616  0.00  0.00    +0.000 A 
ATOM      3  N   UNL     1       2.135   7.410  18.826  0.00  0.00    +0.000 N 
ATOM      4  C   UNL     1       1.907   6.753  20.023  0.00  0.00    +0.000 A 
ATOM      5  N   UNL     1       1.424   7.343  21.075  0.00  0.00    +0.000 NA
ATOM      6  C   UNL     1       1.110   8.652  20.909  0.00  0.00    +0.000 A 
ATOM      7  S   UNL     1       0.421   9.556  22.176  0.00  0.00    +0.000 S 
ATOM      8  C   UNL     1       0.281  10.947  21.197  0.00  0.00    +0.000 A 
ATOM      9  C   UNL     1       0.779  10.752  19.919  0.00  0.00    +0.000 A 
ATOM     10  C   UNL     1       1.264   9.407  19.764  0.00  0.00    +0.000 A 
ATOM     11  C   UNL     1       0.748  11.819  18.863  0.00  0.00    +0.000 C 
ATOM     12  C   UNL     1      -0.680  12.258  18.527  0.00  0.00    +0.000 C 
ATOM     13  C   UNL     1      -1.308  13.196  19.565  0.00  0.00    +0.000 C 
ATOM     14  C   UNL     1      -1.606  12.570  20.933  0.00  0.00    +0.000 C 
ATOM     15  C   UNL     1      -0.360  12.190  21.736  0.00  0.00    +0.000 C 
ATOM     16  H   UNL     1       2.574   6.953  18.043  0.00  0.00    +0.000 HD
ENDROOT
BRANCH   4  17
ATOM     17  C   UNL     1       2.244   5.306  20.068  0.00  0.00    +0.000 A 
ATOM     18  C   UNL     1       2.081   4.615  21.276  0.00  0.00    +0.000 A 
ATOM     19  C   UNL     1       2.338   3.245  21.343  0.00  0.00    +0.000 A 
ATOM     20  C   UNL     1       2.756   2.559  20.204  0.00  0.00    +0.000 A 
ATOM     21  C   UNL     1       2.915   3.247  19.001  0.00  0.00    +0.000 A 
ATOM     22 BR   UNL     1       3.465   2.312  17.452  0.00  0.00    +0.000 Br
ATOM     23  C   UNL     1       2.658   4.616  18.922  0.00  0.00    +0.000 A 
ENDBRANCH   4  17
TORSDOF 1
ENDMDL
MODEL 7
REMARK VINA RESULT:      -7.3      2.822      3.750
REMARK  Name = 
REMARK  1 active torsions:
REMARK  status: ('A' for Active; 'I' for Inactive)
REMARK    1  A    between atoms: C_4  and  C_5
REMARK                            x       y       z     vdW  Elec       q    Type
REMARK                         _______ _______ _______ _____ _____    ______ ____
ROOT
ATOM      1  O   UNL     1       1.857  10.038  17.435  0.00  0.00    +0.000 OA
ATOM      2  C   UNL     1       1.779   9.324  18.430  0.00  0.00    +0.000 A 
ATOM      3  N   UNL     1       2.281   8.042  18.419  0.00  0.00    +0.000 N 
ATOM      4  C   UNL     1       2.231   7.188  19.507  0.00  0.00    +0.000 A 
ATOM      5  N   UNL     1       1.730   7.530  20.656  0.00  0.00    +0.000 NA
ATOM      6  C   UNL     1       1.210   8.782  20.708  0.00  0.00    +0.000 A 
ATOM      7  S   UNL     1       0.471   9.366  22.126  0.00  0.00    +0.000 S 
ATOM      8  C   UNL     1       0.059  10.846  21.382  0.00  0.00    +0.000 A 
ATOM      9  C   UNL     1       0.500  10.924  20.070  0.00  0.00    +0.000 A 
ATOM     10  C   UNL     1       1.174   9.712  19.690  0.00  0.00    +0.000 A 
ATOM     11  C   UNL     1       0.240  12.116  19.196  0.00  0.00    +0.000 C 
ATOM     12  C   UNL     1      -1.256  12.365  18.987  0.00  0.00    +0.000 C 
ATOM     13  C   UNL     1      -1.954  13.026  20.182  0.00  0.00    +0.000 C 
ATOM     14  C   UNL     1      -2.067  12.165  21.446  0.00  0.00    +0.000 C 
ATOM     15  C   UNL     1      -0.730  11.876  22.132  0.00  0.00    +0.000 C 
ATOM     16  H   UNL     1       2.734   7.782  17.558  0.00  0.00    +0.000 HD
ENDROOT
BRANCH   4  17
ATOM     17  C   UNL     1       2.787   5.823  19.313  0.00  0.00    +0.000 A 
ATOM     18  C   UNL     1       4.177   5.652  19.349  0.00  0.00    +0.000 A 
ATOM     19  C   UNL     1       4.733   4.378  19.221  0.00  0.00    +0.000 A 
ATOM     20  C   UNL     1       3.904   3.270  19.061  0.00  0.00    +0.000 A 
ATOM     21  C   UNL     1       2.520   3.440  19.028  0.00  0.00    +0.000 A 
ATOM     22 BR   UNL     1       1.394   1.934  18.828  0.00  0.00    +0.000 Br
ATOM     23  C   UNL     1       1.953   4.708  19.158  0.00  0.00    +0.000 A 
ENDBRANCH   4  17
TORSDOF 1
ENDMDL
MODEL 8
REMARK VINA RESULT:      -7.2      3.579      7.083
REMARK  Name = 
REMARK  1 active torsions:
REMARK  status: ('A' for Active; 'I' for Inactive)
REMARK    1  A    between atoms: C_4  and  C_5
REMARK                            x       y       z     vdW  Elec       q    Type
REMARK                         _______ _______ _______ _____ _____    ______ ____
ROOT
ATOM      1  O   UNL     1       0.800   7.924  21.782  0.00  0.00    +0.000 OA
ATOM      2  C   UNL     1       1.193   8.352  20.700  0.00  0.00    +0.000 A 
ATOM      3  N   UNL     1       0.981   9.665  20.343  0.00  0.00    +0.000 N 
ATOM      4  C   UNL     1       1.403  10.214  19.144  0.00  0.00    +0.000 A 
ATOM      5  N   UNL     1       2.068   9.544  18.253  0.00  0.00    +0.000 NA
ATOM      6  C   UNL     1       2.288   8.240  18.557  0.00  0.00    +0.000 A 
ATOM      7  S   UNL     1       3.103   7.212  17.473  0.00  0.00    +0.000 S 
ATOM      8  C   UNL     1       2.903   5.862  18.497  0.00  0.00    +0.000 A 
ATOM      9  C   UNL     1       2.247   6.179  19.676  0.00  0.00    +0.000 A 
ATOM     10  C   UNL     1       1.896   7.574  19.700  0.00  0.00    +0.000 A 
ATOM     11  C   UNL     1       1.929   5.158  20.729  0.00  0.00    +0.000 C 
ATOM     12  C   UNL     1       1.008   4.053  20.204  0.00  0.00    +0.000 C 
ATOM     13  C   UNL     1       1.717   3.008  19.333  0.00  0.00    +0.000 C 
ATOM     14  C   UNL     1       2.226   3.508  17.976  0.00  0.00    +0.000 C 
ATOM     15  C   UNL     1       3.382   4.508  18.066  0.00  0.00    +0.000 C 
ATOM     16  H   UNL     1       0.524  10.218  21.051  0.00  0.00    +0.000 HD
ENDROOT
BRANCH   4  17
ATOM     17  C   UNL     1       1.058  11.640  18.902  0.00  0.00    +0.000 A 
ATOM     18  C   UNL     1      -0.286  12.028  18.974  0.00  0.00    +0.000 A 
ATOM     19  C   UNL     1      -0.642  13.366  18.802  0.00  0.00    +0.000 A 
ATOM     20  C   UNL     1       0.343  14.323  18.563  0.00  0.00    +0.000 A 
ATOM     21  C   UNL     1       1.681  13.936  18.496  0.00  0.00    +0.000 A 
ATOM     22 BR   UNL     1       3.018  15.238  18.189  0.00  0.00    +0.000 Br
ATOM     23  C   UNL     1       2.048  12.602  18.668  0.00  0.00    +0.000 A 
ENDBRANCH   4  17
TORSDOF 1
ENDMDL
MODEL 9
REMARK VINA RESULT:      -7.0      3.602      5.232
REMARK  Name = 
REMARK  1 active torsions:
REMARK  status: ('A' for Active; 'I' for Inactive)
REMARK    1  A    between atoms: C_4  and  C_5
REMARK                            x       y       z     vdW  Elec       q    Type
REMARK                         _______ _______ _______ _____ _____    ______ ____
ROOT
ATOM      1  O   UNL     1       4.994   7.213  17.510  0.00  0.00    +0.000 OA
ATOM      2  C   UNL     1       4.987   6.060  17.087  0.00  0.00    +0.000 A 
ATOM      3  N   UNL     1       5.562   5.750  15.875  0.00  0.00    +0.000 N 
ATOM      4  C   UNL     1       5.595   4.472  15.344  0.00  0.00    +0.000 A 
ATOM      5  N   UNL     1       5.109   3.436  15.958  0.00  0.00    +0.000 NA
ATOM      6  C   UNL     1       4.519   3.697  17.152  0.00  0.00    +0.000 A 
ATOM      7  S   UNL     1       3.790   2.456  18.060  0.00  0.00    +0.000 S 
ATOM      8  C   UNL     1       3.271   3.549  19.263  0.00  0.00    +0.000 A 
ATOM      9  C   UNL     1       3.667   4.852  19.006  0.00  0.00    +0.000 A 
ATOM     10  C   UNL     1       4.399   4.925  17.770  0.00  0.00    +0.000 A 
ATOM     11  C   UNL     1       3.312   6.001  19.905  0.00  0.00    +0.000 C 
ATOM     12  C   UNL     1       1.798   6.203  20.016  0.00  0.00    +0.000 C 
ATOM     13  C   UNL     1       1.099   5.198  20.940  0.00  0.00    +0.000 C 
ATOM     14  C   UNL     1       1.074   3.746  20.447  0.00  0.00    +0.000 C 
ATOM     15  C   UNL     1       2.445   3.068  20.418  0.00  0.00    +0.000 C 
ATOM     16  H   UNL     1       6.004   6.530  15.415  0.00  0.00    +0.000 HD
ENDROOT
BRANCH   4  17
ATOM     17  C   UNL     1       6.224   4.319  14.006  0.00  0.00    +0.000 A 
ATOM     18  C   UNL     1       7.122   5.301  13.569  0.00  0.00    +0.000 A 
ATOM     19  C   UNL     1       7.770   5.165  12.340  0.00  0.00    +0.000 A 
ATOM     20  C   UNL     1       7.527   4.047  11.545  0.00  0.00    +0.000 A 
ATOM     21  C   UNL     1       6.636   3.068  11.982  0.00  0.00    +0.000 A 
ATOM     22 BR   UNL     1       6.320   1.541  10.911  0.00  0.00    +0.000 Br
ATOM     23  C   UNL     1       5.984   3.191  13.210  0.00  0.00    +0.000 A 
ENDBRANCH   4  17
TORSDOF 1
ENDMDL
