MODEL 1
REMARK VINA RESULT:      -8.5      0.000      0.000
REMARK  Name = 
REMARK  5 active torsions:
REMARK  status: ('A' for Active; 'I' for Inactive)
REMARK    1  A    between atoms: C_1  and  N_2
REMARK    2  A    between atoms: C_4  and  C_5
REMARK    3  A    between atoms: C_8  and  C_9
REMARK    4  A    between atoms: C_13  and  N_14
REMARK    5  A    between atoms: C_18  and  O_19
REMARK                            x       y       z     vdW  Elec       q    Type
REMARK                         _______ _______ _______ _____ _____    ______ ____
ROOT
ATOM      1  C   UNL     1      -1.877  10.803  18.265  0.00  0.00    +0.000 A 
ATOM      2  C   UNL     1      -0.800   9.922  18.325  0.00  0.00    +0.000 A 
ATOM      3  C   UNL     1      -0.012   9.950  19.483  0.00  0.00    +0.000 A 
ATOM      4  C   UNL     1       1.152   9.267  19.958  0.00  0.00    +0.000 A 
ATOM      5  N   UNL     1       1.466   9.693  21.201  0.00  0.00    +0.000 NA
ATOM      6  N   UNL     1       0.545  10.626  21.483  0.00  0.00    +0.000 N 
ATOM      7  C   UNL     1      -0.362  10.837  20.490  0.00  0.00    +0.000 A 
ATOM      8  C   UNL     1      -1.435  11.706  20.384  0.00  0.00    +0.000 A 
ATOM      9  N   UNL     1      -2.185  11.677  19.257  0.00  0.00    +0.000 NA
ATOM     10  H   UNL     1       0.595  11.087  22.385  0.00  0.00    +0.000 HD
ENDROOT
BRANCH   1  14
ATOM     11  C   UNL     1      -3.830  10.065  13.759  0.00  0.00    +0.000 C 
ATOM     12  N   UNL     1      -3.615  10.500  15.116  0.00  0.00    +0.000 N 
ATOM     13  C   UNL     1      -2.536  10.214  15.900  0.00  0.00    +0.000 A 
ATOM     14  C   UNL     1      -2.758  10.837  17.112  0.00  0.00    +0.000 A 
ATOM     15  C   UNL     1      -4.009  11.471  16.942  0.00  0.00    +0.000 A 
ATOM     16  N   UNL     1      -4.531  11.272  15.726  0.00  0.00    +0.000 NA
ENDBRANCH   1  14
BRANCH   4  17
ATOM     17  C   UNL     1       1.958   8.241  19.267  0.00  0.00    +0.000 A 
ATOM     18  C   UNL     1       2.649   8.570  18.109  0.00  0.00    +0.000 A 
ATOM     19  C   UNL     1       3.400   7.591  17.483  0.00  0.00    +0.000 A 
ATOM     20  C   UNL     1       3.447   6.320  18.040  0.00  0.00    +0.000 A 
ATOM     21  C   UNL     1       2.734   6.030  19.204  0.00  0.00    +0.000 A 
ATOM     22  N   UNL     1       1.984   6.985  19.805  0.00  0.00    +0.000 NA
BRANCH  21  23
ATOM     23  N   UNL     1       2.747   4.753  19.722  0.00  0.00    +0.000 N 
ATOM     24  C   UNL     1       2.282   4.501  21.078  0.00  0.00    +0.000 C 
ATOM     25  C   UNL     1       1.278   3.341  21.023  0.00  0.00    +0.000 C 
ATOM     26  C   UNL     1       1.875   2.107  20.343  0.00  0.00    +0.000 C 
ATOM     27  C   UNL     1       2.441   2.446  18.959  0.00  0.00    +0.000 C 
ATOM     28  C   UNL     1       3.404   3.643  19.038  0.00  0.00    +0.000 C 
BRANCH  27  29
ATOM     29  O   UNL     1       3.095   1.300  18.414  0.00  0.00    +0.000 OA
ATOM     30  H   UNL     1       3.970   1.223  18.831  0.00  0.00    +0.000 HD
ENDBRANCH  27  29
ENDBRANCH  21  23
ENDBRANCH   4  17
TORSDOF 4
ENDMDL
MODEL 2
REMARK VINA RESULT:      -8.5      3.855      8.371
REMARK  Name = 
REMARK  5 active torsions:
REMARK  status: ('A' for Active; 'I' for Inactive)
REMARK    1  A    between atoms: C_1  and  N_2
REMARK    2  A    between atoms: C_4  and  C_5
REMARK    3  A    between atoms: C_8  and  C_9
REMARK    4  A    between atoms: C_13  and  N_14
REMARK    5  A    between atoms: C_18  and  O_19
REMARK                            x       y       z     vdW  Elec       q    Type
REMARK                         _______ _______ _______ _____ _____    ______ ____
ROOT
ATOM      1  C   UNL     1       4.901   4.412  16.665  0.00  0.00    +0.000 A 
ATOM      2  C   UNL     1       4.197   5.508  17.158  0.00  0.00    +0.000 A 
ATOM      3  C   UNL     1       3.362   5.291  18.261  0.00  0.00    +0.000 A 
ATOM      4  C   UNL     1       2.475   6.082  19.058  0.00  0.00    +0.000 A 
ATOM      5  N   UNL     1       1.938   5.328  20.043  0.00  0.00    +0.000 NA
ATOM      6  N   UNL     1       2.453   4.105  19.854  0.00  0.00    +0.000 N 
ATOM      7  C   UNL     1       3.303   4.011  18.794  0.00  0.00    +0.000 A 
ATOM      8  C   UNL     1       4.012   2.946  18.265  0.00  0.00    +0.000 A 
ATOM      9  N   UNL     1       4.809   3.165  17.193  0.00  0.00    +0.000 NA
ATOM     10  H   UNL     1       2.177   3.367  20.493  0.00  0.00    +0.000 HD
ENDROOT
BRANCH   1  14
ATOM     11  C   UNL     1       6.972   3.987  12.171  0.00  0.00    +0.000 C 
ATOM     12  N   UNL     1       6.706   4.352  13.540  0.00  0.00    +0.000 N 
ATOM     13  C   UNL     1       5.642   3.954  14.295  0.00  0.00    +0.000 A 
ATOM     14  C   UNL     1       5.801   4.543  15.533  0.00  0.00    +0.000 A 
ATOM     15  C   UNL     1       7.001   5.277  15.407  0.00  0.00    +0.000 A 
ATOM     16  N   UNL     1       7.557   5.159  14.195  0.00  0.00    +0.000 NA
ENDBRANCH   1  14
BRANCH   4  17
ATOM     17  C   UNL     1       2.132   7.509  18.904  0.00  0.00    +0.000 A 
ATOM     18  C   UNL     1       2.321   8.137  17.681  0.00  0.00    +0.000 A 
ATOM     19  C   UNL     1       1.987   9.475  17.562  0.00  0.00    +0.000 A 
ATOM     20  C   UNL     1       1.463  10.137  18.664  0.00  0.00    +0.000 A 
ATOM     21  C   UNL     1       1.293   9.470  19.877  0.00  0.00    +0.000 A 
ATOM     22  N   UNL     1       1.638   8.165  19.997  0.00  0.00    +0.000 NA
BRANCH  21  23
ATOM     23  N   UNL     1       0.818  10.149  20.979  0.00  0.00    +0.000 N 
ATOM     24  C   UNL     1       0.202  11.458  20.830  0.00  0.00    +0.000 C 
ATOM     25  C   UNL     1      -1.140  11.434  21.575  0.00  0.00    +0.000 C 
ATOM     26  C   UNL     1      -0.971  11.000  23.032  0.00  0.00    +0.000 C 
ATOM     27  C   UNL     1      -0.229   9.664  23.139  0.00  0.00    +0.000 C 
ATOM     28  C   UNL     1       1.087   9.702  22.343  0.00  0.00    +0.000 C 
BRANCH  27  29
ATOM     29  O   UNL     1       0.015   9.358  24.512  0.00  0.00    +0.000 OA
ATOM     30  H   UNL     1       0.756   9.908  24.819  0.00  0.00    +0.000 HD
ENDBRANCH  27  29
ENDBRANCH  21  23
ENDBRANCH   4  17
TORSDOF 4
ENDMDL
MODEL 3
REMARK VINA RESULT:      -8.5      3.936      8.555
REMARK  Name = 
REMARK  5 active torsions:
REMARK  status: ('A' for Active; 'I' for Inactive)
REMARK    1  A    between atoms: C_1  and  N_2
REMARK    2  A    between atoms: C_4  and  C_5
REMARK    3  A    between atoms: C_8  and  C_9
REMARK    4  A    between atoms: C_13  and  N_14
REMARK    5  A    between atoms: C_18  and  O_19
REMARK                            x       y       z     vdW  Elec       q    Type
REMARK                         _______ _______ _______ _____ _____    ______ ____
ROOT
ATOM      1  C   UNL     1       4.734   4.677  17.889  0.00  0.00    +0.000 A 
ATOM      2  C   UNL     1       3.992   5.827  18.144  0.00  0.00    +0.000 A 
ATOM      3  C   UNL     1       3.152   5.812  19.265  0.00  0.00    +0.000 A 
ATOM      4  C   UNL     1       2.233   6.719  19.880  0.00  0.00    +0.000 A 
ATOM      5  N   UNL     1       1.709   6.165  20.996  0.00  0.00    +0.000 NA
ATOM      6  N   UNL     1       2.262   4.946  21.062  0.00  0.00    +0.000 N 
ATOM      7  C   UNL     1       3.127   4.666  20.048  0.00  0.00    +0.000 A 
ATOM      8  C   UNL     1       3.874   3.539  19.750  0.00  0.00    +0.000 A 
ATOM      9  N   UNL     1       4.676   3.561  18.659  0.00  0.00    +0.000 NA
ATOM     10  H   UNL     1       2.003   4.346  21.838  0.00  0.00    +0.000 HD
ENDROOT
BRANCH   1  14
ATOM     11  C   UNL     1       6.601   4.025  13.333  0.00  0.00    +0.000 C 
ATOM     12  N   UNL     1       6.457   4.317  14.737  0.00  0.00    +0.000 N 
ATOM     13  C   UNL     1       5.309   4.237  15.469  0.00  0.00    +0.000 A 
ATOM     14  C   UNL     1       5.642   4.604  16.758  0.00  0.00    +0.000 A 
ATOM     15  C   UNL     1       7.025   4.885  16.683  0.00  0.00    +0.000 A 
ATOM     16  N   UNL     1       7.525   4.707  15.454  0.00  0.00    +0.000 NA
ENDBRANCH   1  14
BRANCH   4  17
ATOM     17  C   UNL     1       1.847   8.073  19.437  0.00  0.00    +0.000 A 
ATOM     18  C   UNL     1       1.953   8.418  18.096  0.00  0.00    +0.000 A 
ATOM     19  C   UNL     1       1.581   9.692  17.707  0.00  0.00    +0.000 A 
ATOM     20  C   UNL     1       1.103  10.576  18.665  0.00  0.00    +0.000 A 
ATOM     21  C   UNL     1       1.016  10.191  20.003  0.00  0.00    +0.000 A 
ATOM     22  N   UNL     1       1.399   8.949  20.386  0.00  0.00    +0.000 NA
BRANCH  21  23
ATOM     23  N   UNL     1       0.587  11.091  20.955  0.00  0.00    +0.000 N 
ATOM     24  C   UNL     1       1.112  12.448  20.977  0.00  0.00    +0.000 C 
ATOM     25  C   UNL     1      -0.081  13.413  21.041  0.00  0.00    +0.000 C 
ATOM     26  C   UNL     1      -1.003  13.095  22.219  0.00  0.00    +0.000 C 
ATOM     27  C   UNL     1      -1.448  11.628  22.207  0.00  0.00    +0.000 C 
ATOM     28  C   UNL     1      -0.236  10.688  22.092  0.00  0.00    +0.000 C 
BRANCH  27  29
ATOM     29  O   UNL     1      -2.203  11.344  23.385  0.00  0.00    +0.000 OA
ATOM     30  H   UNL     1      -2.703  12.144  23.625  0.00  0.00    +0.000 HD
ENDBRANCH  27  29
ENDBRANCH  21  23
ENDBRANCH   4  17
TORSDOF 4
ENDMDL
MODEL 4
REMARK VINA RESULT:      -8.4      3.928      8.505
REMARK  Name = 
REMARK  5 active torsions:
REMARK  status: ('A' for Active; 'I' for Inactive)
REMARK    1  A    between atoms: C_1  and  N_2
REMARK    2  A    between atoms: C_4  and  C_5
REMARK    3  A    between atoms: C_8  and  C_9
REMARK    4  A    between atoms: C_13  and  N_14
REMARK    5  A    between atoms: C_18  and  O_19
REMARK                            x       y       z     vdW  Elec       q    Type
REMARK                         _______ _______ _______ _____ _____    ______ ____
ROOT
ATOM      1  C   UNL     1       4.876   4.763  17.527  0.00  0.00    +0.000 A 
ATOM      2  C   UNL     1       4.090   5.863  17.861  0.00  0.00    +0.000 A 
ATOM      3  C   UNL     1       3.328   5.776  19.033  0.00  0.00    +0.000 A 
ATOM      4  C   UNL     1       2.404   6.616  19.730  0.00  0.00    +0.000 A 
ATOM      5  N   UNL     1       1.985   6.008  20.862  0.00  0.00    +0.000 NA
ATOM      6  N   UNL     1       2.608   4.821  20.860  0.00  0.00    +0.000 N 
ATOM      7  C   UNL     1       3.417   4.613  19.784  0.00  0.00    +0.000 A 
ATOM      8  C   UNL     1       4.203   3.536  19.410  0.00  0.00    +0.000 A 
ATOM      9  N   UNL     1       4.929   3.628  18.270  0.00  0.00    +0.000 NA
ATOM     10  H   UNL     1       2.432   4.189  21.634  0.00  0.00    +0.000 HD
ENDROOT
BRANCH   1  14
ATOM     11  C   UNL     1       6.627   3.939  12.953  0.00  0.00    +0.000 C 
ATOM     12  N   UNL     1       6.473   4.399  14.311  0.00  0.00    +0.000 N 
ATOM     13  C   UNL     1       5.435   4.120  15.150  0.00  0.00    +0.000 A 
ATOM     14  C   UNL     1       5.709   4.766  16.339  0.00  0.00    +0.000 A 
ATOM     15  C   UNL     1       6.946   5.406  16.097  0.00  0.00    +0.000 A 
ATOM     16  N   UNL     1       7.415   5.181  14.864  0.00  0.00    +0.000 NA
ENDBRANCH   1  14
BRANCH   4  17
ATOM     17  C   UNL     1       1.917   7.956  19.348  0.00  0.00    +0.000 A 
ATOM     18  C   UNL     1       2.363   8.545  18.173  0.00  0.00    +0.000 A 
ATOM     19  C   UNL     1       1.888   9.801  17.837  0.00  0.00    +0.000 A 
ATOM     20  C   UNL     1       0.973  10.420  18.677  0.00  0.00    +0.000 A 
ATOM     21  C   UNL     1       0.553   9.795  19.852  0.00  0.00    +0.000 A 
ATOM     22  N   UNL     1       1.034   8.575  20.189  0.00  0.00    +0.000 NA
BRANCH  21  23
ATOM     23  N   UNL     1      -0.317  10.440  20.704  0.00  0.00    +0.000 N 
ATOM     24  C   UNL     1      -0.833   9.761  21.884  0.00  0.00    +0.000 C 
ATOM     25  C   UNL     1      -0.621  10.688  23.090  0.00  0.00    +0.000 C 
ATOM     26  C   UNL     1      -1.240  12.068  22.859  0.00  0.00    +0.000 C 
ATOM     27  C   UNL     1      -0.740  12.697  21.553  0.00  0.00    +0.000 C 
ATOM     28  C   UNL     1      -0.920  11.727  20.373  0.00  0.00    +0.000 C 
BRANCH  27  29
ATOM     29  O   UNL     1      -1.432  13.924  21.316  0.00  0.00    +0.000 OA
ATOM     30  H   UNL     1      -1.441  14.433  22.144  0.00  0.00    +0.000 HD
ENDBRANCH  27  29
ENDBRANCH  21  23
ENDBRANCH   4  17
TORSDOF 4
ENDMDL
MODEL 5
REMARK VINA RESULT:      -8.1      1.040      1.407
REMARK  Name = 
REMARK  5 active torsions:
REMARK  status: ('A' for Active; 'I' for Inactive)
REMARK    1  A    between atoms: C_1  and  N_2
REMARK    2  A    between atoms: C_4  and  C_5
REMARK    3  A    between atoms: C_8  and  C_9
REMARK    4  A    between atoms: C_13  and  N_14
REMARK    5  A    between atoms: C_18  and  O_19
REMARK                            x       y       z     vdW  Elec       q    Type
REMARK                         _______ _______ _______ _____ _____    ______ ____
ROOT
ATOM      1  C   UNL     1      -1.759  10.719  18.528  0.00  0.00    +0.000 A 
ATOM      2  C   UNL     1      -0.704   9.810  18.509  0.00  0.00    +0.000 A 
ATOM      3  C   UNL     1       0.113   9.754  19.645  0.00  0.00    +0.000 A 
ATOM      4  C   UNL     1       1.271   9.017  20.049  0.00  0.00    +0.000 A 
ATOM      5  N   UNL     1       1.627   9.364  21.306  0.00  0.00    +0.000 NA
ATOM      6  N   UNL     1       0.738  10.301  21.665  0.00  0.00    +0.000 N 
ATOM      7  C   UNL     1      -0.189  10.590  20.709  0.00  0.00    +0.000 A 
ATOM      8  C   UNL     1      -1.242  11.489  20.681  0.00  0.00    +0.000 A 
ATOM      9  N   UNL     1      -2.021  11.542  19.575  0.00  0.00    +0.000 NA
ATOM     10  H   UNL     1       0.822  10.709  22.590  0.00  0.00    +0.000 HD
ENDROOT
BRANCH   1  14
ATOM     11  C   UNL     1      -3.880  10.227  14.063  0.00  0.00    +0.000 C 
ATOM     12  N   UNL     1      -3.601  10.611  15.424  0.00  0.00    +0.000 N 
ATOM     13  C   UNL     1      -2.520  10.237  16.168  0.00  0.00    +0.000 A 
ATOM     14  C   UNL     1      -2.668  10.839  17.402  0.00  0.00    +0.000 A 
ATOM     15  C   UNL     1      -3.881  11.555  17.285  0.00  0.00    +0.000 A 
ATOM     16  N   UNL     1      -4.448  11.422  16.080  0.00  0.00    +0.000 NA
ENDBRANCH   1  14
BRANCH   4  17
ATOM     17  C   UNL     1       2.033   8.013  19.281  0.00  0.00    +0.000 A 
ATOM     18  C   UNL     1       2.725   8.396  18.140  0.00  0.00    +0.000 A 
ATOM     19  C   UNL     1       3.434   7.437  17.440  0.00  0.00    +0.000 A 
ATOM     20  C   UNL     1       3.441   6.130  17.908  0.00  0.00    +0.000 A 
ATOM     21  C   UNL     1       2.728   5.786  19.058  0.00  0.00    +0.000 A 
ATOM     22  N   UNL     1       2.019   6.723  19.731  0.00  0.00    +0.000 NA
BRANCH  21  23
ATOM     23  N   UNL     1       2.700   4.476  19.487  0.00  0.00    +0.000 N 
ATOM     24  C   UNL     1       3.593   3.488  18.902  0.00  0.00    +0.000 C 
ATOM     25  C   UNL     1       4.295   2.749  20.050  0.00  0.00    +0.000 C 
ATOM     26  C   UNL     1       3.291   2.155  21.039  0.00  0.00    +0.000 C 
ATOM     27  C   UNL     1       2.310   3.216  21.551  0.00  0.00    +0.000 C 
ATOM     28  C   UNL     1       1.660   3.973  20.379  0.00  0.00    +0.000 C 
BRANCH  27  29
ATOM     29  O   UNL     1       1.318   2.599  22.372  0.00  0.00    +0.000 OA
ATOM     30  H   UNL     1       1.097   1.735  21.983  0.00  0.00    +0.000 HD
ENDBRANCH  27  29
ENDBRANCH  21  23
ENDBRANCH   4  17
TORSDOF 4
ENDMDL
MODEL 6
REMARK VINA RESULT:      -8.0      3.356      3.951
REMARK  Name = 
REMARK  5 active torsions:
REMARK  status: ('A' for Active; 'I' for Inactive)
REMARK    1  A    between atoms: C_1  and  N_2
REMARK    2  A    between atoms: C_4  and  C_5
REMARK    3  A    between atoms: C_8  and  C_9
REMARK    4  A    between atoms: C_13  and  N_14
REMARK    5  A    between atoms: C_18  and  O_19
REMARK                            x       y       z     vdW  Elec       q    Type
REMARK                         _______ _______ _______ _____ _____    ______ ____
ROOT
ATOM      1  C   UNL     1       0.135  13.395  20.591  0.00  0.00    +0.000 A 
ATOM      2  C   UNL     1       0.552  12.132  20.176  0.00  0.00    +0.000 A 
ATOM      3  C   UNL     1       0.246  11.050  21.011  0.00  0.00    +0.000 A 
ATOM      4  C   UNL     1       0.476   9.639  21.000  0.00  0.00    +0.000 A 
ATOM      5  N   UNL     1      -0.091   9.067  22.085  0.00  0.00    +0.000 NA
ATOM      6  N   UNL     1      -0.636  10.087  22.762  0.00  0.00    +0.000 N 
ATOM      7  C   UNL     1      -0.459  11.305  22.179  0.00  0.00    +0.000 A 
ATOM      8  C   UNL     1      -0.844  12.580  22.559  0.00  0.00    +0.000 A 
ATOM      9  N   UNL     1      -0.535  13.620  21.749  0.00  0.00    +0.000 NA
ATOM     10  H   UNL     1      -1.122   9.880  23.628  0.00  0.00    +0.000 HD
ENDROOT
BRANCH   1  14
ATOM     11  C   UNL     1      -0.432  17.577  17.971  0.00  0.00    +0.000 C 
ATOM     12  N   UNL     1       0.134  16.427  18.631  0.00  0.00    +0.000 N 
ATOM     13  C   UNL     1      -0.546  15.479  19.337  0.00  0.00    +0.000 A 
ATOM     14  C   UNL     1       0.396  14.575  19.785  0.00  0.00    +0.000 A 
ATOM     15  C   UNL     1       1.616  15.083  19.286  0.00  0.00    +0.000 A 
ATOM     16  N   UNL     1       1.459  16.209  18.580  0.00  0.00    +0.000 NA
ENDBRANCH   1  14
BRANCH   4  17
ATOM     17  C   UNL     1       1.214   8.839  20.003  0.00  0.00    +0.000 A 
ATOM     18  C   UNL     1       1.344   9.306  18.702  0.00  0.00    +0.000 A 
ATOM     19  C   UNL     1       2.043   8.538  17.787  0.00  0.00    +0.000 A 
ATOM     20  C   UNL     1       2.600   7.337  18.204  0.00  0.00    +0.000 A 
ATOM     21  C   UNL     1       2.442   6.901  19.520  0.00  0.00    +0.000 A 
ATOM     22  N   UNL     1       1.741   7.645  20.409  0.00  0.00    +0.000 NA
BRANCH  21  23
ATOM     23  N   UNL     1       2.955   5.683  19.912  0.00  0.00    +0.000 N 
ATOM     24  C   UNL     1       2.225   4.840  20.847  0.00  0.00    +0.000 C 
ATOM     25  C   UNL     1       2.146   3.430  20.246  0.00  0.00    +0.000 C 
ATOM     26  C   UNL     1       3.531   2.888  19.887  0.00  0.00    +0.000 C 
ATOM     27  C   UNL     1       4.297   3.858  18.981  0.00  0.00    +0.000 C 
ATOM     28  C   UNL     1       4.318   5.273  19.586  0.00  0.00    +0.000 C 
BRANCH  27  29
ATOM     29  O   UNL     1       5.624   3.374  18.772  0.00  0.00    +0.000 OA
ATOM     30  H   UNL     1       6.141   4.078  18.344  0.00  0.00    +0.000 HD
ENDBRANCH  27  29
ENDBRANCH  21  23
ENDBRANCH   4  17
TORSDOF 4
ENDMDL
MODEL 7
REMARK VINA RESULT:      -8.0      1.072      1.475
REMARK  Name = 
REMARK  5 active torsions:
REMARK  status: ('A' for Active; 'I' for Inactive)
REMARK    1  A    between atoms: C_1  and  N_2
REMARK    2  A    between atoms: C_4  and  C_5
REMARK    3  A    between atoms: C_8  and  C_9
REMARK    4  A    between atoms: C_13  and  N_14
REMARK    5  A    between atoms: C_18  and  O_19
REMARK                            x       y       z     vdW  Elec       q    Type
REMARK                         _______ _______ _______ _____ _____    ______ ____
ROOT
ATOM      1  C   UNL     1      -2.043  11.225  19.423  0.00  0.00    +0.000 A 
ATOM      2  C   UNL     1      -1.015  10.301  19.253  0.00  0.00    +0.000 A 
ATOM      3  C   UNL     1      -0.107  10.151  20.309  0.00  0.00    +0.000 A 
ATOM      4  C   UNL     1       1.063   9.368  20.563  0.00  0.00    +0.000 A 
ATOM      5  N   UNL     1       1.531   9.620  21.806  0.00  0.00    +0.000 NA
ATOM      6  N   UNL     1       0.697  10.546  22.302  0.00  0.00    +0.000 N 
ATOM      7  C   UNL     1      -0.299  10.917  21.450  0.00  0.00    +0.000 A 
ATOM      8  C   UNL     1      -1.329  11.834  21.572  0.00  0.00    +0.000 A 
ATOM      9  N   UNL     1      -2.196  11.978  20.542  0.00  0.00    +0.000 NA
ATOM     10  H   UNL     1       0.867  10.886  23.242  0.00  0.00    +0.000 HD
ENDROOT
BRANCH   1  14
ATOM     11  C   UNL     1      -6.226  12.445  17.038  0.00  0.00    +0.000 C 
ATOM     12  N   UNL     1      -4.893  11.987  17.343  0.00  0.00    +0.000 N 
ATOM     13  C   UNL     1      -4.310  11.947  18.575  0.00  0.00    +0.000 A 
ATOM     14  C   UNL     1      -3.039  11.440  18.389  0.00  0.00    +0.000 A 
ATOM     15  C   UNL     1      -2.968  11.208  16.997  0.00  0.00    +0.000 A 
ATOM     16  N   UNL     1      -4.098  11.537  16.358  0.00  0.00    +0.000 NA
ENDBRANCH   1  14
BRANCH   4  17
ATOM     17  C   UNL     1       1.734   8.407  19.666  0.00  0.00    +0.000 A 
ATOM     18  C   UNL     1       2.210   8.829  18.433  0.00  0.00    +0.000 A 
ATOM     19  C   UNL     1       2.839   7.909  17.613  0.00  0.00    +0.000 A 
ATOM     20  C   UNL     1       2.984   6.602  18.057  0.00  0.00    +0.000 A 
ATOM     21  C   UNL     1       2.487   6.217  19.302  0.00  0.00    +0.000 A 
ATOM     22  N   UNL     1       1.855   7.115  20.096  0.00  0.00    +0.000 NA
BRANCH  21  23
ATOM     23  N   UNL     1       2.592   4.905  19.713  0.00  0.00    +0.000 N 
ATOM     24  C   UNL     1       1.832   4.427  20.859  0.00  0.00    +0.000 C 
ATOM     25  C   UNL     1       1.108   3.140  20.439  0.00  0.00    +0.000 C 
ATOM     26  C   UNL     1       2.080   2.102  19.874  0.00  0.00    +0.000 C 
ATOM     27  C   UNL     1       2.926   2.684  18.737  0.00  0.00    +0.000 C 
ATOM     28  C   UNL     1       3.599   3.998  19.170  0.00  0.00    +0.000 C 
BRANCH  27  29
ATOM     29  O   UNL     1       3.900   1.725  18.323  0.00  0.00    +0.000 OA
ATOM     30  H   UNL     1       3.684   1.446  17.417  0.00  0.00    +0.000 HD
ENDBRANCH  27  29
ENDBRANCH  21  23
ENDBRANCH   4  17
TORSDOF 4
ENDMDL
MODEL 8
REMARK VINA RESULT:      -8.0      4.261      8.911
REMARK  Name = 
REMARK  5 active torsions:
REMARK  status: ('A' for Active; 'I' for Inactive)
REMARK    1  A    between atoms: C_1  and  N_2
REMARK    2  A    between atoms: C_4  and  C_5
REMARK    3  A    between atoms: C_8  and  C_9
REMARK    4  A    between atoms: C_13  and  N_14
REMARK    5  A    between atoms: C_18  and  O_19
REMARK                            x       y       z     vdW  Elec       q    Type
REMARK                         _______ _______ _______ _____ _____    ______ ____
ROOT
ATOM      1  C   UNL     1       2.618   6.360  19.293  0.00  0.00    +0.000 A 
ATOM      2  C   UNL     1       1.849   7.288  19.990  0.00  0.00    +0.000 A 
ATOM      3  C   UNL     1       1.647   8.536  19.386  0.00  0.00    +0.000 A 
ATOM      4  C   UNL     1       0.970   9.750  19.723  0.00  0.00    +0.000 A 
ATOM      5  N   UNL     1       1.086  10.642  18.715  0.00  0.00    +0.000 NA
ATOM      6  N   UNL     1       1.829  10.017  17.791  0.00  0.00    +0.000 N 
ATOM      7  C   UNL     1       2.209   8.756  18.137  0.00  0.00    +0.000 A 
ATOM      8  C   UNL     1       2.978   7.807  17.483  0.00  0.00    +0.000 A 
ATOM      9  N   UNL     1       3.175   6.608  18.080  0.00  0.00    +0.000 NA
ATOM     10  H   UNL     1       2.044  10.516  16.934  0.00  0.00    +0.000 HD
ENDROOT
BRANCH   1  14
ATOM     11  C   UNL     1       4.536   1.852  20.114  0.00  0.00    +0.000 C 
ATOM     12  N   UNL     1       3.730   3.045  20.192  0.00  0.00    +0.000 N 
ATOM     13  C   UNL     1       3.842   4.153  19.405  0.00  0.00    +0.000 A 
ATOM     14  C   UNL     1       2.871   5.036  19.834  0.00  0.00    +0.000 A 
ATOM     15  C   UNL     1       2.232   4.348  20.890  0.00  0.00    +0.000 A 
ATOM     16  N   UNL     1       2.750   3.133  21.107  0.00  0.00    +0.000 NA
ENDBRANCH   1  14
BRANCH   4  17
ATOM     17  C   UNL     1       0.233  10.075  20.960  0.00  0.00    +0.000 A 
ATOM     18  C   UNL     1       0.504   9.378  22.130  0.00  0.00    +0.000 A 
ATOM     19  C   UNL     1      -0.198   9.704  23.276  0.00  0.00    +0.000 A 
ATOM     20  C   UNL     1      -1.138  10.724  23.221  0.00  0.00    +0.000 A 
ATOM     21  C   UNL     1      -1.384  11.398  22.024  0.00  0.00    +0.000 A 
ATOM     22  N   UNL     1      -0.709  11.063  20.898  0.00  0.00    +0.000 NA
BRANCH  21  23
ATOM     23  N   UNL     1      -2.354  12.375  21.967  0.00  0.00    +0.000 N 
ATOM     24  C   UNL     1      -2.834  12.866  20.684  0.00  0.00    +0.000 C 
ATOM     25  C   UNL     1      -4.368  12.817  20.705  0.00  0.00    +0.000 C 
ATOM     26  C   UNL     1      -4.942  13.576  21.903  0.00  0.00    +0.000 C 
ATOM     27  C   UNL     1      -4.332  13.090  23.222  0.00  0.00    +0.000 C 
ATOM     28  C   UNL     1      -2.795  13.103  23.153  0.00  0.00    +0.000 C 
BRANCH  27  29
ATOM     29  O   UNL     1      -4.801  13.904  24.298  0.00  0.00    +0.000 OA
ATOM     30  H   UNL     1      -5.692  13.599  24.543  0.00  0.00    +0.000 HD
ENDBRANCH  27  29
ENDBRANCH  21  23
ENDBRANCH   4  17
TORSDOF 4
ENDMDL
MODEL 9
REMARK VINA RESULT:      -7.9      1.730      2.918
REMARK  Name = 
REMARK  5 active torsions:
REMARK  status: ('A' for Active; 'I' for Inactive)
REMARK    1  A    between atoms: C_1  and  N_2
REMARK    2  A    between atoms: C_4  and  C_5
REMARK    3  A    between atoms: C_8  and  C_9
REMARK    4  A    between atoms: C_13  and  N_14
REMARK    5  A    between atoms: C_18  and  O_19
REMARK                            x       y       z     vdW  Elec       q    Type
REMARK                         _______ _______ _______ _____ _____    ______ ____
ROOT
ATOM      1  C   UNL     1      -1.199  10.552  19.045  0.00  0.00    +0.000 A 
ATOM      2  C   UNL     1      -0.446   9.395  19.222  0.00  0.00    +0.000 A 
ATOM      3  C   UNL     1       0.374   9.330  20.356  0.00  0.00    +0.000 A 
ATOM      4  C   UNL     1       1.294   8.387  20.913  0.00  0.00    +0.000 A 
ATOM      5  N   UNL     1       1.791   8.856  22.079  0.00  0.00    +0.000 NA
ATOM      6  N   UNL     1       1.220  10.059  22.232  0.00  0.00    +0.000 N 
ATOM      7  C   UNL     1       0.370  10.409  21.227  0.00  0.00    +0.000 A 
ATOM      8  C   UNL     1      -0.386  11.548  21.007  0.00  0.00    +0.000 A 
ATOM      9  N   UNL     1      -1.169  11.604  19.903  0.00  0.00    +0.000 NA
ATOM     10  H   UNL     1       1.459  10.598  23.057  0.00  0.00    +0.000 HD
ENDROOT
BRANCH   1  14
ATOM     11  C   UNL     1      -3.315  10.084  14.576  0.00  0.00    +0.000 C 
ATOM     12  N   UNL     1      -3.019  10.487  15.928  0.00  0.00    +0.000 N 
ATOM     13  C   UNL     1      -1.975  10.057  16.693  0.00  0.00    +0.000 A 
ATOM     14  C   UNL     1      -2.088  10.705  17.907  0.00  0.00    +0.000 A 
ATOM     15  C   UNL     1      -3.244  11.504  17.757  0.00  0.00    +0.000 A 
ATOM     16  N   UNL     1      -3.810  11.376  16.551  0.00  0.00    +0.000 NA
ENDBRANCH   1  14
BRANCH   4  17
ATOM     17  C   UNL     1       1.705   7.077  20.370  0.00  0.00    +0.000 A 
ATOM     18  C   UNL     1       1.211   5.909  20.935  0.00  0.00    +0.000 A 
ATOM     19  C   UNL     1       1.610   4.695  20.405  0.00  0.00    +0.000 A 
ATOM     20  C   UNL     1       2.478   4.687  19.321  0.00  0.00    +0.000 A 
ATOM     21  C   UNL     1       2.954   5.884  18.786  0.00  0.00    +0.000 A 
ATOM     22  N   UNL     1       2.578   7.071  19.318  0.00  0.00    +0.000 NA
BRANCH  21  23
ATOM     23  N   UNL     1       3.854   5.864  17.742  0.00  0.00    +0.000 N 
ATOM     24  C   UNL     1       4.412   7.105  17.224  0.00  0.00    +0.000 C 
ATOM     25  C   UNL     1       5.937   6.945  17.162  0.00  0.00    +0.000 C 
ATOM     26  C   UNL     1       6.345   5.709  16.357  0.00  0.00    +0.000 C 
ATOM     27  C   UNL     1       5.653   4.445  16.879  0.00  0.00    +0.000 C 
ATOM     28  C   UNL     1       4.132   4.652  16.977  0.00  0.00    +0.000 C 
BRANCH  27  29
ATOM     29  O   UNL     1       5.964   3.341  16.028  0.00  0.00    +0.000 OA
ATOM     30  H   UNL     1       6.838   3.499  15.632  0.00  0.00    +0.000 HD
ENDBRANCH  27  29
ENDBRANCH  21  23
ENDBRANCH   4  17
TORSDOF 4
ENDMDL
