MODEL 1
REMARK VINA RESULT:      -6.3      0.000      0.000
REMARK  Name = 
REMARK  4 active torsions:
REMARK  status: ('A' for Active; 'I' for Inactive)
REMARK    1  A    between atoms: C_1  and  C_2
REMARK    2  A    between atoms: C_5  and  C_6
REMARK    3  A    between atoms: N_8  and  C_9
REMARK    4  A    between atoms: C_9  and  C_10
REMARK                            x       y       z     vdW  Elec       q    Type
REMARK                         _______ _______ _______ _____ _____    ______ ____
ROOT
ATOM      1  C   UNL     1       4.541   3.886  18.745  0.00  0.00    +0.000 C 
ATOM      2  O   UNL     1       5.389   3.481  19.534  0.00  0.00    +0.000 OA
ATOM      3  N   UNL     1       3.193   3.721  18.979  0.00  0.00    +0.000 N 
ATOM      4  H   UNL     1       2.556   4.179  18.335  0.00  0.00    +0.000 HD
ENDROOT
BRANCH   1   9
ATOM      5  C   UNL     1       6.033   4.098  14.149  0.00  0.00    +0.000 C 
ATOM      6  C   UNL     1       5.533   4.686  15.405  0.00  0.00    +0.000 A 
ATOM      7  C   UNL     1       5.222   5.971  15.790  0.00  0.00    +0.000 A 
ATOM      8  C   UNL     1       4.785   5.891  17.134  0.00  0.00    +0.000 A 
ATOM      9  C   UNL     1       4.853   4.558  17.501  0.00  0.00    +0.000 A 
ATOM     10  O   UNL     1       5.315   3.821  16.436  0.00  0.00    +0.000 OA
ENDBRANCH   1   9
BRANCH   3  11
ATOM     11  C   UNL     1       2.694   3.137  20.220  0.00  0.00    +0.000 C 
BRANCH  11  12
ATOM     12  C   UNL     1       1.192   3.301  20.493  0.00  0.00    +0.000 C 
ATOM     13  F   UNL     1       0.427   2.735  19.534  0.00  0.00    +0.000 F 
ATOM     14  F   UNL     1       0.863   2.704  21.666  0.00  0.00    +0.000 F 
ATOM     15  F   UNL     1       0.840   4.601  20.594  0.00  0.00    +0.000 F 
ENDBRANCH  11  12
ENDBRANCH   3  11
TORSDOF 3
ENDMDL
MODEL 2
REMARK VINA RESULT:      -6.3      0.115      1.003
REMARK  Name = 
REMARK  4 active torsions:
REMARK  status: ('A' for Active; 'I' for Inactive)
REMARK    1  A    between atoms: C_1  and  C_2
REMARK    2  A    between atoms: C_5  and  C_6
REMARK    3  A    between atoms: N_8  and  C_9
REMARK    4  A    between atoms: C_9  and  C_10
REMARK                            x       y       z     vdW  Elec       q    Type
REMARK                         _______ _______ _______ _____ _____    ______ ____
ROOT
ATOM      1  C   UNL     1       4.570   3.977  18.734  0.00  0.00    +0.000 C 
ATOM      2  O   UNL     1       5.422   3.539  19.501  0.00  0.00    +0.000 OA
ATOM      3  N   UNL     1       3.224   3.893  19.018  0.00  0.00    +0.000 N 
ATOM      4  H   UNL     1       2.590   4.374  18.388  0.00  0.00    +0.000 HD
ENDROOT
BRANCH   1   9
ATOM      5  C   UNL     1       6.043   4.036  14.127  0.00  0.00    +0.000 C 
ATOM      6  C   UNL     1       5.544   4.665  15.364  0.00  0.00    +0.000 A 
ATOM      7  C   UNL     1       5.229   5.961  15.705  0.00  0.00    +0.000 A 
ATOM      8  C   UNL     1       4.797   5.925  17.053  0.00  0.00    +0.000 A 
ATOM      9  C   UNL     1       4.874   4.607  17.466  0.00  0.00    +0.000 A 
ATOM     10  O   UNL     1       5.335   3.835  16.425  0.00  0.00    +0.000 OA
ENDBRANCH   1   9
BRANCH   3  11
ATOM     11  C   UNL     1       2.739   3.362  20.289  0.00  0.00    +0.000 C 
BRANCH  11  12
ATOM     12  C   UNL     1       1.215   3.347  20.481  0.00  0.00    +0.000 C 
ATOM     13  F   UNL     1       0.839   2.684  21.596  0.00  0.00    +0.000 F 
ATOM     14  F   UNL     1       0.749   4.616  20.600  0.00  0.00    +0.000 F 
ATOM     15  F   UNL     1       0.583   2.787  19.428  0.00  0.00    +0.000 F 
ENDBRANCH  11  12
ENDBRANCH   3  11
TORSDOF 3
ENDMDL
MODEL 3
REMARK VINA RESULT:      -6.3      0.672      1.260
REMARK  Name = 
REMARK  4 active torsions:
REMARK  status: ('A' for Active; 'I' for Inactive)
REMARK    1  A    between atoms: C_1  and  C_2
REMARK    2  A    between atoms: C_5  and  C_6
REMARK    3  A    between atoms: N_8  and  C_9
REMARK    4  A    between atoms: C_9  and  C_10
REMARK                            x       y       z     vdW  Elec       q    Type
REMARK                         _______ _______ _______ _____ _____    ______ ____
ROOT
ATOM      1  C   UNL     1       4.261   3.553  18.787  0.00  0.00    +0.000 C 
ATOM      2  O   UNL     1       5.051   3.137  19.629  0.00  0.00    +0.000 OA
ATOM      3  N   UNL     1       2.913   3.275  18.855  0.00  0.00    +0.000 N 
ATOM      4  H   UNL     1       2.313   3.744  18.184  0.00  0.00    +0.000 HD
ENDROOT
BRANCH   1   9
ATOM      5  C   UNL     1       6.017   4.258  14.335  0.00  0.00    +0.000 C 
ATOM      6  C   UNL     1       5.448   4.709  15.620  0.00  0.00    +0.000 A 
ATOM      7  C   UNL     1       5.124   5.947  16.128  0.00  0.00    +0.000 A 
ATOM      8  C   UNL     1       4.609   5.722  17.428  0.00  0.00    +0.000 A 
ATOM      9  C   UNL     1       4.648   4.356  17.646  0.00  0.00    +0.000 A 
ATOM     10  O   UNL     1       5.166   3.737  16.533  0.00  0.00    +0.000 OA
ENDBRANCH   1   9
BRANCH   3  11
ATOM     11  C   UNL     1       2.335   2.546  19.980  0.00  0.00    +0.000 C 
BRANCH  11  12
ATOM     12  C   UNL     1       1.600   3.393  21.030  0.00  0.00    +0.000 C 
ATOM     13  F   UNL     1       2.395   4.331  21.588  0.00  0.00    +0.000 F 
ATOM     14  F   UNL     1       0.559   4.046  20.455  0.00  0.00    +0.000 F 
ATOM     15  F   UNL     1       1.093   2.630  22.022  0.00  0.00    +0.000 F 
ENDBRANCH  11  12
ENDBRANCH   3  11
TORSDOF 3
ENDMDL
MODEL 4
REMARK VINA RESULT:      -6.3      1.326      2.091
REMARK  Name = 
REMARK  4 active torsions:
REMARK  status: ('A' for Active; 'I' for Inactive)
REMARK    1  A    between atoms: C_1  and  C_2
REMARK    2  A    between atoms: C_5  and  C_6
REMARK    3  A    between atoms: N_8  and  C_9
REMARK    4  A    between atoms: C_9  and  C_10
REMARK                            x       y       z     vdW  Elec       q    Type
REMARK                         _______ _______ _______ _____ _____    ______ ____
ROOT
ATOM      1  C   UNL     1       4.470   3.688  19.003  0.00  0.00    +0.000 C 
ATOM      2  O   UNL     1       5.161   3.002  19.749  0.00  0.00    +0.000 OA
ATOM      3  N   UNL     1       3.095   3.595  18.998  0.00  0.00    +0.000 N 
ATOM      4  H   UNL     1       2.591   4.271  18.433  0.00  0.00    +0.000 HD
ENDROOT
BRANCH   1   9
ATOM      5  C   UNL     1       7.468   7.203  17.572  0.00  0.00    +0.000 C 
ATOM      6  C   UNL     1       6.359   6.250  17.378  0.00  0.00    +0.000 A 
ATOM      7  C   UNL     1       5.524   5.974  16.319  0.00  0.00    +0.000 A 
ATOM      8  C   UNL     1       4.657   4.942  16.753  0.00  0.00    +0.000 A 
ATOM      9  C   UNL     1       5.007   4.644  18.058  0.00  0.00    +0.000 A 
ATOM     10  O   UNL     1       6.053   5.452  18.439  0.00  0.00    +0.000 OA
ENDBRANCH   1   9
BRANCH   3  11
ATOM     11  C   UNL     1       2.379   2.742  19.941  0.00  0.00    +0.000 C 
BRANCH  11  12
ATOM     12  C   UNL     1       1.582   3.463  21.039  0.00  0.00    +0.000 C 
ATOM     13  F   UNL     1       2.333   4.351  21.725  0.00  0.00    +0.000 F 
ATOM     14  F   UNL     1       0.554   4.156  20.488  0.00  0.00    +0.000 F 
ATOM     15  F   UNL     1       1.049   2.594  21.924  0.00  0.00    +0.000 F 
ENDBRANCH  11  12
ENDBRANCH   3  11
TORSDOF 3
ENDMDL
MODEL 5
REMARK VINA RESULT:      -6.3      1.275      1.805
REMARK  Name = 
REMARK  4 active torsions:
REMARK  status: ('A' for Active; 'I' for Inactive)
REMARK    1  A    between atoms: C_1  and  C_2
REMARK    2  A    between atoms: C_5  and  C_6
REMARK    3  A    between atoms: N_8  and  C_9
REMARK    4  A    between atoms: C_9  and  C_10
REMARK                            x       y       z     vdW  Elec       q    Type
REMARK                         _______ _______ _______ _____ _____    ______ ____
ROOT
ATOM      1  C   UNL     1       4.399   3.590  18.974  0.00  0.00    +0.000 C 
ATOM      2  O   UNL     1       5.064   2.942  19.776  0.00  0.00    +0.000 OA
ATOM      3  N   UNL     1       3.025   3.495  18.925  0.00  0.00    +0.000 N 
ATOM      4  H   UNL     1       2.541   4.142  18.310  0.00  0.00    +0.000 HD
ENDROOT
BRANCH   1   9
ATOM      5  C   UNL     1       7.379   7.105  17.504  0.00  0.00    +0.000 C 
ATOM      6  C   UNL     1       6.314   6.103  17.304  0.00  0.00    +0.000 A 
ATOM      7  C   UNL     1       5.561   5.729  16.214  0.00  0.00    +0.000 A 
ATOM      8  C   UNL     1       4.698   4.699  16.660  0.00  0.00    +0.000 A 
ATOM      9  C   UNL     1       4.969   4.499  18.002  0.00  0.00    +0.000 A 
ATOM     10  O   UNL     1       5.962   5.366  18.395  0.00  0.00    +0.000 OA
ENDBRANCH   1   9
BRANCH   3  11
ATOM     11  C   UNL     1       2.276   2.688  19.883  0.00  0.00    +0.000 C 
BRANCH  11  12
ATOM     12  C   UNL     1       1.522   3.459  20.977  0.00  0.00    +0.000 C 
ATOM     13  F   UNL     1       0.531   4.230  20.478  0.00  0.00    +0.000 F 
ATOM     14  F   UNL     1       0.947   2.590  21.846  0.00  0.00    +0.000 F 
ATOM     15  F   UNL     1       2.349   4.251  21.692  0.00  0.00    +0.000 F 
ENDBRANCH  11  12
ENDBRANCH   3  11
TORSDOF 3
ENDMDL
MODEL 6
REMARK VINA RESULT:      -6.2      1.264      1.881
REMARK  Name = 
REMARK  4 active torsions:
REMARK  status: ('A' for Active; 'I' for Inactive)
REMARK    1  A    between atoms: C_1  and  C_2
REMARK    2  A    between atoms: C_5  and  C_6
REMARK    3  A    between atoms: N_8  and  C_9
REMARK    4  A    between atoms: C_9  and  C_10
REMARK                            x       y       z     vdW  Elec       q    Type
REMARK                         _______ _______ _______ _____ _____    ______ ____
ROOT
ATOM      1  C   UNL     1       4.390   3.518  19.008  0.00  0.00    +0.000 C 
ATOM      2  O   UNL     1       5.056   2.894  19.829  0.00  0.00    +0.000 OA
ATOM      3  N   UNL     1       3.017   3.405  18.950  0.00  0.00    +0.000 N 
ATOM      4  H   UNL     1       2.531   4.033  18.319  0.00  0.00    +0.000 HD
ENDROOT
BRANCH   1   9
ATOM      5  C   UNL     1       7.327   7.050  17.494  0.00  0.00    +0.000 C 
ATOM      6  C   UNL     1       6.283   6.025  17.304  0.00  0.00    +0.000 A 
ATOM      7  C   UNL     1       5.552   5.612  16.214  0.00  0.00    +0.000 A 
ATOM      8  C   UNL     1       4.701   4.577  16.673  0.00  0.00    +0.000 A 
ATOM      9  C   UNL     1       4.957   4.414  18.023  0.00  0.00    +0.000 A 
ATOM     10  O   UNL     1       5.930   5.308  18.408  0.00  0.00    +0.000 OA
ENDBRANCH   1   9
BRANCH   3  11
ATOM     11  C   UNL     1       2.270   2.609  19.919  0.00  0.00    +0.000 C 
BRANCH  11  12
ATOM     12  C   UNL     1       1.514   3.392  21.003  0.00  0.00    +0.000 C 
ATOM     13  F   UNL     1       0.972   2.586  21.942  0.00  0.00    +0.000 F 
ATOM     14  F   UNL     1       2.362   4.234  21.645  0.00  0.00    +0.000 F 
ATOM     15  F   UNL     1       0.525   4.146  20.477  0.00  0.00    +0.000 F 
ENDBRANCH  11  12
ENDBRANCH   3  11
TORSDOF 3
ENDMDL
MODEL 7
REMARK VINA RESULT:      -6.2      4.028      6.060
REMARK  Name = 
REMARK  4 active torsions:
REMARK  status: ('A' for Active; 'I' for Inactive)
REMARK    1  A    between atoms: C_1  and  C_2
REMARK    2  A    between atoms: C_5  and  C_6
REMARK    3  A    between atoms: N_8  and  C_9
REMARK    4  A    between atoms: C_9  and  C_10
REMARK                            x       y       z     vdW  Elec       q    Type
REMARK                         _______ _______ _______ _____ _____    ______ ____
ROOT
ATOM      1  C   UNL     1       4.965   3.742  18.378  0.00  0.00    +0.000 C 
ATOM      2  O   UNL     1       5.788   4.219  19.153  0.00  0.00    +0.000 OA
ATOM      3  N   UNL     1       5.168   3.741  17.014  0.00  0.00    +0.000 N 
ATOM      4  H   UNL     1       4.495   3.232  16.450  0.00  0.00    +0.000 HD
ENDROOT
BRANCH   1   9
ATOM      5  C   UNL     1       1.473   2.695  21.555  0.00  0.00    +0.000 C 
ATOM      6  C   UNL     1       2.106   2.652  20.224  0.00  0.00    +0.000 A 
ATOM      7  C   UNL     1       1.749   2.074  19.026  0.00  0.00    +0.000 A 
ATOM      8  C   UNL     1       2.779   2.393  18.107  0.00  0.00    +0.000 A 
ATOM      9  C   UNL     1       3.713   3.148  18.795  0.00  0.00    +0.000 A 
ATOM     10  O   UNL     1       3.296   3.304  20.097  0.00  0.00    +0.000 OA
ENDBRANCH   1   9
BRANCH   3  11
ATOM     11  C   UNL     1       6.411   4.226  16.422  0.00  0.00    +0.000 C 
BRANCH  11  12
ATOM     12  C   UNL     1       6.360   4.575  14.927  0.00  0.00    +0.000 C 
ATOM     13  F   UNL     1       7.514   5.118  14.482  0.00  0.00    +0.000 F 
ATOM     14  F   UNL     1       6.142   3.454  14.195  0.00  0.00    +0.000 F 
ATOM     15  F   UNL     1       5.358   5.436  14.648  0.00  0.00    +0.000 F 
ENDBRANCH  11  12
ENDBRANCH   3  11
TORSDOF 3
ENDMDL
MODEL 8
REMARK VINA RESULT:      -6.1      1.608      2.400
REMARK  Name = 
REMARK  4 active torsions:
REMARK  status: ('A' for Active; 'I' for Inactive)
REMARK    1  A    between atoms: C_1  and  C_2
REMARK    2  A    between atoms: C_5  and  C_6
REMARK    3  A    between atoms: N_8  and  C_9
REMARK    4  A    between atoms: C_9  and  C_10
REMARK                            x       y       z     vdW  Elec       q    Type
REMARK                         _______ _______ _______ _____ _____    ______ ____
ROOT
ATOM      1  C   UNL     1       3.311   3.419  17.817  0.00  0.00    +0.000 C 
ATOM      2  O   UNL     1       2.321   3.344  17.095  0.00  0.00    +0.000 OA
ATOM      3  N   UNL     1       3.262   3.082  19.153  0.00  0.00    +0.000 N 
ATOM      4  H   UNL     1       4.143   3.066  19.655  0.00  0.00    +0.000 HD
ENDROOT
BRANCH   1   9
ATOM      5  C   UNL     1       7.703   5.363  18.381  0.00  0.00    +0.000 C 
ATOM      6  C   UNL     1       6.618   4.754  17.589  0.00  0.00    +0.000 A 
ATOM      7  C   UNL     1       6.484   4.437  16.255  0.00  0.00    +0.000 A 
ATOM      8  C   UNL     1       5.196   3.867  16.109  0.00  0.00    +0.000 A 
ATOM      9  C   UNL     1       4.610   3.868  17.362  0.00  0.00    +0.000 A 
ATOM     10  O   UNL     1       5.487   4.416  18.269  0.00  0.00    +0.000 OA
ENDBRANCH   1   9
BRANCH   3  11
ATOM     11  C   UNL     1       2.054   2.533  19.763  0.00  0.00    +0.000 C 
BRANCH  11  12
ATOM     12  C   UNL     1       1.428   3.363  20.894  0.00  0.00    +0.000 C 
ATOM     13  F   UNL     1       2.319   4.187  21.487  0.00  0.00    +0.000 F 
ATOM     14  F   UNL     1       0.433   4.144  20.402  0.00  0.00    +0.000 F 
ATOM     15  F   UNL     1       0.884   2.578  21.848  0.00  0.00    +0.000 F 
ENDBRANCH  11  12
ENDBRANCH   3  11
TORSDOF 3
ENDMDL
MODEL 9
REMARK VINA RESULT:      -6.1      0.676      1.011
REMARK  Name = 
REMARK  4 active torsions:
REMARK  status: ('A' for Active; 'I' for Inactive)
REMARK    1  A    between atoms: C_1  and  C_2
REMARK    2  A    between atoms: C_5  and  C_6
REMARK    3  A    between atoms: N_8  and  C_9
REMARK    4  A    between atoms: C_9  and  C_10
REMARK                            x       y       z     vdW  Elec       q    Type
REMARK                         _______ _______ _______ _____ _____    ______ ____
ROOT
ATOM      1  C   UNL     1       4.497   4.195  18.909  0.00  0.00    +0.000 C 
ATOM      2  O   UNL     1       5.239   3.447  19.538  0.00  0.00    +0.000 OA
ATOM      3  N   UNL     1       3.242   4.530  19.372  0.00  0.00    +0.000 N 
ATOM      4  H   UNL     1       2.734   5.236  18.850  0.00  0.00    +0.000 HD
ENDROOT
BRANCH   1   9
ATOM      5  C   UNL     1       5.986   4.102  14.309  0.00  0.00    +0.000 C 
ATOM      6  C   UNL     1       5.521   4.776  15.535  0.00  0.00    +0.000 A 
ATOM      7  C   UNL     1       5.280   6.094  15.856  0.00  0.00    +0.000 A 
ATOM      8  C   UNL     1       4.842   6.102  17.202  0.00  0.00    +0.000 A 
ATOM      9  C   UNL     1       4.841   4.788  17.634  0.00  0.00    +0.000 A 
ATOM     10  O   UNL     1       5.260   3.976  16.606  0.00  0.00    +0.000 OA
ENDBRANCH   1   9
BRANCH   3  11
ATOM     11  C   UNL     1       2.761   4.088  20.677  0.00  0.00    +0.000 C 
BRANCH  11  12
ATOM     12  C   UNL     1       1.563   3.127  20.669  0.00  0.00    +0.000 C 
ATOM     13  F   UNL     1       0.435   3.708  20.207  0.00  0.00    +0.000 F 
ATOM     14  F   UNL     1       1.822   2.068  19.861  0.00  0.00    +0.000 F 
ATOM     15  F   UNL     1       1.307   2.636  21.901  0.00  0.00    +0.000 F 
ENDBRANCH  11  12
ENDBRANCH   3  11
TORSDOF 3
ENDMDL
