MODEL 1
REMARK VINA RESULT:      -6.8      0.000      0.000
REMARK  Name = 
REMARK  12 active torsions:
REMARK  status: ('A' for Active; 'I' for Inactive)
REMARK    1  A    between atoms: C_1  and  O_2
REMARK    2  A    between atoms: O_2  and  C_3
REMARK    3  A    between atoms: C_5  and  N_6
REMARK    4  A    between atoms: C_10  and  C_11
REMARK    5  A    between atoms: N_13  and  C_14
REMARK    6  A    between atoms: N_17  and  C_18
REMARK    7  A    between atoms: C_18  and  C_19
REMARK    8  A    between atoms: N_25  and  C_26
REMARK    9  A    between atoms: C_26  and  C_27
REMARK   10  A    between atoms: C_26  and  C_28
REMARK   11  A    between atoms: C_32  and  O_33
REMARK   12  A    between atoms: O_33  and  C_34
REMARK                            x       y       z     vdW  Elec       q    Type
REMARK                         _______ _______ _______ _____ _____    ______ ____
ROOT
ATOM      1  C   UNL     1       0.480  14.208  18.855  0.00  0.00    +0.000 C 
ATOM      2  C   UNL     1       0.913  15.691  18.876  0.00  0.00    +0.000 C 
ATOM      3  C   UNL     1       2.263  16.046  18.247  0.00  0.00    +0.000 C 
ATOM      4  N   UNL     1       3.336  15.135  18.688  0.00  0.00    +0.000 NA
ATOM      5  C   UNL     1       3.006  13.807  18.100  0.00  0.00    +0.000 C 
ATOM      6  C   UNL     1       1.633  13.196  18.537  0.00  0.00    +0.000 C 
ENDROOT
BRANCH   1   9
ATOM      7  C   UNL     1      -1.490  13.057  19.979  0.00  0.00    +0.000 C 
ATOM      8  O   UNL     1      -1.901  12.590  18.926  0.00  0.00    +0.000 OA
ATOM      9  N   UNL     1      -0.350  13.857  20.043  0.00  0.00    +0.000 N 
ATOM     10  H   UNL     1      -0.001  14.130  20.952  0.00  0.00    +0.000 HD
BRANCH   7  17
ATOM     11  C   UNL     1      -1.722  12.302  22.443  0.00  0.00    +0.000 A 
ATOM     12  C   UNL     1      -2.509  12.210  23.610  0.00  0.00    +0.000 A 
ATOM     13  C   UNL     1      -3.889  12.406  23.581  0.00  0.00    +0.000 A 
ATOM     14  C   UNL     1      -4.459  12.749  22.348  0.00  0.00    +0.000 A 
ATOM     15 CL   UNL     1      -6.179  12.881  22.201  0.00  0.00    +0.000 Cl
ATOM     16  C   UNL     1      -3.668  12.996  21.215  0.00  0.00    +0.000 A 
ATOM     17  C   UNL     1      -2.267  12.783  21.247  0.00  0.00    +0.000 A 
BRANCH  13  18
ATOM     18  N   UNL     1      -4.643  11.978  24.687  0.00  0.00    +0.000 N 
ATOM     19  H   UNL     1      -4.161  11.365  25.336  0.00  0.00    +0.000 HD
ATOM     20  H   UNL     1      -5.166  12.719  25.149  0.00  0.00    +0.000 HD
ENDBRANCH  13  18
BRANCH  11  22
ATOM     21  C   UNL     1      -0.405  10.396  22.623  0.00  0.00    +0.000 C 
ATOM     22  O   UNL     1      -0.433  11.824  22.469  0.00  0.00    +0.000 OA
ENDBRANCH  11  22
ENDBRANCH   7  17
ENDBRANCH   1   9
BRANCH   6  23
ATOM     23  O   UNL     1       1.659  12.049  19.403  0.00  0.00    +0.000 OA
ATOM     24  C   UNL     1       1.259  10.804  18.863  0.00  0.00    +0.000 C 
ENDBRANCH   6  23
BRANCH   4  25
ATOM     25  C   UNL     1       4.695  15.587  18.242  0.00  0.00    +0.000 C 
BRANCH  25  26
ATOM     26  C   UNL     1       5.703  16.103  19.326  0.00  0.00    +0.000 C 
ATOM     27  C   UNL     1       6.833  16.992  18.764  0.00  0.00    +0.000 C 
ATOM     28  C   UNL     1       8.017  16.242  18.155  0.00  0.00    +0.000 C 
ATOM     29  N   UNL     1       8.540  15.134  18.949  0.00  0.00    +0.000 N 
ATOM     30  C   UNL     1       9.785  14.633  18.523  0.00  0.00    +0.000 C 
ATOM     31  O   UNL     1      10.438  15.173  17.625  0.00  0.00    +0.000 OA
ATOM     32  N   UNL     1      10.255  13.526  19.180  0.00  0.00    +0.000 N 
ATOM     33  C   UNL     1       7.579  14.328  19.702  0.00  0.00    +0.000 C 
ATOM     34  C   UNL     1       6.349  15.061  20.244  0.00  0.00    +0.000 C 
ATOM     35  H   UNL     1       9.599  12.977  19.721  0.00  0.00    +0.000 HD
BRANCH  32  36
ATOM     36  C   UNL     1      11.510  12.874  18.823  0.00  0.00    +0.000 C 
ATOM     37  C   UNL     1      12.054  12.073  20.010  0.00  0.00    +0.000 C 
ATOM     38  C   UNL     1      11.321  11.953  17.613  0.00  0.00    +0.000 C 
ENDBRANCH  32  36
ENDBRANCH  25  26
ENDBRANCH   4  25
TORSDOF 8
ENDMDL
MODEL 2
REMARK VINA RESULT:      -6.6      6.036     11.498
REMARK  Name = 
REMARK  12 active torsions:
REMARK  status: ('A' for Active; 'I' for Inactive)
REMARK    1  A    between atoms: C_1  and  O_2
REMARK    2  A    between atoms: O_2  and  C_3
REMARK    3  A    between atoms: C_5  and  N_6
REMARK    4  A    between atoms: C_10  and  C_11
REMARK    5  A    between atoms: N_13  and  C_14
REMARK    6  A    between atoms: N_17  and  C_18
REMARK    7  A    between atoms: C_18  and  C_19
REMARK    8  A    between atoms: N_25  and  C_26
REMARK    9  A    between atoms: C_26  and  C_27
REMARK   10  A    between atoms: C_26  and  C_28
REMARK   11  A    between atoms: C_32  and  O_33
REMARK   12  A    between atoms: O_33  and  C_34
REMARK                            x       y       z     vdW  Elec       q    Type
REMARK                         _______ _______ _______ _____ _____    ______ ____
ROOT
ATOM      1  C   UNL     1       1.123   8.222  20.045  0.00  0.00    +0.000 C 
ATOM      2  C   UNL     1       0.856   8.376  21.559  0.00  0.00    +0.000 C 
ATOM      3  C   UNL     1       0.062   9.601  22.019  0.00  0.00    +0.000 C 
ATOM      4  N   UNL     1       0.555  10.846  21.399  0.00  0.00    +0.000 NA
ATOM      5  C   UNL     1       0.229  10.732  19.950  0.00  0.00    +0.000 C 
ATOM      6  C   UNL     1       0.880   9.521  19.203  0.00  0.00    +0.000 C 
ENDROOT
BRANCH   1   9
ATOM      7  C   UNL     1       2.606   6.605  18.758  0.00  0.00    +0.000 C 
ATOM      8  O   UNL     1       1.700   6.270  18.007  0.00  0.00    +0.000 OA
ATOM      9  N   UNL     1       2.420   7.537  19.777  0.00  0.00    +0.000 N 
ATOM     10  H   UNL     1       3.227   7.850  20.300  0.00  0.00    +0.000 HD
BRANCH   7  17
ATOM     11  C   UNL     1       4.296   4.660  18.996  0.00  0.00    +0.000 A 
ATOM     12  C   UNL     1       5.551   4.102  18.671  0.00  0.00    +0.000 A 
ATOM     13  C   UNL     1       6.572   4.870  18.113  0.00  0.00    +0.000 A 
ATOM     14  C   UNL     1       6.284   6.214  17.840  0.00  0.00    +0.000 A 
ATOM     15 CL   UNL     1       7.535   7.265  17.269  0.00  0.00    +0.000 Cl
ATOM     16  C   UNL     1       4.993   6.740  18.013  0.00  0.00    +0.000 A 
ATOM     17  C   UNL     1       3.962   5.958  18.592  0.00  0.00    +0.000 A 
BRANCH  13  18
ATOM     18  N   UNL     1       7.877   4.349  18.126  0.00  0.00    +0.000 N 
ATOM     19  H   UNL     1       8.067   3.660  18.848  0.00  0.00    +0.000 HD
ATOM     20  H   UNL     1       8.228   4.076  17.211  0.00  0.00    +0.000 HD
ENDBRANCH  13  18
BRANCH  11  22
ATOM     21  C   UNL     1       3.915   2.610  20.020  0.00  0.00    +0.000 C 
ATOM     22  O   UNL     1       3.436   3.946  19.796  0.00  0.00    +0.000 OA
ENDBRANCH  11  22
ENDBRANCH   7  17
ENDBRANCH   1   9
BRANCH   6  23
ATOM     23  O   UNL     1       1.920   9.804  18.253  0.00  0.00    +0.000 OA
ATOM     24  C   UNL     1       2.251  11.159  18.019  0.00  0.00    +0.000 C 
ENDBRANCH   6  23
BRANCH   4  25
ATOM     25  C   UNL     1      -0.078  12.072  21.988  0.00  0.00    +0.000 C 
BRANCH  25  26
ATOM     26  C   UNL     1      -0.894  13.018  21.040  0.00  0.00    +0.000 C 
ATOM     27  C   UNL     1      -0.941  14.489  21.507  0.00  0.00    +0.000 C 
ATOM     28  C   UNL     1      -1.989  14.807  22.573  0.00  0.00    +0.000 C 
ATOM     29  N   UNL     1      -3.324  14.270  22.327  0.00  0.00    +0.000 N 
ATOM     30  C   UNL     1      -4.336  14.791  23.155  0.00  0.00    +0.000 C 
ATOM     31  O   UNL     1      -4.129  15.720  23.942  0.00  0.00    +0.000 OA
ATOM     32  N   UNL     1      -5.581  14.234  23.022  0.00  0.00    +0.000 N 
ATOM     33  C   UNL     1      -3.420  12.955  21.694  0.00  0.00    +0.000 C 
ATOM     34  C   UNL     1      -2.324  12.601  20.686  0.00  0.00    +0.000 C 
ATOM     35  H   UNL     1      -5.656  13.334  22.566  0.00  0.00    +0.000 HD
BRANCH  32  36
ATOM     36  C   UNL     1      -6.717  14.645  23.841  0.00  0.00    +0.000 C 
ATOM     37  C   UNL     1      -7.580  15.661  23.086  0.00  0.00    +0.000 C 
ATOM     38  C   UNL     1      -7.567  13.434  24.242  0.00  0.00    +0.000 C 
ENDBRANCH  32  36
ENDBRANCH  25  26
ENDBRANCH   4  25
TORSDOF 8
ENDMDL
MODEL 3
REMARK VINA RESULT:      -6.5      6.184      8.498
REMARK  Name = 
REMARK  12 active torsions:
REMARK  status: ('A' for Active; 'I' for Inactive)
REMARK    1  A    between atoms: C_1  and  O_2
REMARK    2  A    between atoms: O_2  and  C_3
REMARK    3  A    between atoms: C_5  and  N_6
REMARK    4  A    between atoms: C_10  and  C_11
REMARK    5  A    between atoms: N_13  and  C_14
REMARK    6  A    between atoms: N_17  and  C_18
REMARK    7  A    between atoms: C_18  and  C_19
REMARK    8  A    between atoms: N_25  and  C_26
REMARK    9  A    between atoms: C_26  and  C_27
REMARK   10  A    between atoms: C_26  and  C_28
REMARK   11  A    between atoms: C_32  and  O_33
REMARK   12  A    between atoms: O_33  and  C_34
REMARK                            x       y       z     vdW  Elec       q    Type
REMARK                         _______ _______ _______ _____ _____    ______ ____
ROOT
ATOM      1  C   UNL     1       1.129   9.576  19.341  0.00  0.00    +0.000 C 
ATOM      2  C   UNL     1       1.831   9.031  18.077  0.00  0.00    +0.000 C 
ATOM      3  C   UNL     1       2.112   7.528  18.013  0.00  0.00    +0.000 C 
ATOM      4  N   UNL     1       2.716   7.023  19.260  0.00  0.00    +0.000 NA
ATOM      5  C   UNL     1       1.657   7.144  20.300  0.00  0.00    +0.000 C 
ATOM      6  C   UNL     1       1.130   8.594  20.563  0.00  0.00    +0.000 C 
ENDROOT
BRANCH   1   9
ATOM      7  C   UNL     1       0.815  12.100  19.335  0.00  0.00    +0.000 C 
ATOM      8  O   UNL     1      -0.257  12.030  18.748  0.00  0.00    +0.000 OA
ATOM      9  N   UNL     1       1.560  10.968  19.659  0.00  0.00    +0.000 N 
ATOM     10  H   UNL     1       2.386  11.080  20.231  0.00  0.00    +0.000 HD
BRANCH   7  17
ATOM     11  C   UNL     1       1.367  14.028  20.969  0.00  0.00    +0.000 A 
ATOM     12  C   UNL     1       2.025  15.251  21.218  0.00  0.00    +0.000 A 
ATOM     13  C   UNL     1       2.522  16.039  20.181  0.00  0.00    +0.000 A 
ATOM     14  C   UNL     1       2.387  15.541  18.878  0.00  0.00    +0.000 A 
ATOM     15 CL   UNL     1       2.861  16.517  17.529  0.00  0.00    +0.000 Cl
ATOM     16  C   UNL     1       1.876  14.257  18.632  0.00  0.00    +0.000 A 
ATOM     17  C   UNL     1       1.360  13.465  19.688  0.00  0.00    +0.000 A 
BRANCH  13  18
ATOM     18  N   UNL     1       2.857  17.375  20.465  0.00  0.00    +0.000 N 
ATOM     19  H   UNL     1       2.178  18.069  20.169  0.00  0.00    +0.000 HD
ATOM     20  H   UNL     1       3.200  17.528  21.410  0.00  0.00    +0.000 HD
ENDBRANCH  13  18
BRANCH  11  22
ATOM     21  C   UNL     1      -0.585  14.131  22.226  0.00  0.00    +0.000 C 
ATOM     22  O   UNL     1       0.651  13.438  21.984  0.00  0.00    +0.000 OA
ENDBRANCH  11  22
ENDBRANCH   7  17
ENDBRANCH   1   9
BRANCH   6  23
ATOM     23  O   UNL     1       1.478   9.215  21.812  0.00  0.00    +0.000 OA
ATOM     24  C   UNL     1       0.443   9.441  22.749  0.00  0.00    +0.000 C 
ENDBRANCH   6  23
BRANCH   4  25
ATOM     25  C   UNL     1       3.179   5.601  19.141  0.00  0.00    +0.000 C 
BRANCH  25  26
ATOM     26  C   UNL     1       4.718   5.325  19.021  0.00  0.00    +0.000 C 
ATOM     27  C   UNL     1       5.490   6.402  18.228  0.00  0.00    +0.000 C 
ATOM     28  C   UNL     1       5.441   6.260  16.707  0.00  0.00    +0.000 C 
ATOM     29  N   UNL     1       5.690   4.919  16.188  0.00  0.00    +0.000 N 
ATOM     30  C   UNL     1       5.916   4.851  14.801  0.00  0.00    +0.000 C 
ATOM     31  O   UNL     1       6.018   5.863  14.101  0.00  0.00    +0.000 OA
ATOM     32  N   UNL     1       6.049   3.597  14.265  0.00  0.00    +0.000 N 
ATOM     33  C   UNL     1       5.179   3.787  16.963  0.00  0.00    +0.000 C 
ATOM     34  C   UNL     1       5.151   3.958  18.483  0.00  0.00    +0.000 C 
ATOM     35  H   UNL     1       5.717   2.808  14.805  0.00  0.00    +0.000 HD
BRANCH  32  36
ATOM     36  C   UNL     1       6.247   3.370  12.837  0.00  0.00    +0.000 C 
ATOM     37  C   UNL     1       4.917   3.486  12.087  0.00  0.00    +0.000 C 
ATOM     38  C   UNL     1       7.260   4.365  12.262  0.00  0.00    +0.000 C 
ENDBRANCH  32  36
ENDBRANCH  25  26
ENDBRANCH   4  25
TORSDOF 8
ENDMDL
MODEL 4
REMARK VINA RESULT:      -6.5      6.226      9.961
REMARK  Name = 
REMARK  12 active torsions:
REMARK  status: ('A' for Active; 'I' for Inactive)
REMARK    1  A    between atoms: C_1  and  O_2
REMARK    2  A    between atoms: O_2  and  C_3
REMARK    3  A    between atoms: C_5  and  N_6
REMARK    4  A    between atoms: C_10  and  C_11
REMARK    5  A    between atoms: N_13  and  C_14
REMARK    6  A    between atoms: N_17  and  C_18
REMARK    7  A    between atoms: C_18  and  C_19
REMARK    8  A    between atoms: N_25  and  C_26
REMARK    9  A    between atoms: C_26  and  C_27
REMARK   10  A    between atoms: C_26  and  C_28
REMARK   11  A    between atoms: C_32  and  O_33
REMARK   12  A    between atoms: O_33  and  C_34
REMARK                            x       y       z     vdW  Elec       q    Type
REMARK                         _______ _______ _______ _____ _____    ______ ____
ROOT
ATOM      1  C   UNL     1       0.946  10.344  19.153  0.00  0.00    +0.000 C 
ATOM      2  C   UNL     1      -0.338  10.384  18.294  0.00  0.00    +0.000 C 
ATOM      3  C   UNL     1      -1.363  11.478  18.600  0.00  0.00    +0.000 C 
ATOM      4  N   UNL     1      -1.643  11.587  20.044  0.00  0.00    +0.000 NA
ATOM      5  C   UNL     1      -0.386  12.094  20.662  0.00  0.00    +0.000 C 
ATOM      6  C   UNL     1       0.874  11.185  20.474  0.00  0.00    +0.000 C 
ENDROOT
BRANCH   1   9
ATOM      7  C   UNL     1       2.248   8.299  18.382  0.00  0.00    +0.000 C 
ATOM      8  O   UNL     1       2.576   8.825  17.327  0.00  0.00    +0.000 OA
ATOM      9  N   UNL     1       1.456   8.954  19.325  0.00  0.00    +0.000 N 
ATOM     10  H   UNL     1       1.302   8.509  20.219  0.00  0.00    +0.000 HD
BRANCH   7  17
ATOM     11  C   UNL     1       3.753   6.226  18.017  0.00  0.00    +0.000 A 
ATOM     12  C   UNL     1       4.173   4.948  18.441  0.00  0.00    +0.000 A 
ATOM     13  C   UNL     1       3.442   4.206  19.367  0.00  0.00    +0.000 A 
ATOM     14  C   UNL     1       2.294   4.805  19.902  0.00  0.00    +0.000 A 
ATOM     15 CL   UNL     1       1.262   3.901  20.959  0.00  0.00    +0.000 Cl
ATOM     16  C   UNL     1       1.952   6.134  19.606  0.00  0.00    +0.000 A 
ATOM     17  C   UNL     1       2.691   6.880  18.654  0.00  0.00    +0.000 A 
BRANCH  13  18
ATOM     18  N   UNL     1       3.725   2.834  19.490  0.00  0.00    +0.000 N 
ATOM     19  H   UNL     1       3.089   2.307  20.079  0.00  0.00    +0.000 HD
ATOM     20  H   UNL     1       3.933   2.370  18.609  0.00  0.00    +0.000 HD
ENDBRANCH  13  18
BRANCH  11  22
ATOM     21  C   UNL     1       5.245   5.870  16.272  0.00  0.00    +0.000 C 
ATOM     22  O   UNL     1       4.338   6.787  16.906  0.00  0.00    +0.000 OA
ENDBRANCH  11  22
ENDBRANCH   7  17
ENDBRANCH   1   9
BRANCH   6  23
ATOM     23  O   UNL     1       1.382  10.500  21.631  0.00  0.00    +0.000 OA
ATOM     24  C   UNL     1       0.451   9.866  22.485  0.00  0.00    +0.000 C 
ENDBRANCH   6  23
BRANCH   4  25
ATOM     25  C   UNL     1      -2.787  12.512  20.341  0.00  0.00    +0.000 C 
BRANCH  25  26
ATOM     26  C   UNL     1      -3.444  12.451  21.764  0.00  0.00    +0.000 C 
ATOM     27  C   UNL     1      -4.330  13.670  22.100  0.00  0.00    +0.000 C 
ATOM     28  C   UNL     1      -3.585  14.907  22.599  0.00  0.00    +0.000 C 
ATOM     29  N   UNL     1      -2.577  14.667  23.627  0.00  0.00    +0.000 N 
ATOM     30  C   UNL     1      -2.099  15.822  24.272  0.00  0.00    +0.000 C 
ATOM     31  O   UNL     1      -2.586  16.939  24.069  0.00  0.00    +0.000 OA
ATOM     32  N   UNL     1      -1.078  15.643  25.169  0.00  0.00    +0.000 N 
ATOM     33  C   UNL     1      -1.798  13.432  23.536  0.00  0.00    +0.000 C 
ATOM     34  C   UNL     1      -2.518  12.211  22.960  0.00  0.00    +0.000 C 
ATOM     35  H   UNL     1      -0.549  14.782  25.125  0.00  0.00    +0.000 HD
BRANCH  32  36
ATOM     36  C   UNL     1      -0.455  16.753  25.883  0.00  0.00    +0.000 C 
ATOM     37  C   UNL     1       0.004  16.304  27.274  0.00  0.00    +0.000 C 
ATOM     38  C   UNL     1       0.735  17.310  25.095  0.00  0.00    +0.000 C 
ENDBRANCH  32  36
ENDBRANCH  25  26
ENDBRANCH   4  25
TORSDOF 8
ENDMDL
MODEL 5
REMARK VINA RESULT:      -6.5      6.169      8.862
REMARK  Name = 
REMARK  12 active torsions:
REMARK  status: ('A' for Active; 'I' for Inactive)
REMARK    1  A    between atoms: C_1  and  O_2
REMARK    2  A    between atoms: O_2  and  C_3
REMARK    3  A    between atoms: C_5  and  N_6
REMARK    4  A    between atoms: C_10  and  C_11
REMARK    5  A    between atoms: N_13  and  C_14
REMARK    6  A    between atoms: N_17  and  C_18
REMARK    7  A    between atoms: C_18  and  C_19
REMARK    8  A    between atoms: N_25  and  C_26
REMARK    9  A    between atoms: C_26  and  C_27
REMARK   10  A    between atoms: C_26  and  C_28
REMARK   11  A    between atoms: C_32  and  O_33
REMARK   12  A    between atoms: O_33  and  C_34
REMARK                            x       y       z     vdW  Elec       q    Type
REMARK                         _______ _______ _______ _____ _____    ______ ____
ROOT
ATOM      1  C   UNL     1       1.220   9.319  19.016  0.00  0.00    +0.000 C 
ATOM      2  C   UNL     1       1.922   8.475  17.929  0.00  0.00    +0.000 C 
ATOM      3  C   UNL     1       2.083   6.975  18.188  0.00  0.00    +0.000 C 
ATOM      4  N   UNL     1       2.599   6.699  19.543  0.00  0.00    +0.000 NA
ATOM      5  C   UNL     1       1.515   7.108  20.479  0.00  0.00    +0.000 C 
ATOM      6  C   UNL     1       1.096   8.615  20.411  0.00  0.00    +0.000 C 
ENDROOT
BRANCH   1   9
ATOM      7  C   UNL     1       0.974  11.842  18.807  0.00  0.00    +0.000 C 
ATOM      8  O   UNL     1      -0.210  11.767  18.510  0.00  0.00    +0.000 OA
ATOM      9  N   UNL     1       1.749  10.712  19.064  0.00  0.00    +0.000 N 
ATOM     10  H   UNL     1       2.693  10.839  19.403  0.00  0.00    +0.000 HD
BRANCH   7  17
ATOM     11  C   UNL     1       0.994  14.386  19.279  0.00  0.00    +0.000 A 
ATOM     12  C   UNL     1       1.727  15.582  19.428  0.00  0.00    +0.000 A 
ATOM     13  C   UNL     1       3.046  15.692  18.992  0.00  0.00    +0.000 A 
ATOM     14  C   UNL     1       3.635  14.546  18.441  0.00  0.00    +0.000 A 
ATOM     15 CL   UNL     1       5.223  14.635  17.759  0.00  0.00    +0.000 Cl
ATOM     16  C   UNL     1       2.968  13.310  18.432  0.00  0.00    +0.000 A 
ATOM     17  C   UNL     1       1.623  13.206  18.865  0.00  0.00    +0.000 A 
BRANCH  13  18
ATOM     18  N   UNL     1       3.597  16.979  18.863  0.00  0.00    +0.000 N 
ATOM     19  H   UNL     1       3.030  17.650  18.354  0.00  0.00    +0.000 HD
ATOM     20  H   UNL     1       3.985  17.356  19.725  0.00  0.00    +0.000 HD
ENDBRANCH  13  18
BRANCH  11  22
ATOM     21  C   UNL     1      -0.844  15.751  19.677  0.00  0.00    +0.000 C 
ATOM     22  O   UNL     1      -0.370  14.413  19.457  0.00  0.00    +0.000 OA
ENDBRANCH  11  22
ENDBRANCH   7  17
ENDBRANCH   1   9
BRANCH   6  23
ATOM     23  O   UNL     1       1.447   9.456  21.523  0.00  0.00    +0.000 OA
ATOM     24  C   UNL     1       0.702   9.317  22.717  0.00  0.00    +0.000 C 
ENDBRANCH   6  23
BRANCH   4  25
ATOM     25  C   UNL     1       2.950   5.254  19.742  0.00  0.00    +0.000 C 
BRANCH  25  26
ATOM     26  C   UNL     1       4.433   4.806  19.495  0.00  0.00    +0.000 C 
ATOM     27  C   UNL     1       5.344   5.923  18.942  0.00  0.00    +0.000 C 
ATOM     28  C   UNL     1       5.260   6.152  17.433  0.00  0.00    +0.000 C 
ATOM     29  N   UNL     1       5.309   4.950  16.607  0.00  0.00    +0.000 N 
ATOM     30  C   UNL     1       5.510   5.181  15.233  0.00  0.00    +0.000 C 
ATOM     31  O   UNL     1       5.750   6.305  14.783  0.00  0.00    +0.000 OA
ATOM     32  N   UNL     1       5.457   4.082  14.415  0.00  0.00    +0.000 N 
ATOM     33  C   UNL     1       4.649   3.749  17.119  0.00  0.00    +0.000 C 
ATOM     34  C   UNL     1       4.660   3.558  18.637  0.00  0.00    +0.000 C 
ATOM     35  H   UNL     1       5.021   3.242  14.771  0.00  0.00    +0.000 HD
BRANCH  32  36
ATOM     36  C   UNL     1       5.607   4.174  12.966  0.00  0.00    +0.000 C 
ATOM     37  C   UNL     1       7.060   3.908  12.562  0.00  0.00    +0.000 C 
ATOM     38  C   UNL     1       4.678   3.183  12.258  0.00  0.00    +0.000 C 
ENDBRANCH  32  36
ENDBRANCH  25  26
ENDBRANCH   4  25
TORSDOF 8
ENDMDL
MODEL 6
REMARK VINA RESULT:      -6.4      6.155      7.613
REMARK  Name = 
REMARK  12 active torsions:
REMARK  status: ('A' for Active; 'I' for Inactive)
REMARK    1  A    between atoms: C_1  and  O_2
REMARK    2  A    between atoms: O_2  and  C_3
REMARK    3  A    between atoms: C_5  and  N_6
REMARK    4  A    between atoms: C_10  and  C_11
REMARK    5  A    between atoms: N_13  and  C_14
REMARK    6  A    between atoms: N_17  and  C_18
REMARK    7  A    between atoms: C_18  and  C_19
REMARK    8  A    between atoms: N_25  and  C_26
REMARK    9  A    between atoms: C_26  and  C_27
REMARK   10  A    between atoms: C_26  and  C_28
REMARK   11  A    between atoms: C_32  and  O_33
REMARK   12  A    between atoms: O_33  and  C_34
REMARK                            x       y       z     vdW  Elec       q    Type
REMARK                         _______ _______ _______ _____ _____    ______ ____
ROOT
ATOM      1  C   UNL     1      -0.324  11.205  21.291  0.00  0.00    +0.000 C 
ATOM      2  C   UNL     1      -0.094  10.239  22.474  0.00  0.00    +0.000 C 
ATOM      3  C   UNL     1       1.021   9.200  22.338  0.00  0.00    +0.000 C 
ATOM      4  N   UNL     1       0.973   8.503  21.038  0.00  0.00    +0.000 NA
ATOM      5  C   UNL     1       1.316   9.531  20.017  0.00  0.00    +0.000 C 
ATOM      6  C   UNL     1       0.354  10.764  19.948  0.00  0.00    +0.000 C 
ENDROOT
BRANCH   1   9
ATOM      7  C   UNL     1      -2.323  12.674  21.852  0.00  0.00    +0.000 C 
ATOM      8  O   UNL     1      -1.676  13.371  22.622  0.00  0.00    +0.000 OA
ATOM      9  N   UNL     1      -1.756  11.600  21.167  0.00  0.00    +0.000 N 
ATOM     10  H   UNL     1      -2.311  11.125  20.468  0.00  0.00    +0.000 HD
BRANCH   7  17
ATOM     11  C   UNL     1      -4.534  12.698  20.508  0.00  0.00    +0.000 A 
ATOM     12  C   UNL     1      -5.932  12.888  20.485  0.00  0.00    +0.000 A 
ATOM     13  C   UNL     1      -6.602  13.528  21.526  0.00  0.00    +0.000 A 
ATOM     14  C   UNL     1      -5.835  13.934  22.626  0.00  0.00    +0.000 A 
ATOM     15 CL   UNL     1      -6.569  14.849  23.898  0.00  0.00    +0.000 Cl
ATOM     16  C   UNL     1      -4.472  13.611  22.731  0.00  0.00    +0.000 A 
ATOM     17  C   UNL     1      -3.793  12.971  21.664  0.00  0.00    +0.000 A 
BRANCH  13  18
ATOM     18  N   UNL     1      -7.914  13.978  21.293  0.00  0.00    +0.000 N 
ATOM     19  H   UNL     1      -7.995  14.826  20.742  0.00  0.00    +0.000 HD
ATOM     20  H   UNL     1      -8.560  13.247  21.002  0.00  0.00    +0.000 HD
ENDBRANCH  13  18
BRANCH  11  22
ATOM     21  C   UNL     1      -4.749  11.549  18.500  0.00  0.00    +0.000 C 
ATOM     22  O   UNL     1      -3.891  12.328  19.350  0.00  0.00    +0.000 OA
ENDBRANCH  11  22
ENDBRANCH   7  17
ENDBRANCH   1   9
BRANCH   6  23
ATOM     23  O   UNL     1      -0.498  10.882  18.797  0.00  0.00    +0.000 OA
ATOM     24  C   UNL     1      -0.392   9.893  17.791  0.00  0.00    +0.000 C 
ENDBRANCH   6  23
BRANCH   4  25
ATOM     25  C   UNL     1       1.930   7.349  20.968  0.00  0.00    +0.000 C 
BRANCH  25  26
ATOM     26  C   UNL     1       1.499   6.072  20.167  0.00  0.00    +0.000 C 
ATOM     27  C   UNL     1       2.207   4.777  20.619  0.00  0.00    +0.000 C 
ATOM     28  C   UNL     1       3.604   4.555  20.038  0.00  0.00    +0.000 C 
ATOM     29  N   UNL     1       3.734   4.775  18.601  0.00  0.00    +0.000 N 
ATOM     30  C   UNL     1       4.934   4.307  18.034  0.00  0.00    +0.000 C 
ATOM     31  O   UNL     1       5.756   3.652  18.682  0.00  0.00    +0.000 OA
ATOM     32  N   UNL     1       5.134   4.589  16.708  0.00  0.00    +0.000 N 
ATOM     33  C   UNL     1       2.947   5.856  18.007  0.00  0.00    +0.000 C 
ATOM     34  C   UNL     1       1.582   6.134  18.639  0.00  0.00    +0.000 C 
ATOM     35  H   UNL     1       4.578   5.322  16.286  0.00  0.00    +0.000 HD
BRANCH  32  36
ATOM     36  C   UNL     1       6.348   4.203  15.997  0.00  0.00    +0.000 C 
ATOM     37  C   UNL     1       6.030   3.876  14.534  0.00  0.00    +0.000 C 
ATOM     38  C   UNL     1       7.400   5.315  16.067  0.00  0.00    +0.000 C 
ENDBRANCH  32  36
ENDBRANCH  25  26
ENDBRANCH   4  25
TORSDOF 8
ENDMDL
MODEL 7
REMARK VINA RESULT:      -6.4      2.748      3.767
REMARK  Name = 
REMARK  12 active torsions:
REMARK  status: ('A' for Active; 'I' for Inactive)
REMARK    1  A    between atoms: C_1  and  O_2
REMARK    2  A    between atoms: O_2  and  C_3
REMARK    3  A    between atoms: C_5  and  N_6
REMARK    4  A    between atoms: C_10  and  C_11
REMARK    5  A    between atoms: N_13  and  C_14
REMARK    6  A    between atoms: N_17  and  C_18
REMARK    7  A    between atoms: C_18  and  C_19
REMARK    8  A    between atoms: N_25  and  C_26
REMARK    9  A    between atoms: C_26  and  C_27
REMARK   10  A    between atoms: C_26  and  C_28
REMARK   11  A    between atoms: C_32  and  O_33
REMARK   12  A    between atoms: O_33  and  C_34
REMARK                            x       y       z     vdW  Elec       q    Type
REMARK                         _______ _______ _______ _____ _____    ______ ____
ROOT
ATOM      1  C   UNL     1       0.750  13.905  21.328  0.00  0.00    +0.000 C 
ATOM      2  C   UNL     1       2.014  13.278  20.699  0.00  0.00    +0.000 C 
ATOM      3  C   UNL     1       3.334  14.039  20.848  0.00  0.00    +0.000 C 
ATOM      4  N   UNL     1       3.187  15.470  20.522  0.00  0.00    +0.000 NA
ATOM      5  C   UNL     1       2.323  16.042  21.592  0.00  0.00    +0.000 C 
ATOM      6  C   UNL     1       0.893  15.418  21.712  0.00  0.00    +0.000 C 
ENDROOT
BRANCH   1   9
ATOM      7  C   UNL     1      -1.066  12.305  20.544  0.00  0.00    +0.000 C 
ATOM      8  O   UNL     1      -0.600  11.365  21.173  0.00  0.00    +0.000 OA
ATOM      9  N   UNL     1      -0.479  13.570  20.553  0.00  0.00    +0.000 N 
ATOM     10  H   UNL     1      -0.964  14.332  20.099  0.00  0.00    +0.000 HD
BRANCH   7  17
ATOM     11  C   UNL     1      -3.576  12.585  19.981  0.00  0.00    +0.000 A 
ATOM     12  C   UNL     1      -4.633  12.426  19.060  0.00  0.00    +0.000 A 
ATOM     13  C   UNL     1      -4.513  11.603  17.941  0.00  0.00    +0.000 A 
ATOM     14  C   UNL     1      -3.277  10.974  17.740  0.00  0.00    +0.000 A 
ATOM     15 CL   UNL     1      -3.089   9.836  16.450  0.00  0.00    +0.000 Cl
ATOM     16  C   UNL     1      -2.171  11.247  18.562  0.00  0.00    +0.000 A 
ATOM     17  C   UNL     1      -2.302  12.075  19.704  0.00  0.00    +0.000 A 
BRANCH  13  18
ATOM     18  N   UNL     1      -5.687  11.230  17.263  0.00  0.00    +0.000 N 
ATOM     19  H   UNL     1      -6.529  11.727  17.538  0.00  0.00    +0.000 HD
ATOM     20  H   UNL     1      -5.580  11.150  16.255  0.00  0.00    +0.000 HD
ENDBRANCH  13  18
BRANCH  11  22
ATOM     21  C   UNL     1      -5.052  12.665  21.773  0.00  0.00    +0.000 C 
ATOM     22  O   UNL     1      -3.835  13.167  21.199  0.00  0.00    +0.000 OA
ENDBRANCH  11  22
ENDBRANCH   7  17
ENDBRANCH   1   9
BRANCH   6  23
ATOM     23  O   UNL     1      -0.225  16.229  21.315  0.00  0.00    +0.000 OA
ATOM     24  C   UNL     1       0.024  17.321  20.451  0.00  0.00    +0.000 C 
ENDBRANCH   6  23
BRANCH   4  25
ATOM     25  C   UNL     1       4.504  16.187  20.469  0.00  0.00    +0.000 C 
BRANCH  25  26
ATOM     26  C   UNL     1       5.062  16.619  19.068  0.00  0.00    +0.000 C 
ATOM     27  C   UNL     1       4.736  15.630  17.929  0.00  0.00    +0.000 C 
ATOM     28  C   UNL     1       5.665  14.420  17.822  0.00  0.00    +0.000 C 
ATOM     29  N   UNL     1       7.094  14.712  17.899  0.00  0.00    +0.000 N 
ATOM     30  C   UNL     1       7.938  13.649  17.527  0.00  0.00    +0.000 C 
ATOM     31  O   UNL     1       7.500  12.595  17.054  0.00  0.00    +0.000 OA
ATOM     32  N   UNL     1       9.283  13.852  17.687  0.00  0.00    +0.000 N 
ATOM     33  C   UNL     1       7.520  15.780  18.803  0.00  0.00    +0.000 C 
ATOM     34  C   UNL     1       6.554  16.955  18.975  0.00  0.00    +0.000 C 
ATOM     35  H   UNL     1       9.584  14.604  18.293  0.00  0.00    +0.000 HD
BRANCH  32  36
ATOM     36  C   UNL     1      10.275  12.827  17.380  0.00  0.00    +0.000 C 
ATOM     37  C   UNL     1      11.453  13.435  16.612  0.00  0.00    +0.000 C 
ATOM     38  C   UNL     1      10.779  12.154  18.661  0.00  0.00    +0.000 C 
ENDBRANCH  32  36
ENDBRANCH  25  26
ENDBRANCH   4  25
TORSDOF 8
ENDMDL
MODEL 8
REMARK VINA RESULT:      -6.3      6.410      8.198
REMARK  Name = 
REMARK  12 active torsions:
REMARK  status: ('A' for Active; 'I' for Inactive)
REMARK    1  A    between atoms: C_1  and  O_2
REMARK    2  A    between atoms: O_2  and  C_3
REMARK    3  A    between atoms: C_5  and  N_6
REMARK    4  A    between atoms: C_10  and  C_11
REMARK    5  A    between atoms: N_13  and  C_14
REMARK    6  A    between atoms: N_17  and  C_18
REMARK    7  A    between atoms: C_18  and  C_19
REMARK    8  A    between atoms: N_25  and  C_26
REMARK    9  A    between atoms: C_26  and  C_27
REMARK   10  A    between atoms: C_26  and  C_28
REMARK   11  A    between atoms: C_32  and  O_33
REMARK   12  A    between atoms: O_33  and  C_34
REMARK                            x       y       z     vdW  Elec       q    Type
REMARK                         _______ _______ _______ _____ _____    ______ ____
ROOT
ATOM      1  C   UNL     1      -0.283  10.179  20.411  0.00  0.00    +0.000 C 
ATOM      2  C   UNL     1      -0.617   9.166  21.529  0.00  0.00    +0.000 C 
ATOM      3  C   UNL     1       0.467   8.161  21.924  0.00  0.00    +0.000 C 
ATOM      4  N   UNL     1       1.087   7.523  20.748  0.00  0.00    +0.000 NA
ATOM      5  C   UNL     1       1.839   8.603  20.051  0.00  0.00    +0.000 C 
ATOM      6  C   UNL     1       0.980   9.815  19.557  0.00  0.00    +0.000 C 
ENDROOT
BRANCH   1   9
ATOM      7  C   UNL     1      -2.273  11.670  19.874  0.00  0.00    +0.000 C 
ATOM      8  O   UNL     1      -2.025  12.440  20.792  0.00  0.00    +0.000 OA
ATOM      9  N   UNL     1      -1.490  10.546  19.616  0.00  0.00    +0.000 N 
ATOM     10  H   UNL     1      -1.681  10.003  18.785  0.00  0.00    +0.000 HD
BRANCH   7  17
ATOM     11  C   UNL     1      -3.589  11.649  17.646  0.00  0.00    +0.000 A 
ATOM     12  C   UNL     1      -4.814  11.805  16.965  0.00  0.00    +0.000 A 
ATOM     13  C   UNL     1      -5.912  12.422  17.564  0.00  0.00    +0.000 A 
ATOM     14  C   UNL     1      -5.765  12.838  18.893  0.00  0.00    +0.000 A 
ATOM     15 CL   UNL     1      -7.034  13.727  19.664  0.00  0.00    +0.000 Cl
ATOM     16  C   UNL     1      -4.605  12.549  19.630  0.00  0.00    +0.000 A 
ATOM     17  C   UNL     1      -3.487  11.932  19.014  0.00  0.00    +0.000 A 
BRANCH  13  18
ATOM     18  N   UNL     1      -6.970  12.840  16.737  0.00  0.00    +0.000 N 
ATOM     19  H   UNL     1      -6.720  13.045  15.775  0.00  0.00    +0.000 HD
ATOM     20  H   UNL     1      -7.813  12.278  16.821  0.00  0.00    +0.000 HD
ENDBRANCH  13  18
BRANCH  11  22
ATOM     21  C   UNL     1      -2.809  10.813  15.624  0.00  0.00    +0.000 C 
ATOM     22  O   UNL     1      -2.467  11.302  16.931  0.00  0.00    +0.000 OA
ENDBRANCH  11  22
ENDBRANCH   7  17
ENDBRANCH   1   9
BRANCH   6  23
ATOM     23  O   UNL     1       0.791   9.965  18.140  0.00  0.00    +0.000 OA
ATOM     24  C   UNL     1       1.191   8.897  17.303  0.00  0.00    +0.000 C 
ENDBRANCH   6  23
BRANCH   4  25
ATOM     25  C   UNL     1       2.005   6.396  21.120  0.00  0.00    +0.000 C 
BRANCH  25  26
ATOM     26  C   UNL     1       1.810   5.010  20.412  0.00  0.00    +0.000 C 
ATOM     27  C   UNL     1       2.909   3.976  20.739  0.00  0.00    +0.000 C 
ATOM     28  C   UNL     1       4.196   4.105  19.926  0.00  0.00    +0.000 C 
ATOM     29  N   UNL     1       4.020   4.277  18.487  0.00  0.00    +0.000 N 
ATOM     30  C   UNL     1       5.191   4.117  17.722  0.00  0.00    +0.000 C 
ATOM     31  O   UNL     1       6.256   3.739  18.220  0.00  0.00    +0.000 OA
ATOM     32  N   UNL     1       5.084   4.374  16.380  0.00  0.00    +0.000 N 
ATOM     33  C   UNL     1       2.883   5.077  18.034  0.00  0.00    +0.000 C 
ATOM     34  C   UNL     1       1.618   5.014  18.893  0.00  0.00    +0.000 C 
ATOM     35  H   UNL     1       4.288   4.909  16.058  0.00  0.00    +0.000 HD
BRANCH  32  36
ATOM     36  C   UNL     1       6.221   4.289  15.470  0.00  0.00    +0.000 C 
ATOM     37  C   UNL     1       5.742   4.040  14.036  0.00  0.00    +0.000 C 
ATOM     38  C   UNL     1       7.061   5.569  15.525  0.00  0.00    +0.000 C 
ENDBRANCH  32  36
ENDBRANCH  25  26
ENDBRANCH   4  25
TORSDOF 8
ENDMDL
MODEL 9
REMARK VINA RESULT:      -6.3      5.785      7.410
REMARK  Name = 
REMARK  12 active torsions:
REMARK  status: ('A' for Active; 'I' for Inactive)
REMARK    1  A    between atoms: C_1  and  O_2
REMARK    2  A    between atoms: O_2  and  C_3
REMARK    3  A    between atoms: C_5  and  N_6
REMARK    4  A    between atoms: C_10  and  C_11
REMARK    5  A    between atoms: N_13  and  C_14
REMARK    6  A    between atoms: N_17  and  C_18
REMARK    7  A    between atoms: C_18  and  C_19
REMARK    8  A    between atoms: N_25  and  C_26
REMARK    9  A    between atoms: C_26  and  C_27
REMARK   10  A    between atoms: C_26  and  C_28
REMARK   11  A    between atoms: C_32  and  O_33
REMARK   12  A    between atoms: O_33  and  C_34
REMARK                            x       y       z     vdW  Elec       q    Type
REMARK                         _______ _______ _______ _____ _____    ______ ____
ROOT
ATOM      1  C   UNL     1      -0.550  11.656  22.151  0.00  0.00    +0.000 C 
ATOM      2  C   UNL     1      -0.701  10.331  22.933  0.00  0.00    +0.000 C 
ATOM      3  C   UNL     1       0.395   9.276  22.762  0.00  0.00    +0.000 C 
ATOM      4  N   UNL     1       0.741   9.063  21.344  0.00  0.00    +0.000 NA
ATOM      5  C   UNL     1       1.387  10.325  20.891  0.00  0.00    +0.000 C 
ATOM      6  C   UNL     1       0.502  11.612  20.990  0.00  0.00    +0.000 C 
ENDROOT
BRANCH   1   9
ATOM      7  C   UNL     1      -2.951  12.329  22.652  0.00  0.00    +0.000 C 
ATOM      8  O   UNL     1      -2.889  11.934  23.809  0.00  0.00    +0.000 OA
ATOM      9  N   UNL     1      -1.873  12.231  21.775  0.00  0.00    +0.000 N 
ATOM     10  H   UNL     1      -1.948  12.666  20.865  0.00  0.00    +0.000 HD
BRANCH   7  17
ATOM     11  C   UNL     1      -4.701  12.881  20.828  0.00  0.00    +0.000 A 
ATOM     12  C   UNL     1      -5.995  13.332  20.491  0.00  0.00    +0.000 A 
ATOM     13  C   UNL     1      -6.801  14.000  21.412  0.00  0.00    +0.000 A 
ATOM     14  C   UNL     1      -6.292  14.161  22.707  0.00  0.00    +0.000 A 
ATOM     15 CL   UNL     1      -7.175  15.091  23.871  0.00  0.00    +0.000 Cl
ATOM     16  C   UNL     1      -5.075  13.580  23.097  0.00  0.00    +0.000 A 
ATOM     17  C   UNL     1      -4.253  12.913  22.154  0.00  0.00    +0.000 A 
BRANCH  13  18
ATOM     18  N   UNL     1      -7.916  14.706  20.928  0.00  0.00    +0.000 N 
ATOM     19  H   UNL     1      -7.734  15.657  20.623  0.00  0.00    +0.000 HD
ATOM     20  H   UNL     1      -8.493  14.180  20.276  0.00  0.00    +0.000 HD
ENDBRANCH  13  18
BRANCH  11  22
ATOM     21  C   UNL     1      -4.565  11.935  18.710  0.00  0.00    +0.000 C 
ATOM     22  O   UNL     1      -3.847  12.493  19.823  0.00  0.00    +0.000 OA
ENDBRANCH  11  22
ENDBRANCH   7  17
ENDBRANCH   1   9
BRANCH   6  23
ATOM     23  O   UNL     1       0.043  12.203  19.764  0.00  0.00    +0.000 OA
ATOM     24  C   UNL     1       0.434  11.593  18.549  0.00  0.00    +0.000 C 
ENDBRANCH   6  23
BRANCH   4  25
ATOM     25  C   UNL     1       1.664   7.896  21.146  0.00  0.00    +0.000 C 
BRANCH  25  26
ATOM     26  C   UNL     1       1.279   6.814  20.079  0.00  0.00    +0.000 C 
ATOM     27  C   UNL     1       1.597   5.366  20.508  0.00  0.00    +0.000 C 
ATOM     28  C   UNL     1       3.044   4.921  20.301  0.00  0.00    +0.000 C 
ATOM     29  N   UNL     1       3.625   5.243  19.000  0.00  0.00    +0.000 N 
ATOM     30  C   UNL     1       4.843   4.597  18.716  0.00  0.00    +0.000 C 
ATOM     31  O   UNL     1       5.316   3.731  19.458  0.00  0.00    +0.000 OA
ATOM     32  N   UNL     1       5.467   4.956  17.551  0.00  0.00    +0.000 N 
ATOM     33  C   UNL     1       3.240   6.512  18.383  0.00  0.00    +0.000 C 
ATOM     34  C   UNL     1       1.816   7.001  18.656  0.00  0.00    +0.000 C 
ATOM     35  H   UNL     1       5.190   5.822  17.107  0.00  0.00    +0.000 HD
BRANCH  32  36
ATOM     36  C   UNL     1       6.754   4.400  17.145  0.00  0.00    +0.000 C 
ATOM     37  C   UNL     1       7.054   4.757  15.686  0.00  0.00    +0.000 C 
ATOM     38  C   UNL     1       7.879   4.911  18.050  0.00  0.00    +0.000 C 
ENDBRANCH  32  36
ENDBRANCH  25  26
ENDBRANCH   4  25
TORSDOF 8
ENDMDL
