MODEL 1
REMARK VINA RESULT:      -8.2      0.000      0.000
REMARK  Name = 
REMARK  9 active torsions:
REMARK  status: ('A' for Active; 'I' for Inactive)
REMARK    1  A    between atoms: C_1  and  N_2
REMARK    2  A    between atoms: N_2  and  C_3
REMARK    3  A    between atoms: C_3  and  C_4
REMARK    4  A    between atoms: C_9  and  C_10
REMARK    5  A    between atoms: C_20  and  O_22
REMARK    6  A    between atoms: O_22  and  C_23
REMARK    7  A    between atoms: C_23  and  C_24
REMARK    8  A    between atoms: C_23  and  C_25
REMARK    9  A    between atoms: C_23  and  C_26
REMARK                            x       y       z     vdW  Elec       q    Type
REMARK                         _______ _______ _______ _____ _____    ______ ____
ROOT
ATOM      1  C   UNL     1       2.426   5.130  20.090  0.00  0.00    +0.000 C 
ATOM      2  O   UNL     1       1.570   5.228  20.969  0.00  0.00    +0.000 OA
ATOM      3  N   UNL     1       2.802   6.116  19.191  0.00  0.00    +0.000 N 
ATOM      4  C   UNL     1       2.278   7.377  19.290  0.00  0.00    +0.000 A 
ATOM      5  N   UNL     1       1.622   7.902  20.285  0.00  0.00    +0.000 NA
ATOM      6  C   UNL     1       1.145   9.156  19.946  0.00  0.00    +0.000 A 
ATOM      7  C   UNL     1       1.509   9.581  18.681  0.00  0.00    +0.000 A 
ATOM      8  S   UNL     1       2.505   8.385  17.932  0.00  0.00    +0.000 S 
ATOM      9  H   UNL     1       3.300   5.882  18.346  0.00  0.00    +0.000 HD
ENDROOT
BRANCH   6  10
ATOM     10  C   UNL     1       0.279   9.875  20.875  0.00  0.00    +0.000 A 
ATOM     11  C   UNL     1       0.156   9.382  22.189  0.00  0.00    +0.000 A 
ATOM     12  C   UNL     1      -0.658  10.021  23.125  0.00  0.00    +0.000 A 
ATOM     13  C   UNL     1      -1.353  11.165  22.755  0.00  0.00    +0.000 A 
ATOM     14  F   UNL     1      -2.131  11.769  23.665  0.00  0.00    +0.000 F 
ATOM     15  C   UNL     1      -1.237  11.673  21.463  0.00  0.00    +0.000 A 
ATOM     16 CL   UNL     1      -2.091  13.101  21.008  0.00  0.00    +0.000 Cl
ATOM     17  C   UNL     1      -0.425  11.034  20.520  0.00  0.00    +0.000 A 
ENDBRANCH   6  10
BRANCH   1  18
ATOM     18  C   UNL     1       3.156   3.797  19.875  0.00  0.00    +0.000 C 
BRANCH  18  20
ATOM     19  C   UNL     1       2.514   3.289  17.499  0.00  0.00    +0.000 C 
ATOM     20  N   UNL     1       3.544   3.576  18.483  0.00  0.00    +0.000 N 
ATOM     21  C   UNL     1       4.852   3.845  18.112  0.00  0.00    +0.000 C 
ATOM     22  O   UNL     1       5.684   4.207  18.935  0.00  0.00    +0.000 OA
BRANCH  21  23
ATOM     23  O   UNL     1       5.083   3.667  16.782  0.00  0.00    +0.000 OA
BRANCH  23  24
ATOM     24  C   UNL     1       5.739   4.717  16.019  0.00  0.00    +0.000 C 
ATOM     25  C   UNL     1       7.238   4.765  16.343  0.00  0.00    +0.000 C 
ATOM     26  C   UNL     1       5.589   4.339  14.534  0.00  0.00    +0.000 C 
ATOM     27  C   UNL     1       5.045   6.070  16.223  0.00  0.00    +0.000 C 
ENDBRANCH  23  24
ENDBRANCH  21  23
ENDBRANCH  18  20
ENDBRANCH   1  18
TORSDOF 5
ENDMDL
MODEL 2
REMARK VINA RESULT:      -7.8      0.733      1.371
REMARK  Name = 
REMARK  9 active torsions:
REMARK  status: ('A' for Active; 'I' for Inactive)
REMARK    1  A    between atoms: C_1  and  N_2
REMARK    2  A    between atoms: N_2  and  C_3
REMARK    3  A    between atoms: C_3  and  C_4
REMARK    4  A    between atoms: C_9  and  C_10
REMARK    5  A    between atoms: C_20  and  O_22
REMARK    6  A    between atoms: O_22  and  C_23
REMARK    7  A    between atoms: C_23  and  C_24
REMARK    8  A    between atoms: C_23  and  C_25
REMARK    9  A    between atoms: C_23  and  C_26
REMARK                            x       y       z     vdW  Elec       q    Type
REMARK                         _______ _______ _______ _____ _____    ______ ____
ROOT
ATOM      1  C   UNL     1       2.528   5.446  19.913  0.00  0.00    +0.000 C 
ATOM      2  O   UNL     1       1.717   5.491  20.838  0.00  0.00    +0.000 OA
ATOM      3  N   UNL     1       2.798   6.456  19.003  0.00  0.00    +0.000 N 
ATOM      4  C   UNL     1       2.210   7.685  19.141  0.00  0.00    +0.000 A 
ATOM      5  N   UNL     1       1.580   8.167  20.174  0.00  0.00    +0.000 NA
ATOM      6  C   UNL     1       1.015   9.393  19.871  0.00  0.00    +0.000 A 
ATOM      7  C   UNL     1       1.286   9.844  18.591  0.00  0.00    +0.000 A 
ATOM      8  S   UNL     1       2.305   8.711  17.780  0.00  0.00    +0.000 S 
ATOM      9  H   UNL     1       3.262   6.255  18.131  0.00  0.00    +0.000 HD
ENDROOT
BRANCH   6  10
ATOM     10  C   UNL     1       0.162  10.056  20.851  0.00  0.00    +0.000 A 
ATOM     11  C   UNL     1       0.099   9.521  22.153  0.00  0.00    +0.000 A 
ATOM     12  C   UNL     1      -0.699  10.106  23.135  0.00  0.00    +0.000 A 
ATOM     13  C   UNL     1      -1.441  11.239  22.826  0.00  0.00    +0.000 A 
ATOM     14  F   UNL     1      -2.203  11.791  23.780  0.00  0.00    +0.000 F 
ATOM     15  C   UNL     1      -1.385  11.790  21.546  0.00  0.00    +0.000 A 
ATOM     16 CL   UNL     1      -2.295  13.203  21.167  0.00  0.00    +0.000 Cl
ATOM     17  C   UNL     1      -0.588  11.204  20.557  0.00  0.00    +0.000 A 
ENDBRANCH   6  10
BRANCH   1  18
ATOM     18  C   UNL     1       3.319   4.157  19.648  0.00  0.00    +0.000 C 
BRANCH  18  20
ATOM     19  C   UNL     1       5.708   4.921  19.476  0.00  0.00    +0.000 C 
ATOM     20  N   UNL     1       4.518   4.379  18.841  0.00  0.00    +0.000 N 
ATOM     21  C   UNL     1       4.545   3.880  17.549  0.00  0.00    +0.000 C 
ATOM     22  O   UNL     1       3.572   3.313  17.066  0.00  0.00    +0.000 OA
BRANCH  21  23
ATOM     23  O   UNL     1       5.732   4.088  16.915  0.00  0.00    +0.000 OA
BRANCH  23  24
ATOM     24  C   UNL     1       5.800   5.026  15.805  0.00  0.00    +0.000 C 
ATOM     25  C   UNL     1       4.970   6.281  16.106  0.00  0.00    +0.000 C 
ATOM     26  C   UNL     1       7.274   5.452  15.682  0.00  0.00    +0.000 C 
ATOM     27  C   UNL     1       5.401   4.355  14.484  0.00  0.00    +0.000 C 
ENDBRANCH  23  24
ENDBRANCH  21  23
ENDBRANCH  18  20
ENDBRANCH   1  18
TORSDOF 5
ENDMDL
MODEL 3
REMARK VINA RESULT:      -7.2      1.116      1.565
REMARK  Name = 
REMARK  9 active torsions:
REMARK  status: ('A' for Active; 'I' for Inactive)
REMARK    1  A    between atoms: C_1  and  N_2
REMARK    2  A    between atoms: N_2  and  C_3
REMARK    3  A    between atoms: C_3  and  C_4
REMARK    4  A    between atoms: C_9  and  C_10
REMARK    5  A    between atoms: C_20  and  O_22
REMARK    6  A    between atoms: O_22  and  C_23
REMARK    7  A    between atoms: C_23  and  C_24
REMARK    8  A    between atoms: C_23  and  C_25
REMARK    9  A    between atoms: C_23  and  C_26
REMARK                            x       y       z     vdW  Elec       q    Type
REMARK                         _______ _______ _______ _____ _____    ______ ____
ROOT
ATOM      1  C   UNL     1       2.256   5.535  20.058  0.00  0.00    +0.000 C 
ATOM      2  O   UNL     1       1.229   5.747  20.702  0.00  0.00    +0.000 OA
ATOM      3  N   UNL     1       2.850   6.394  19.145  0.00  0.00    +0.000 N 
ATOM      4  C   UNL     1       2.352   7.656  18.960  0.00  0.00    +0.000 A 
ATOM      5  N   UNL     1       1.506   8.307  19.706  0.00  0.00    +0.000 NA
ATOM      6  C   UNL     1       1.151   9.503  19.109  0.00  0.00    +0.000 A 
ATOM      7  C   UNL     1       1.800   9.757  17.913  0.00  0.00    +0.000 A 
ATOM      8  S   UNL     1       2.903   8.475  17.568  0.00  0.00    +0.000 S 
ATOM      9  H   UNL     1       3.517   6.050  18.472  0.00  0.00    +0.000 HD
ENDROOT
BRANCH   6  10
ATOM     10  C   UNL     1       0.121  10.337  19.719  0.00  0.00    +0.000 A 
ATOM     11  C   UNL     1      -0.769  11.025  18.871  0.00  0.00    +0.000 A 
ATOM     12  C   UNL     1      -1.774  11.841  19.390  0.00  0.00    +0.000 A 
ATOM     13  C   UNL     1      -1.903  11.971  20.767  0.00  0.00    +0.000 A 
ATOM     14  F   UNL     1      -2.874  12.757  21.252  0.00  0.00    +0.000 F 
ATOM     15  C   UNL     1      -1.039  11.290  21.623  0.00  0.00    +0.000 A 
ATOM     16 CL   UNL     1      -1.207  11.443  23.332  0.00  0.00    +0.000 Cl
ATOM     17  C   UNL     1      -0.027  10.474  21.106  0.00  0.00    +0.000 A 
ENDBRANCH   6  10
BRANCH   1  18
ATOM     18  C   UNL     1       2.978   4.186  20.187  0.00  0.00    +0.000 C 
BRANCH  18  20
ATOM     19  C   UNL     1       2.609   3.202  17.904  0.00  0.00    +0.000 C 
ATOM     20  N   UNL     1       3.521   3.705  18.917  0.00  0.00    +0.000 N 
ATOM     21  C   UNL     1       4.861   3.931  18.645  0.00  0.00    +0.000 C 
ATOM     22  O   UNL     1       5.594   4.471  19.465  0.00  0.00    +0.000 OA
BRANCH  21  23
ATOM     23  O   UNL     1       5.241   3.500  17.410  0.00  0.00    +0.000 OA
BRANCH  23  24
ATOM     24  C   UNL     1       5.922   4.414  16.508  0.00  0.00    +0.000 C 
ATOM     25  C   UNL     1       7.364   4.659  16.972  0.00  0.00    +0.000 C 
ATOM     26  C   UNL     1       5.980   3.714  15.137  0.00  0.00    +0.000 C 
ATOM     27  C   UNL     1       5.128   5.714  16.328  0.00  0.00    +0.000 C 
ENDBRANCH  23  24
ENDBRANCH  21  23
ENDBRANCH  18  20
ENDBRANCH   1  18
TORSDOF 5
ENDMDL
MODEL 4
REMARK VINA RESULT:      -7.1      4.829      8.767
REMARK  Name = 
REMARK  9 active torsions:
REMARK  status: ('A' for Active; 'I' for Inactive)
REMARK    1  A    between atoms: C_1  and  N_2
REMARK    2  A    between atoms: N_2  and  C_3
REMARK    3  A    between atoms: C_3  and  C_4
REMARK    4  A    between atoms: C_9  and  C_10
REMARK    5  A    between atoms: C_20  and  O_22
REMARK    6  A    between atoms: O_22  and  C_23
REMARK    7  A    between atoms: C_23  and  C_24
REMARK    8  A    between atoms: C_23  and  C_25
REMARK    9  A    between atoms: C_23  and  C_26
REMARK                            x       y       z     vdW  Elec       q    Type
REMARK                         _______ _______ _______ _____ _____    ______ ____
ROOT
ATOM      1  C   UNL     1       1.513   7.913  20.348  0.00  0.00    +0.000 C 
ATOM      2  O   UNL     1       2.060   8.309  19.320  0.00  0.00    +0.000 OA
ATOM      3  N   UNL     1       1.604   6.642  20.894  0.00  0.00    +0.000 N 
ATOM      4  C   UNL     1       2.439   5.710  20.338  0.00  0.00    +0.000 A 
ATOM      5  N   UNL     1       3.392   5.896  19.471  0.00  0.00    +0.000 NA
ATOM      6  C   UNL     1       3.917   4.685  19.056  0.00  0.00    +0.000 A 
ATOM      7  C   UNL     1       3.364   3.581  19.681  0.00  0.00    +0.000 A 
ATOM      8  S   UNL     1       2.191   4.097  20.838  0.00  0.00    +0.000 S 
ATOM      9  H   UNL     1       0.927   6.320  21.569  0.00  0.00    +0.000 HD
ENDROOT
BRANCH   6  10
ATOM     10  C   UNL     1       4.919   4.657  17.995  0.00  0.00    +0.000 A 
ATOM     11  C   UNL     1       6.271   4.830  18.350  0.00  0.00    +0.000 A 
ATOM     12  C   UNL     1       7.276   4.816  17.383  0.00  0.00    +0.000 A 
ATOM     13  C   UNL     1       6.938   4.623  16.050  0.00  0.00    +0.000 A 
ATOM     14  F   UNL     1       7.915   4.611  15.132  0.00  0.00    +0.000 F 
ATOM     15  C   UNL     1       5.607   4.440  15.681  0.00  0.00    +0.000 A 
ATOM     16 CL   UNL     1       5.189   4.187  14.027  0.00  0.00    +0.000 Cl
ATOM     17  C   UNL     1       4.595   4.457  16.647  0.00  0.00    +0.000 A 
ENDBRANCH   6  10
BRANCH   1  18
ATOM     18  C   UNL     1       0.582   8.849  21.132  0.00  0.00    +0.000 C 
BRANCH  18  20
ATOM     19  C   UNL     1      -0.889   9.819  19.340  0.00  0.00    +0.000 C 
ATOM     20  N   UNL     1       0.140  10.002  20.349  0.00  0.00    +0.000 N 
ATOM     21  C   UNL     1       0.570  11.263  20.731  0.00  0.00    +0.000 C 
ATOM     22  O   UNL     1       1.346  11.413  21.667  0.00  0.00    +0.000 OA
BRANCH  21  23
ATOM     23  O   UNL     1       0.046  12.264  19.972  0.00  0.00    +0.000 OA
BRANCH  23  24
ATOM     24  C   UNL     1       0.932  13.111  19.188  0.00  0.00    +0.000 C 
ATOM     25  C   UNL     1       1.996  12.268  18.474  0.00  0.00    +0.000 C 
ATOM     26  C   UNL     1       0.058  13.780  18.111  0.00  0.00    +0.000 C 
ATOM     27  C   UNL     1       1.539  14.228  20.048  0.00  0.00    +0.000 C 
ENDBRANCH  23  24
ENDBRANCH  21  23
ENDBRANCH  18  20
ENDBRANCH   1  18
TORSDOF 5
ENDMDL
MODEL 5
REMARK VINA RESULT:      -6.8      4.570      9.062
REMARK  Name = 
REMARK  9 active torsions:
REMARK  status: ('A' for Active; 'I' for Inactive)
REMARK    1  A    between atoms: C_1  and  N_2
REMARK    2  A    between atoms: N_2  and  C_3
REMARK    3  A    between atoms: C_3  and  C_4
REMARK    4  A    between atoms: C_9  and  C_10
REMARK    5  A    between atoms: C_20  and  O_22
REMARK    6  A    between atoms: O_22  and  C_23
REMARK    7  A    between atoms: C_23  and  C_24
REMARK    8  A    between atoms: C_23  and  C_25
REMARK    9  A    between atoms: C_23  and  C_26
REMARK                            x       y       z     vdW  Elec       q    Type
REMARK                         _______ _______ _______ _____ _____    ______ ____
ROOT
ATOM      1  C   UNL     1       1.326   7.951  20.947  0.00  0.00    +0.000 C 
ATOM      2  O   UNL     1       1.987   8.530  20.085  0.00  0.00    +0.000 OA
ATOM      3  N   UNL     1       1.214   6.580  21.116  0.00  0.00    +0.000 N 
ATOM      4  C   UNL     1       1.955   5.725  20.345  0.00  0.00    +0.000 A 
ATOM      5  N   UNL     1       2.980   6.002  19.591  0.00  0.00    +0.000 NA
ATOM      6  C   UNL     1       3.368   4.888  18.869  0.00  0.00    +0.000 A 
ATOM      7  C   UNL     1       2.635   3.747  19.145  0.00  0.00    +0.000 A 
ATOM      8  S   UNL     1       1.465   4.090  20.367  0.00  0.00    +0.000 S 
ATOM      9  H   UNL     1       0.458   6.187  21.656  0.00  0.00    +0.000 HD
ENDROOT
BRANCH   6  10
ATOM     10  C   UNL     1       4.425   5.006  17.870  0.00  0.00    +0.000 A 
ATOM     11  C   UNL     1       4.399   4.135  16.764  0.00  0.00    +0.000 A 
ATOM     12  C   UNL     1       5.382   4.195  15.776  0.00  0.00    +0.000 A 
ATOM     13  C   UNL     1       6.399   5.134  15.882  0.00  0.00    +0.000 A 
ATOM     14  F   UNL     1       7.336   5.181  14.925  0.00  0.00    +0.000 F 
ATOM     15  C   UNL     1       6.436   6.012  16.964  0.00  0.00    +0.000 A 
ATOM     16 CL   UNL     1       7.692   7.187  17.088  0.00  0.00    +0.000 Cl
ATOM     17  C   UNL     1       5.455   5.953  17.959  0.00  0.00    +0.000 A 
ENDBRANCH   6  10
BRANCH   1  18
ATOM     18  C   UNL     1       0.476   8.761  21.935  0.00  0.00    +0.000 C 
BRANCH  18  20
ATOM     19  C   UNL     1      -0.501   9.880  19.907  0.00  0.00    +0.000 C 
ATOM     20  N   UNL     1      -0.162   9.924  21.320  0.00  0.00    +0.000 N 
ATOM     21  C   UNL     1      -0.602  10.948  22.144  0.00  0.00    +0.000 C 
ATOM     22  O   UNL     1      -0.417  10.914  23.355  0.00  0.00    +0.000 OA
BRANCH  21  23
ATOM     23  O   UNL     1      -1.236  11.947  21.470  0.00  0.00    +0.000 OA
BRANCH  23  24
ATOM     24  C   UNL     1      -0.671  13.287  21.472  0.00  0.00    +0.000 C 
ATOM     25  C   UNL     1       0.822  13.245  21.121  0.00  0.00    +0.000 C 
ATOM     26  C   UNL     1      -1.396  14.070  20.363  0.00  0.00    +0.000 C 
ATOM     27  C   UNL     1      -0.947  14.006  22.800  0.00  0.00    +0.000 C 
ENDBRANCH  23  24
ENDBRANCH  21  23
ENDBRANCH  18  20
ENDBRANCH   1  18
TORSDOF 5
ENDMDL
MODEL 6
REMARK VINA RESULT:      -6.7      4.707      8.688
REMARK  Name = 
REMARK  9 active torsions:
REMARK  status: ('A' for Active; 'I' for Inactive)
REMARK    1  A    between atoms: C_1  and  N_2
REMARK    2  A    between atoms: N_2  and  C_3
REMARK    3  A    between atoms: C_3  and  C_4
REMARK    4  A    between atoms: C_9  and  C_10
REMARK    5  A    between atoms: C_20  and  O_22
REMARK    6  A    between atoms: O_22  and  C_23
REMARK    7  A    between atoms: C_23  and  C_24
REMARK    8  A    between atoms: C_23  and  C_25
REMARK    9  A    between atoms: C_23  and  C_26
REMARK                            x       y       z     vdW  Elec       q    Type
REMARK                         _______ _______ _______ _____ _____    ______ ____
ROOT
ATOM      1  C   UNL     1       1.193   8.150  20.429  0.00  0.00    +0.000 C 
ATOM      2  O   UNL     1       1.761   8.577  19.424  0.00  0.00    +0.000 OA
ATOM      3  N   UNL     1       1.278   6.864  20.940  0.00  0.00    +0.000 N 
ATOM      4  C   UNL     1       2.130   5.952  20.378  0.00  0.00    +0.000 A 
ATOM      5  N   UNL     1       3.102   6.167  19.538  0.00  0.00    +0.000 NA
ATOM      6  C   UNL     1       3.641   4.970  19.101  0.00  0.00    +0.000 A 
ATOM      7  C   UNL     1       3.079   3.847  19.682  0.00  0.00    +0.000 A 
ATOM      8  S   UNL     1       1.878   4.324  20.826  0.00  0.00    +0.000 S 
ATOM      9  H   UNL     1       0.588   6.521  21.591  0.00  0.00    +0.000 HD
ENDROOT
BRANCH   6  10
ATOM     10  C   UNL     1       4.666   4.976  18.063  0.00  0.00    +0.000 A 
ATOM     11  C   UNL     1       4.648   3.947  17.101  0.00  0.00    +0.000 A 
ATOM     12  C   UNL     1       5.601   3.894  16.084  0.00  0.00    +0.000 A 
ATOM     13  C   UNL     1       6.581   4.875  16.016  0.00  0.00    +0.000 A 
ATOM     14  F   UNL     1       7.490   4.812  15.033  0.00  0.00    +0.000 F 
ATOM     15  C   UNL     1       6.610   5.907  16.953  0.00  0.00    +0.000 A 
ATOM     16 CL   UNL     1       7.820   7.132  16.860  0.00  0.00    +0.000 Cl
ATOM     17  C   UNL     1       5.658   5.962  17.976  0.00  0.00    +0.000 A 
ENDBRANCH   6  10
BRANCH   1  18
ATOM     18  C   UNL     1       0.240   9.060  21.217  0.00  0.00    +0.000 C 
BRANCH  18  20
ATOM     19  C   UNL     1      -1.248  10.123  19.493  0.00  0.00    +0.000 C 
ATOM     20  N   UNL     1      -0.173  10.243  20.464  0.00  0.00    +0.000 N 
ATOM     21  C   UNL     1       0.332  11.476  20.843  0.00  0.00    +0.000 C 
ATOM     22  O   UNL     1       1.149  11.576  21.751  0.00  0.00    +0.000 OA
BRANCH  21  23
ATOM     23  O   UNL     1      -0.170  12.512  20.116  0.00  0.00    +0.000 OA
BRANCH  23  24
ATOM     24  C   UNL     1       0.707  13.259  19.228  0.00  0.00    +0.000 C 
ATOM     25  C   UNL     1       1.768  12.337  18.614  0.00  0.00    +0.000 C 
ATOM     26  C   UNL     1      -0.177  13.790  18.085  0.00  0.00    +0.000 C 
ATOM     27  C   UNL     1       1.317  14.473  19.942  0.00  0.00    +0.000 C 
ENDBRANCH  23  24
ENDBRANCH  21  23
ENDBRANCH  18  20
ENDBRANCH   1  18
TORSDOF 5
ENDMDL
MODEL 7
REMARK VINA RESULT:      -6.7      4.986      9.068
REMARK  Name = 
REMARK  9 active torsions:
REMARK  status: ('A' for Active; 'I' for Inactive)
REMARK    1  A    between atoms: C_1  and  N_2
REMARK    2  A    between atoms: N_2  and  C_3
REMARK    3  A    between atoms: C_3  and  C_4
REMARK    4  A    between atoms: C_9  and  C_10
REMARK    5  A    between atoms: C_20  and  O_22
REMARK    6  A    between atoms: O_22  and  C_23
REMARK    7  A    between atoms: C_23  and  C_24
REMARK    8  A    between atoms: C_23  and  C_25
REMARK    9  A    between atoms: C_23  and  C_26
REMARK                            x       y       z     vdW  Elec       q    Type
REMARK                         _______ _______ _______ _____ _____    ______ ____
ROOT
ATOM      1  C   UNL     1       1.990   7.813  19.722  0.00  0.00    +0.000 C 
ATOM      2  O   UNL     1       2.398   8.266  18.653  0.00  0.00    +0.000 OA
ATOM      3  N   UNL     1       2.206   6.534  20.212  0.00  0.00    +0.000 N 
ATOM      4  C   UNL     1       3.020   5.664  19.538  0.00  0.00    +0.000 A 
ATOM      5  N   UNL     1       3.860   5.925  18.577  0.00  0.00    +0.000 NA
ATOM      6  C   UNL     1       4.396   4.756  18.068  0.00  0.00    +0.000 A 
ATOM      7  C   UNL     1       3.973   3.608  18.714  0.00  0.00    +0.000 A 
ATOM      8  S   UNL     1       2.911   4.027  20.009  0.00  0.00    +0.000 S 
ATOM      9  H   UNL     1       1.626   6.158  20.947  0.00  0.00    +0.000 HD
ENDROOT
BRANCH   6  10
ATOM     10  C   UNL     1       5.273   4.811  16.903  0.00  0.00    +0.000 A 
ATOM     11  C   UNL     1       6.516   5.460  17.033  0.00  0.00    +0.000 A 
ATOM     12  C   UNL     1       7.398   5.549  15.957  0.00  0.00    +0.000 A 
ATOM     13  C   UNL     1       7.047   4.984  14.738  0.00  0.00    +0.000 A 
ATOM     14  F   UNL     1       7.905   5.076  13.713  0.00  0.00    +0.000 F 
ATOM     15  C   UNL     1       5.826   4.328  14.592  0.00  0.00    +0.000 A 
ATOM     16 CL   UNL     1       5.396   3.614  13.083  0.00  0.00    +0.000 Cl
ATOM     17  C   UNL     1       4.936   4.239  15.668  0.00  0.00    +0.000 A 
ENDBRANCH   6  10
BRANCH   1  18
ATOM     18  C   UNL     1       1.106   8.676  20.633  0.00  0.00    +0.000 C 
BRANCH  18  20
ATOM     19  C   UNL     1      -0.216   9.710  18.762  0.00  0.00    +0.000 C 
ATOM     20  N   UNL     1       0.587   9.867  19.964  0.00  0.00    +0.000 N 
ATOM     21  C   UNL     1       0.706  11.089  20.605  0.00  0.00    +0.000 C 
ATOM     22  O   UNL     1       1.281  11.188  21.683  0.00  0.00    +0.000 OA
BRANCH  21  23
ATOM     23  O   UNL     1       0.131  12.117  19.921  0.00  0.00    +0.000 OA
BRANCH  23  24
ATOM     24  C   UNL     1       0.967  13.179  19.383  0.00  0.00    +0.000 C 
ATOM     25  C   UNL     1       0.141  14.121  18.497  0.00  0.00    +0.000 C 
ATOM     26  C   UNL     1       1.475  13.989  20.590  0.00  0.00    +0.000 C 
ATOM     27  C   UNL     1       2.194  12.610  18.660  0.00  0.00    +0.000 C 
ENDBRANCH  23  24
ENDBRANCH  21  23
ENDBRANCH  18  20
ENDBRANCH   1  18
TORSDOF 5
ENDMDL
MODEL 8
REMARK VINA RESULT:      -6.7      4.777      9.186
REMARK  Name = 
REMARK  9 active torsions:
REMARK  status: ('A' for Active; 'I' for Inactive)
REMARK    1  A    between atoms: C_1  and  N_2
REMARK    2  A    between atoms: N_2  and  C_3
REMARK    3  A    between atoms: C_3  and  C_4
REMARK    4  A    between atoms: C_9  and  C_10
REMARK    5  A    between atoms: C_20  and  O_22
REMARK    6  A    between atoms: O_22  and  C_23
REMARK    7  A    between atoms: C_23  and  C_24
REMARK    8  A    between atoms: C_23  and  C_25
REMARK    9  A    between atoms: C_23  and  C_26
REMARK                            x       y       z     vdW  Elec       q    Type
REMARK                         _______ _______ _______ _____ _____    ______ ____
ROOT
ATOM      1  C   UNL     1       1.693   7.744  20.207  0.00  0.00    +0.000 C 
ATOM      2  O   UNL     1       2.188   8.250  19.200  0.00  0.00    +0.000 OA
ATOM      3  N   UNL     1       1.816   6.423  20.611  0.00  0.00    +0.000 N 
ATOM      4  C   UNL     1       2.628   5.563  19.923  0.00  0.00    +0.000 A 
ATOM      5  N   UNL     1       3.537   5.848  19.035  0.00  0.00    +0.000 NA
ATOM      6  C   UNL     1       4.047   4.692  18.472  0.00  0.00    +0.000 A 
ATOM      7  C   UNL     1       3.530   3.524  19.004  0.00  0.00    +0.000 A 
ATOM      8  S   UNL     1       2.411   3.904  20.262  0.00  0.00    +0.000 S 
ATOM      9  H   UNL     1       1.174   6.027  21.281  0.00  0.00    +0.000 HD
ENDROOT
BRANCH   6  10
ATOM     10  C   UNL     1       4.996   4.784  17.368  0.00  0.00    +0.000 A 
ATOM     11  C   UNL     1       6.251   5.374  17.614  0.00  0.00    +0.000 A 
ATOM     12  C   UNL     1       7.202   5.495  16.601  0.00  0.00    +0.000 A 
ATOM     13  C   UNL     1       6.908   5.020  15.330  0.00  0.00    +0.000 A 
ATOM     14  F   UNL     1       7.831   5.142  14.366  0.00  0.00    +0.000 F 
ATOM     15  C   UNL     1       5.675   4.424  15.068  0.00  0.00    +0.000 A 
ATOM     16 CL   UNL     1       5.315   3.824  13.493  0.00  0.00    +0.000 Cl
ATOM     17  C   UNL     1       4.717   4.304  16.081  0.00  0.00    +0.000 A 
ENDBRANCH   6  10
BRANCH   1  18
ATOM     18  C   UNL     1       0.796   8.584  21.127  0.00  0.00    +0.000 C 
BRANCH  18  20
ATOM     19  C   UNL     1      -0.874   9.637  19.571  0.00  0.00    +0.000 C 
ATOM     20  N   UNL     1       0.260   9.775  20.470  0.00  0.00    +0.000 N 
ATOM     21  C   UNL     1       0.719  11.017  20.879  0.00  0.00    +0.000 C 
ATOM     22  O   UNL     1       1.593  11.123  21.732  0.00  0.00    +0.000 OA
BRANCH  21  23
ATOM     23  O   UNL     1       0.105  12.054  20.246  0.00  0.00    +0.000 OA
BRANCH  23  24
ATOM     24  C   UNL     1      -0.702  12.989  21.014  0.00  0.00    +0.000 C 
ATOM     25  C   UNL     1       0.143  14.185  21.473  0.00  0.00    +0.000 C 
ATOM     26  C   UNL     1      -1.789  13.516  20.059  0.00  0.00    +0.000 C 
ATOM     27  C   UNL     1      -1.413  12.285  22.177  0.00  0.00    +0.000 C 
ENDBRANCH  23  24
ENDBRANCH  21  23
ENDBRANCH  18  20
ENDBRANCH   1  18
TORSDOF 5
ENDMDL
MODEL 9
REMARK VINA RESULT:      -6.7      4.693      9.237
REMARK  Name = 
REMARK  9 active torsions:
REMARK  status: ('A' for Active; 'I' for Inactive)
REMARK    1  A    between atoms: C_1  and  N_2
REMARK    2  A    between atoms: N_2  and  C_3
REMARK    3  A    between atoms: C_3  and  C_4
REMARK    4  A    between atoms: C_9  and  C_10
REMARK    5  A    between atoms: C_20  and  O_22
REMARK    6  A    between atoms: O_22  and  C_23
REMARK    7  A    between atoms: C_23  and  C_24
REMARK    8  A    between atoms: C_23  and  C_25
REMARK    9  A    between atoms: C_23  and  C_26
REMARK                            x       y       z     vdW  Elec       q    Type
REMARK                         _______ _______ _______ _____ _____    ______ ____
ROOT
ATOM      1  C   UNL     1       1.542   7.523  20.437  0.00  0.00    +0.000 C 
ATOM      2  O   UNL     1       2.057   7.976  19.416  0.00  0.00    +0.000 OA
ATOM      3  N   UNL     1       1.683   6.235  20.930  0.00  0.00    +0.000 N 
ATOM      4  C   UNL     1       2.538   5.353  20.325  0.00  0.00    +0.000 A 
ATOM      5  N   UNL     1       3.469   5.604  19.449  0.00  0.00    +0.000 NA
ATOM      6  C   UNL     1       4.025   4.428  18.979  0.00  0.00    +0.000 A 
ATOM      7  C   UNL     1       3.519   3.283  19.569  0.00  0.00    +0.000 A 
ATOM      8  S   UNL     1       2.351   3.715  20.765  0.00  0.00    +0.000 S 
ATOM      9  H   UNL     1       1.030   5.865  21.604  0.00  0.00    +0.000 HD
ENDROOT
BRANCH   6  10
ATOM     10  C   UNL     1       5.007   4.474  17.901  0.00  0.00    +0.000 A 
ATOM     11  C   UNL     1       6.356   4.705  18.236  0.00  0.00    +0.000 A 
ATOM     12  C   UNL     1       7.343   4.763  17.253  0.00  0.00    +0.000 A 
ATOM     13  C   UNL     1       6.991   4.585  15.921  0.00  0.00    +0.000 A 
ATOM     14  F   UNL     1       7.950   4.642  14.987  0.00  0.00    +0.000 F 
ATOM     15  C   UNL     1       5.663   4.345  15.570  0.00  0.00    +0.000 A 
ATOM     16 CL   UNL     1       5.228   4.110  13.919  0.00  0.00    +0.000 Cl
ATOM     17  C   UNL     1       4.669   4.289  16.553  0.00  0.00    +0.000 A 
ENDBRANCH   6  10
BRANCH   1  18
ATOM     18  C   UNL     1       0.595   8.396  21.272  0.00  0.00    +0.000 C 
BRANCH  18  20
ATOM     19  C   UNL     1       0.705  10.199  19.525  0.00  0.00    +0.000 C 
ATOM     20  N   UNL     1       0.672   9.815  20.926  0.00  0.00    +0.000 N 
ATOM     21  C   UNL     1       0.509  10.750  21.935  0.00  0.00    +0.000 C 
ATOM     22  O   UNL     1       0.358  10.407  23.101  0.00  0.00    +0.000 OA
BRANCH  21  23
ATOM     23  O   UNL     1       0.535  12.036  21.487  0.00  0.00    +0.000 OA
BRANCH  23  24
ATOM     24  C   UNL     1      -0.687  12.825  21.497  0.00  0.00    +0.000 C 
ATOM     25  C   UNL     1      -1.899  11.942  21.821  0.00  0.00    +0.000 C 
ATOM     26  C   UNL     1      -0.535  13.854  22.633  0.00  0.00    +0.000 C 
ATOM     27  C   UNL     1      -0.856  13.606  20.187  0.00  0.00    +0.000 C 
ENDBRANCH  23  24
ENDBRANCH  21  23
ENDBRANCH  18  20
ENDBRANCH   1  18
TORSDOF 5
ENDMDL
