MODEL 1
REMARK VINA RESULT:      -8.1      0.000      0.000
REMARK  Name = 
REMARK  5 active torsions:
REMARK  status: ('A' for Active; 'I' for Inactive)
REMARK    1  A    between atoms: C_1  and  C_2
REMARK    2  A    between atoms: C_2  and  C_3
REMARK    3  A    between atoms: C_4  and  O_5
REMARK    4  A    between atoms: N_13  and  C_14
REMARK    5  A    between atoms: C_17  and  C_18
REMARK                            x       y       z     vdW  Elec       q    Type
REMARK                         _______ _______ _______ _____ _____    ______ ____
ROOT
ATOM      1  C   UNL     1       2.809   2.255  20.975  0.00  0.00    +0.000 C 
ATOM      2  C   UNL     1       2.344   3.305  19.942  0.00  0.00    +0.000 C 
ATOM      3  C   UNL     1       0.865   3.590  20.182  0.00  0.00    +0.000 C 
ATOM      4  C   UNL     1       2.712   2.895  18.476  0.00  0.00    +0.000 C 
ATOM      5  C   UNL     1       4.072   3.629  18.673  0.00  0.00    +0.000 C 
ATOM      6  C   UNL     1       4.781   4.325  17.518  0.00  0.00    +0.000 C 
ATOM      7  C   UNL     1       4.077   5.595  17.087  0.00  0.00    +0.000 C 
ATOM      8  C   UNL     1       3.784   6.478  18.281  0.00  0.00    +0.000 C 
ATOM      9  N   UNL     1       2.886   5.837  19.245  0.00  0.00    +0.000 N 
ATOM     10  C   UNL     1       2.006   6.577  20.061  0.00  0.00    +0.000 C 
ATOM     11  O   UNL     1       1.305   6.051  20.889  0.00  0.00    +0.000 OA
ATOM     12  N   UNL     1       2.037   7.950  19.831  0.00  0.00    +0.000 N 
ATOM     13  C   UNL     1       3.375   4.497  19.774  0.00  0.00    +0.000 C 
ATOM     14  H   UNL     1       2.534   8.291  19.046  0.00  0.00    +0.000 HD
ENDROOT
BRANCH  12  15
ATOM     15  C   UNL     1       1.236   8.904  20.496  0.00  0.00    +0.000 A 
ATOM     16  C   UNL     1       1.127   8.897  21.876  0.00  0.00    +0.000 A 
ATOM     17  C   UNL     1       0.366   9.843  22.550  0.00  0.00    +0.000 A 
ATOM     18  C   UNL     1      -0.329  10.829  21.839  0.00  0.00    +0.000 A 
ATOM     19  C   UNL     1      -0.228  10.843  20.444  0.00  0.00    +0.000 A 
ATOM     20  C   UNL     1       0.551   9.893  19.768  0.00  0.00    +0.000 A 
BRANCH  18  21
ATOM     21  C   UNL     1      -1.138  11.815  22.548  0.00  0.00    +0.000 A 
ATOM     22  C   UNL     1      -0.931  13.217  22.638  0.00  0.00    +0.000 A 
ATOM     23  C   UNL     1      -1.957  13.672  23.417  0.00  0.00    +0.000 A 
ATOM     24  O   UNL     1      -2.741  12.632  23.783  0.00  0.00    +0.000 OA
ATOM     25  N   UNL     1      -2.239  11.469  23.237  0.00  0.00    +0.000 NA
ENDBRANCH  18  21
ENDBRANCH  12  15
BRANCH   4  26
ATOM     26  O   UNL     1       1.854   3.388  17.427  0.00  0.00    +0.000 OA
ATOM     27  H   UNL     1       1.855   2.688  16.748  0.00  0.00    +0.000 HD
ENDBRANCH   4  26
TORSDOF 3
ENDMDL
MODEL 2
REMARK VINA RESULT:      -8.1      0.654      1.185
REMARK  Name = 
REMARK  5 active torsions:
REMARK  status: ('A' for Active; 'I' for Inactive)
REMARK    1  A    between atoms: C_1  and  C_2
REMARK    2  A    between atoms: C_2  and  C_3
REMARK    3  A    between atoms: C_4  and  O_5
REMARK    4  A    between atoms: N_13  and  C_14
REMARK    5  A    between atoms: C_17  and  C_18
REMARK                            x       y       z     vdW  Elec       q    Type
REMARK                         _______ _______ _______ _____ _____    ______ ____
ROOT
ATOM      1  C   UNL     1       2.880   2.267  21.191  0.00  0.00    +0.000 C 
ATOM      2  C   UNL     1       2.391   3.239  20.095  0.00  0.00    +0.000 C 
ATOM      3  C   UNL     1       0.917   3.541  20.345  0.00  0.00    +0.000 C 
ATOM      4  C   UNL     1       2.730   2.725  18.655  0.00  0.00    +0.000 C 
ATOM      5  C   UNL     1       4.093   3.471  18.770  0.00  0.00    +0.000 C 
ATOM      6  C   UNL     1       4.776   4.083  17.554  0.00  0.00    +0.000 C 
ATOM      7  C   UNL     1       4.060   5.319  17.047  0.00  0.00    +0.000 C 
ATOM      8  C   UNL     1       3.790   6.285  18.180  0.00  0.00    +0.000 C 
ATOM      9  N   UNL     1       2.914   5.714  19.206  0.00  0.00    +0.000 N 
ATOM     10  C   UNL     1       2.050   6.511  19.985  0.00  0.00    +0.000 C 
ATOM     11  O   UNL     1       1.367   6.045  20.864  0.00  0.00    +0.000 OA
ATOM     12  N   UNL     1       2.073   7.864  19.657  0.00  0.00    +0.000 N 
ATOM     13  C   UNL     1       3.416   4.417  19.820  0.00  0.00    +0.000 C 
ATOM     14  H   UNL     1       2.554   8.148  18.839  0.00  0.00    +0.000 HD
ENDROOT
BRANCH  12  15
ATOM     15  C   UNL     1       1.284   8.863  20.267  0.00  0.00    +0.000 A 
ATOM     16  C   UNL     1       0.634   9.816  19.501  0.00  0.00    +0.000 A 
ATOM     17  C   UNL     1      -0.168  10.790  20.080  0.00  0.00    +0.000 A 
ATOM     18  C   UNL     1      -0.329  10.839  21.470  0.00  0.00    +0.000 A 
ATOM     19  C   UNL     1       0.325   9.883  22.253  0.00  0.00    +0.000 A 
ATOM     20  C   UNL     1       1.126   8.894  21.663  0.00  0.00    +0.000 A 
BRANCH  18  21
ATOM     21  C   UNL     1      -1.163  11.871  22.079  0.00  0.00    +0.000 A 
ATOM     22  C   UNL     1      -2.451  12.310  21.672  0.00  0.00    +0.000 A 
ATOM     23  C   UNL     1      -2.784  13.290  22.562  0.00  0.00    +0.000 A 
ATOM     24  O   UNL     1      -1.779  13.449  23.454  0.00  0.00    +0.000 OA
ATOM     25  N   UNL     1      -0.766  12.559  23.163  0.00  0.00    +0.000 NA
ENDBRANCH  18  21
ENDBRANCH  12  15
BRANCH   4  26
ATOM     26  O   UNL     1       1.849   3.140  17.591  0.00  0.00    +0.000 OA
ATOM     27  H   UNL     1       1.288   2.365  17.409  0.00  0.00    +0.000 HD
ENDBRANCH   4  26
TORSDOF 3
ENDMDL
MODEL 3
REMARK VINA RESULT:      -7.9      1.757      3.037
REMARK  Name = 
REMARK  5 active torsions:
REMARK  status: ('A' for Active; 'I' for Inactive)
REMARK    1  A    between atoms: C_1  and  C_2
REMARK    2  A    between atoms: C_2  and  C_3
REMARK    3  A    between atoms: C_4  and  O_5
REMARK    4  A    between atoms: N_13  and  C_14
REMARK    5  A    between atoms: C_17  and  C_18
REMARK                            x       y       z     vdW  Elec       q    Type
REMARK                         _______ _______ _______ _____ _____    ______ ____
ROOT
ATOM      1  C   UNL     1       5.405   5.510  15.201  0.00  0.00    +0.000 C 
ATOM      2  C   UNL     1       5.228   5.442  16.734  0.00  0.00    +0.000 C 
ATOM      3  C   UNL     1       5.790   6.724  17.339  0.00  0.00    +0.000 C 
ATOM      4  C   UNL     1       5.802   4.115  17.337  0.00  0.00    +0.000 C 
ATOM      5  C   UNL     1       4.402   3.470  17.103  0.00  0.00    +0.000 C 
ATOM      6  C   UNL     1       3.851   2.395  18.031  0.00  0.00    +0.000 C 
ATOM      7  C   UNL     1       3.449   2.948  19.383  0.00  0.00    +0.000 C 
ATOM      8  C   UNL     1       2.568   4.168  19.225  0.00  0.00    +0.000 C 
ATOM      9  N   UNL     1       3.250   5.267  18.537  0.00  0.00    +0.000 N 
ATOM     10  C   UNL     1       2.938   6.619  18.784  0.00  0.00    +0.000 C 
ATOM     11  O   UNL     1       3.465   7.519  18.180  0.00  0.00    +0.000 OA
ATOM     12  N   UNL     1       1.969   6.808  19.767  0.00  0.00    +0.000 N 
ATOM     13  C   UNL     1       3.796   4.913  17.162  0.00  0.00    +0.000 C 
ATOM     14  H   UNL     1       1.684   6.031  20.311  0.00  0.00    +0.000 HD
ENDROOT
BRANCH  12  15
ATOM     15  C   UNL     1       1.501   8.062  20.218  0.00  0.00    +0.000 A 
ATOM     16  C   UNL     1       1.275   8.289  21.565  0.00  0.00    +0.000 A 
ATOM     17  C   UNL     1       0.842   9.523  22.031  0.00  0.00    +0.000 A 
ATOM     18  C   UNL     1       0.606  10.574  21.136  0.00  0.00    +0.000 A 
ATOM     19  C   UNL     1       0.829  10.354  19.774  0.00  0.00    +0.000 A 
ATOM     20  C   UNL     1       1.277   9.110  19.308  0.00  0.00    +0.000 A 
BRANCH  18  21
ATOM     21  C   UNL     1       0.139  11.867  21.627  0.00  0.00    +0.000 A 
ATOM     22  C   UNL     1       0.309  13.144  21.030  0.00  0.00    +0.000 A 
ATOM     23  C   UNL     1      -0.303  14.014  21.887  0.00  0.00    +0.000 A 
ATOM     24  O   UNL     1      -0.814  13.329  22.936  0.00  0.00    +0.000 OA
ATOM     25  N   UNL     1      -0.548  11.985  22.776  0.00  0.00    +0.000 NA
ENDBRANCH  18  21
ENDBRANCH  12  15
BRANCH   4  26
ATOM     26  O   UNL     1       6.273   4.169  18.699  0.00  0.00    +0.000 OA
ATOM     27  H   UNL     1       5.954   3.345  19.111  0.00  0.00    +0.000 HD
ENDBRANCH   4  26
TORSDOF 3
ENDMDL
MODEL 4
REMARK VINA RESULT:      -7.7      1.753      3.124
REMARK  Name = 
REMARK  5 active torsions:
REMARK  status: ('A' for Active; 'I' for Inactive)
REMARK    1  A    between atoms: C_1  and  C_2
REMARK    2  A    between atoms: C_2  and  C_3
REMARK    3  A    between atoms: C_4  and  O_5
REMARK    4  A    between atoms: N_13  and  C_14
REMARK    5  A    between atoms: C_17  and  C_18
REMARK                            x       y       z     vdW  Elec       q    Type
REMARK                         _______ _______ _______ _____ _____    ______ ____
ROOT
ATOM      1  C   UNL     1       5.209   5.271  15.360  0.00  0.00    +0.000 C 
ATOM      2  C   UNL     1       5.075   5.297  16.898  0.00  0.00    +0.000 C 
ATOM      3  C   UNL     1       5.657   6.612  17.407  0.00  0.00    +0.000 C 
ATOM      4  C   UNL     1       5.663   4.008  17.565  0.00  0.00    +0.000 C 
ATOM      5  C   UNL     1       4.257   3.355  17.411  0.00  0.00    +0.000 C 
ATOM      6  C   UNL     1       3.729   2.342  18.418  0.00  0.00    +0.000 C 
ATOM      7  C   UNL     1       3.368   2.978  19.745  0.00  0.00    +0.000 C 
ATOM      8  C   UNL     1       2.485   4.189  19.537  0.00  0.00    +0.000 C 
ATOM      9  N   UNL     1       3.150   5.241  18.764  0.00  0.00    +0.000 N 
ATOM     10  C   UNL     1       2.848   6.607  18.937  0.00  0.00    +0.000 C 
ATOM     11  O   UNL     1       3.359   7.467  18.264  0.00  0.00    +0.000 OA
ATOM     12  N   UNL     1       1.907   6.860  19.933  0.00  0.00    +0.000 N 
ATOM     13  C   UNL     1       3.655   4.801  17.398  0.00  0.00    +0.000 C 
ATOM     14  H   UNL     1       1.636   6.119  20.532  0.00  0.00    +0.000 HD
ENDROOT
BRANCH  12  15
ATOM     15  C   UNL     1       1.456   8.141  20.319  0.00  0.00    +0.000 A 
ATOM     16  C   UNL     1       1.268   9.137  19.376  0.00  0.00    +0.000 A 
ATOM     17  C   UNL     1       0.798  10.394  19.732  0.00  0.00    +0.000 A 
ATOM     18  C   UNL     1       0.515  10.691  21.070  0.00  0.00    +0.000 A 
ATOM     19  C   UNL     1       0.704   9.693  22.030  0.00  0.00    +0.000 A 
ATOM     20  C   UNL     1       1.167   8.420  21.666  0.00  0.00    +0.000 A 
BRANCH  18  21
ATOM     21  C   UNL     1       0.033  12.018  21.444  0.00  0.00    +0.000 A 
ATOM     22  C   UNL     1      -0.106  13.164  20.618  0.00  0.00    +0.000 A 
ATOM     23  C   UNL     1      -0.585  14.137  21.449  0.00  0.00    +0.000 A 
ATOM     24  O   UNL     1      -0.731  13.633  22.696  0.00  0.00    +0.000 OA
ATOM     25  N   UNL     1      -0.354  12.306  22.699  0.00  0.00    +0.000 NA
ENDBRANCH  18  21
ENDBRANCH  12  15
BRANCH   4  26
ATOM     26  O   UNL     1       6.173   4.143  18.907  0.00  0.00    +0.000 OA
ATOM     27  H   UNL     1       5.528   4.708  19.368  0.00  0.00    +0.000 HD
ENDBRANCH   4  26
TORSDOF 3
ENDMDL
MODEL 5
REMARK VINA RESULT:      -7.6      1.473      1.910
REMARK  Name = 
REMARK  5 active torsions:
REMARK  status: ('A' for Active; 'I' for Inactive)
REMARK    1  A    between atoms: C_1  and  C_2
REMARK    2  A    between atoms: C_2  and  C_3
REMARK    3  A    between atoms: C_4  and  O_5
REMARK    4  A    between atoms: N_13  and  C_14
REMARK    5  A    between atoms: C_17  and  C_18
REMARK                            x       y       z     vdW  Elec       q    Type
REMARK                         _______ _______ _______ _____ _____    ______ ____
ROOT
ATOM      1  C   UNL     1       3.767   2.610  20.413  0.00  0.00    +0.000 C 
ATOM      2  C   UNL     1       3.276   3.480  19.235  0.00  0.00    +0.000 C 
ATOM      3  C   UNL     1       1.759   3.605  19.331  0.00  0.00    +0.000 C 
ATOM      4  C   UNL     1       3.815   2.967  17.856  0.00  0.00    +0.000 C 
ATOM      5  C   UNL     1       5.060   3.880  18.067  0.00  0.00    +0.000 C 
ATOM      6  C   UNL     1       5.782   4.532  16.896  0.00  0.00    +0.000 C 
ATOM      7  C   UNL     1       4.977   5.654  16.271  0.00  0.00    +0.000 C 
ATOM      8  C   UNL     1       4.482   6.614  17.331  0.00  0.00    +0.000 C 
ATOM      9  N   UNL     1       3.583   5.972  18.293  0.00  0.00    +0.000 N 
ATOM     10  C   UNL     1       2.557   6.679  18.952  0.00  0.00    +0.000 C 
ATOM     11  O   UNL     1       1.852   6.161  19.781  0.00  0.00    +0.000 OA
ATOM     12  N   UNL     1       2.450   8.014  18.569  0.00  0.00    +0.000 N 
ATOM     13  C   UNL     1       4.175   4.766  19.007  0.00  0.00    +0.000 C 
ATOM     14  H   UNL     1       2.971   8.330  17.789  0.00  0.00    +0.000 HD
ENDROOT
BRANCH  12  15
ATOM     15  C   UNL     1       1.490   8.927  19.059  0.00  0.00    +0.000 A 
ATOM     16  C   UNL     1       0.718   9.676  18.187  0.00  0.00    +0.000 A 
ATOM     17  C   UNL     1      -0.250  10.558  18.648  0.00  0.00    +0.000 A 
ATOM     18  C   UNL     1      -0.460  10.722  20.022  0.00  0.00    +0.000 A 
ATOM     19  C   UNL     1       0.316   9.973  20.911  0.00  0.00    +0.000 A 
ATOM     20  C   UNL     1       1.285   9.074  20.442  0.00  0.00    +0.000 A 
BRANCH  18  21
ATOM     21  C   UNL     1      -1.470  11.659  20.506  0.00  0.00    +0.000 A 
ATOM     22  C   UNL     1      -2.449  12.358  19.751  0.00  0.00    +0.000 A 
ATOM     23  C   UNL     1      -3.131  13.104  20.671  0.00  0.00    +0.000 A 
ATOM     24  O   UNL     1      -2.614  12.885  21.901  0.00  0.00    +0.000 OA
ATOM     25  N   UNL     1      -1.580  11.977  21.807  0.00  0.00    +0.000 NA
ENDBRANCH  18  21
ENDBRANCH  12  15
BRANCH   4  26
ATOM     26  O   UNL     1       3.000   3.237  16.697  0.00  0.00    +0.000 OA
ATOM     27  H   UNL     1       3.581   3.726  16.087  0.00  0.00    +0.000 HD
ENDBRANCH   4  26
TORSDOF 3
ENDMDL
MODEL 6
REMARK VINA RESULT:      -7.4      2.207      3.504
REMARK  Name = 
REMARK  5 active torsions:
REMARK  status: ('A' for Active; 'I' for Inactive)
REMARK    1  A    between atoms: C_1  and  C_2
REMARK    2  A    between atoms: C_2  and  C_3
REMARK    3  A    between atoms: C_4  and  O_5
REMARK    4  A    between atoms: N_13  and  C_14
REMARK    5  A    between atoms: C_17  and  C_18
REMARK                            x       y       z     vdW  Elec       q    Type
REMARK                         _______ _______ _______ _____ _____    ______ ____
ROOT
ATOM      1  C   UNL     1       5.583   5.308  15.218  0.00  0.00    +0.000 C 
ATOM      2  C   UNL     1       5.364   5.531  16.730  0.00  0.00    +0.000 C 
ATOM      3  C   UNL     1       5.880   6.920  17.090  0.00  0.00    +0.000 C 
ATOM      4  C   UNL     1       5.951   4.361  17.591  0.00  0.00    +0.000 C 
ATOM      5  C   UNL     1       4.574   3.644  17.454  0.00  0.00    +0.000 C 
ATOM      6  C   UNL     1       4.021   2.753  18.558  0.00  0.00    +0.000 C 
ATOM      7  C   UNL     1       3.569   3.544  19.769  0.00  0.00    +0.000 C 
ATOM      8  C   UNL     1       2.665   4.686  19.357  0.00  0.00    +0.000 C 
ATOM      9  N   UNL     1       3.341   5.650  18.486  0.00  0.00    +0.000 N 
ATOM     10  C   UNL     1       2.991   7.015  18.461  0.00  0.00    +0.000 C 
ATOM     11  O   UNL     1       3.515   7.797  17.707  0.00  0.00    +0.000 OA
ATOM     12  N   UNL     1       1.991   7.363  19.366  0.00  0.00    +0.000 N 
ATOM     13  C   UNL     1       3.933   5.054  17.218  0.00  0.00    +0.000 C 
ATOM     14  H   UNL     1       1.708   6.698  20.043  0.00  0.00    +0.000 HD
ENDROOT
BRANCH  12  15
ATOM     15  C   UNL     1       1.482   8.666  19.556  0.00  0.00    +0.000 A 
ATOM     16  C   UNL     1       1.299   9.517  18.478  0.00  0.00    +0.000 A 
ATOM     17  C   UNL     1       0.774  10.792  18.640  0.00  0.00    +0.000 A 
ATOM     18  C   UNL     1       0.429  11.258  19.914  0.00  0.00    +0.000 A 
ATOM     19  C   UNL     1       0.612  10.408  21.009  0.00  0.00    +0.000 A 
ATOM     20  C   UNL     1       1.132   9.117  20.840  0.00  0.00    +0.000 A 
BRANCH  18  21
ATOM     21  C   UNL     1      -0.111  12.604  20.085  0.00  0.00    +0.000 A 
ATOM     22  C   UNL     1      -0.110  13.673  19.150  0.00  0.00    +0.000 A 
ATOM     23  C   UNL     1      -0.723  14.705  19.800  0.00  0.00    +0.000 A 
ATOM     24  O   UNL     1      -1.078  14.308  21.044  0.00  0.00    +0.000 OA
ATOM     25  N   UNL     1      -0.705  12.992  21.226  0.00  0.00    +0.000 NA
ENDBRANCH  18  21
ENDBRANCH  12  15
BRANCH   4  26
ATOM     26  O   UNL     1       6.382   4.688  18.928  0.00  0.00    +0.000 OA
ATOM     27  H   UNL     1       6.730   3.855  19.294  0.00  0.00    +0.000 HD
ENDBRANCH   4  26
TORSDOF 3
ENDMDL
MODEL 7
REMARK VINA RESULT:      -7.2      1.937      3.085
REMARK  Name = 
REMARK  5 active torsions:
REMARK  status: ('A' for Active; 'I' for Inactive)
REMARK    1  A    between atoms: C_1  and  C_2
REMARK    2  A    between atoms: C_2  and  C_3
REMARK    3  A    between atoms: C_4  and  O_5
REMARK    4  A    between atoms: N_13  and  C_14
REMARK    5  A    between atoms: C_17  and  C_18
REMARK                            x       y       z     vdW  Elec       q    Type
REMARK                         _______ _______ _______ _____ _____    ______ ____
ROOT
ATOM      1  C   UNL     1       4.595   4.450  16.057  0.00  0.00    +0.000 C 
ATOM      2  C   UNL     1       4.409   4.626  17.580  0.00  0.00    +0.000 C 
ATOM      3  C   UNL     1       5.190   5.860  18.019  0.00  0.00    +0.000 C 
ATOM      4  C   UNL     1       4.740   3.314  18.372  0.00  0.00    +0.000 C 
ATOM      5  C   UNL     1       3.249   2.899  18.194  0.00  0.00    +0.000 C 
ATOM      6  C   UNL     1       2.517   2.076  19.246  0.00  0.00    +0.000 C 
ATOM      7  C   UNL     1       2.220   2.872  20.501  0.00  0.00    +0.000 C 
ATOM      8  C   UNL     1       1.568   4.193  20.158  0.00  0.00    +0.000 C 
ATOM      9  N   UNL     1       2.434   5.050  19.343  0.00  0.00    +0.000 N 
ATOM     10  C   UNL     1       2.366   6.457  19.398  0.00  0.00    +0.000 C 
ATOM     11  O   UNL     1       3.043   7.159  18.690  0.00  0.00    +0.000 OA
ATOM     12  N   UNL     1       1.446   6.946  20.323  0.00  0.00    +0.000 N 
ATOM     13  C   UNL     1       2.907   4.420  18.042  0.00  0.00    +0.000 C 
ATOM     14  H   UNL     1       1.029   6.314  20.960  0.00  0.00    +0.000 HD
ENDROOT
BRANCH  12  15
ATOM     15  C   UNL     1       1.208   8.313  20.588  0.00  0.00    +0.000 A 
ATOM     16  C   UNL     1       1.116   9.228  19.553  0.00  0.00    +0.000 A 
ATOM     17  C   UNL     1       0.855  10.570  19.791  0.00  0.00    +0.000 A 
ATOM     18  C   UNL     1       0.692  11.038  21.101  0.00  0.00    +0.000 A 
ATOM     19  C   UNL     1       0.786  10.122  22.153  0.00  0.00    +0.000 A 
ATOM     20  C   UNL     1       1.038   8.765  21.908  0.00  0.00    +0.000 A 
BRANCH  18  21
ATOM     21  C   UNL     1       0.430  12.452  21.350  0.00  0.00    +0.000 A 
ATOM     22  C   UNL     1      -0.825  13.093  21.525  0.00  0.00    +0.000 A 
ATOM     23  C   UNL     1      -0.519  14.410  21.718  0.00  0.00    +0.000 A 
ATOM     24  O   UNL     1       0.822  14.574  21.668  0.00  0.00    +0.000 OA
ATOM     25  N   UNL     1       1.423  13.353  21.445  0.00  0.00    +0.000 NA
ENDBRANCH  18  21
ENDBRANCH  12  15
BRANCH   4  26
ATOM     26  O   UNL     1       5.215   3.472  19.724  0.00  0.00    +0.000 OA
ATOM     27  H   UNL     1       5.808   4.244  19.697  0.00  0.00    +0.000 HD
ENDBRANCH   4  26
TORSDOF 3
ENDMDL
MODEL 8
REMARK VINA RESULT:      -7.2      2.519      3.533
REMARK  Name = 
REMARK  5 active torsions:
REMARK  status: ('A' for Active; 'I' for Inactive)
REMARK    1  A    between atoms: C_1  and  C_2
REMARK    2  A    between atoms: C_2  and  C_3
REMARK    3  A    between atoms: C_4  and  O_5
REMARK    4  A    between atoms: N_13  and  C_14
REMARK    5  A    between atoms: C_17  and  C_18
REMARK                            x       y       z     vdW  Elec       q    Type
REMARK                         _______ _______ _______ _____ _____    ______ ____
ROOT
ATOM      1  C   UNL     1       5.122   4.426  15.727  0.00  0.00    +0.000 C 
ATOM      2  C   UNL     1       4.913   4.873  17.191  0.00  0.00    +0.000 C 
ATOM      3  C   UNL     1       5.620   6.210  17.390  0.00  0.00    +0.000 C 
ATOM      4  C   UNL     1       5.307   3.754  18.213  0.00  0.00    +0.000 C 
ATOM      5  C   UNL     1       3.843   3.230  18.118  0.00  0.00    +0.000 C 
ATOM      6  C   UNL     1       3.146   2.579  19.306  0.00  0.00    +0.000 C 
ATOM      7  C   UNL     1       2.795   3.578  20.390  0.00  0.00    +0.000 C 
ATOM      8  C   UNL     1       2.075   4.773  19.806  0.00  0.00    +0.000 C 
ATOM      9  N   UNL     1       2.900   5.509  18.844  0.00  0.00    +0.000 N 
ATOM     10  C   UNL     1       2.754   6.895  18.635  0.00  0.00    +0.000 C 
ATOM     11  O   UNL     1       3.399   7.489  17.807  0.00  0.00    +0.000 OA
ATOM     12  N   UNL     1       1.800   7.497  19.452  0.00  0.00    +0.000 N 
ATOM     13  C   UNL     1       3.419   4.674  17.684  0.00  0.00    +0.000 C 
ATOM     14  H   UNL     1       1.412   6.974  20.197  0.00  0.00    +0.000 HD
ENDROOT
BRANCH  12  15
ATOM     15  C   UNL     1       1.485   8.874  19.457  0.00  0.00    +0.000 A 
ATOM     16  C   UNL     1       1.034   9.491  20.611  0.00  0.00    +0.000 A 
ATOM     17  C   UNL     1       0.746  10.849  20.644  0.00  0.00    +0.000 A 
ATOM     18  C   UNL     1       0.891  11.631  19.491  0.00  0.00    +0.000 A 
ATOM     19  C   UNL     1       1.344  11.016  18.320  0.00  0.00    +0.000 A 
ATOM     20  C   UNL     1       1.645   9.647  18.294  0.00  0.00    +0.000 A 
BRANCH  18  21
ATOM     21  C   UNL     1       0.575  13.056  19.524  0.00  0.00    +0.000 A 
ATOM     22  C   UNL     1      -0.265  13.787  18.643  0.00  0.00    +0.000 A 
ATOM     23  C   UNL     1      -0.215  15.073  19.101  0.00  0.00    +0.000 A 
ATOM     24  O   UNL     1       0.594  15.135  20.183  0.00  0.00    +0.000 OA
ATOM     25  N   UNL     1       1.086  13.876  20.458  0.00  0.00    +0.000 NA
ENDBRANCH  18  21
ENDBRANCH  12  15
BRANCH   4  26
ATOM     26  O   UNL     1       5.759   4.187  19.512  0.00  0.00    +0.000 OA
ATOM     27  H   UNL     1       5.874   5.152  19.432  0.00  0.00    +0.000 HD
ENDBRANCH   4  26
TORSDOF 3
ENDMDL
MODEL 9
REMARK VINA RESULT:      -7.1      2.283      9.124
REMARK  Name = 
REMARK  5 active torsions:
REMARK  status: ('A' for Active; 'I' for Inactive)
REMARK    1  A    between atoms: C_1  and  C_2
REMARK    2  A    between atoms: C_2  and  C_3
REMARK    3  A    between atoms: C_4  and  O_5
REMARK    4  A    between atoms: N_13  and  C_14
REMARK    5  A    between atoms: C_17  and  C_18
REMARK                            x       y       z     vdW  Elec       q    Type
REMARK                         _______ _______ _______ _____ _____    ______ ____
ROOT
ATOM      1  C   UNL     1      -0.333  14.767  19.110  0.00  0.00    +0.000 C 
ATOM      2  C   UNL     1      -0.869  13.374  19.507  0.00  0.00    +0.000 C 
ATOM      3  C   UNL     1      -1.056  12.553  18.235  0.00  0.00    +0.000 C 
ATOM      4  C   UNL     1      -2.131  13.467  20.430  0.00  0.00    +0.000 C 
ATOM      5  C   UNL     1      -1.166  13.491  21.652  0.00  0.00    +0.000 C 
ATOM      6  C   UNL     1      -1.554  12.879  22.992  0.00  0.00    +0.000 C 
ATOM      7  C   UNL     1      -1.578  11.364  22.950  0.00  0.00    +0.000 C 
ATOM      8  C   UNL     1      -0.301  10.822  22.347  0.00  0.00    +0.000 C 
ATOM      9  N   UNL     1      -0.110  11.252  20.960  0.00  0.00    +0.000 N 
ATOM     10  C   UNL     1       0.590  10.469  20.019  0.00  0.00    +0.000 C 
ATOM     11  O   UNL     1       0.789  10.847  18.892  0.00  0.00    +0.000 OA
ATOM     12  N   UNL     1       1.032   9.245  20.515  0.00  0.00    +0.000 N 
ATOM     13  C   UNL     1      -0.111  12.759  20.756  0.00  0.00    +0.000 C 
ATOM     14  H   UNL     1       0.714   8.947  21.405  0.00  0.00    +0.000 HD
ENDROOT
BRANCH  12  15
ATOM     15  C   UNL     1       1.731   8.269  19.771  0.00  0.00    +0.000 A 
ATOM     16  C   UNL     1       2.194   8.552  18.496  0.00  0.00    +0.000 A 
ATOM     17  C   UNL     1       2.907   7.616  17.759  0.00  0.00    +0.000 A 
ATOM     18  C   UNL     1       3.164   6.345  18.287  0.00  0.00    +0.000 A 
ATOM     19  C   UNL     1       2.698   6.050  19.572  0.00  0.00    +0.000 A 
ATOM     20  C   UNL     1       1.988   7.001  20.319  0.00  0.00    +0.000 A 
BRANCH  18  21
ATOM     21  C   UNL     1       3.903   5.358  17.505  0.00  0.00    +0.000 A 
ATOM     22  C   UNL     1       4.830   5.589  16.455  0.00  0.00    +0.000 A 
ATOM     23  C   UNL     1       5.224   4.343  16.058  0.00  0.00    +0.000 A 
ATOM     24  O   UNL     1       4.591   3.410  16.805  0.00  0.00    +0.000 OA
ATOM     25  N   UNL     1       3.769   4.038  17.718  0.00  0.00    +0.000 NA
ENDBRANCH  18  21
ENDBRANCH  12  15
BRANCH   4  26
ATOM     26  O   UNL     1      -3.069  12.373  20.364  0.00  0.00    +0.000 OA
ATOM     27  H   UNL     1      -2.573  11.595  20.675  0.00  0.00    +0.000 HD
ENDBRANCH   4  26
TORSDOF 3
ENDMDL
