MODEL 1
REMARK VINA RESULT:      -7.3      0.000      0.000
REMARK  Name = 
REMARK  7 active torsions:
REMARK  status: ('A' for Active; 'I' for Inactive)
REMARK    1  A    between atoms: C_1  and  N_2
REMARK    2  A    between atoms: N_2  and  C_3
REMARK    3  A    between atoms: N_2  and  C_15
REMARK    4  A    between atoms: C_3  and  C_4
REMARK    5  A    between atoms: N_6  and  C_7
REMARK    6  A    between atoms: C_11  and  C_12
REMARK    7  A    between atoms: C_15  and  C_16
REMARK                            x       y       z     vdW  Elec       q    Type
REMARK                         _______ _______ _______ _____ _____    ______ ____
ROOT
ATOM      1  C   UNL     1       2.240   5.222  19.826  0.00  0.00    +0.000 C 
ATOM      2  O   UNL     1       1.231   5.007  20.498  0.00  0.00    +0.000 OA
ATOM      3  N   UNL     1       2.613   6.459  19.315  0.00  0.00    +0.000 N 
ATOM      4  H   UNL     1       3.322   6.462  18.594  0.00  0.00    +0.000 HD
ENDROOT
BRANCH   3   5
ATOM      5  C   UNL     1       1.966   7.686  19.586  0.00  0.00    +0.000 A 
ATOM      6  C   UNL     1       1.751   8.660  18.607  0.00  0.00    +0.000 A 
ATOM      7  C   UNL     1       1.159   9.882  18.928  0.00  0.00    +0.000 A 
ATOM      8  C   UNL     1       0.768  10.141  20.241  0.00  0.00    +0.000 A 
ATOM      9  C   UNL     1       0.938   9.160  21.218  0.00  0.00    +0.000 A 
ATOM     10  C   UNL     1       1.519   7.926  20.890  0.00  0.00    +0.000 A 
BRANCH   9  11
ATOM     11  C   UNL     1       0.539   9.427  22.570  0.00  0.00    +0.000 C 
ATOM     12  N   UNL     1       0.224   9.651  23.664  0.00  0.00    +0.000 NA
ENDBRANCH   9  11
ENDBRANCH   3   5
BRANCH   1  13
ATOM     13  C   UNL     1       3.216   4.088  19.505  0.00  0.00    +0.000 C 
BRANCH  13  15
ATOM     14  C   UNL     1       2.187   2.308  18.202  0.00  0.00    +0.000 C 
ATOM     15  N   UNL     1       3.025   3.513  18.155  0.00  0.00    +0.000 NA
BRANCH  15  16
ATOM     16  C   UNL     1       4.302   3.273  17.468  0.00  0.00    +0.000 C 
BRANCH  16  17
ATOM     17  C   UNL     1       5.199   4.494  17.437  0.00  0.00    +0.000 A 
ATOM     18  C   UNL     1       6.369   4.543  18.211  0.00  0.00    +0.000 A 
ATOM     19  C   UNL     1       7.155   5.697  18.233  0.00  0.00    +0.000 A 
ATOM     20  C   UNL     1       6.779   6.803  17.474  0.00  0.00    +0.000 A 
ATOM     21 CL   UNL     1       7.727   8.239  17.527  0.00  0.00    +0.000 Cl
ATOM     22  C   UNL     1       5.634   6.762  16.682  0.00  0.00    +0.000 A 
ATOM     23  C   UNL     1       4.847   5.608  16.660  0.00  0.00    +0.000 A 
ENDBRANCH  16  17
ENDBRANCH  15  16
ENDBRANCH  13  15
ENDBRANCH   1  13
TORSDOF 6
ENDMDL
MODEL 2
REMARK VINA RESULT:      -7.2      4.417      5.436
REMARK  Name = 
REMARK  7 active torsions:
REMARK  status: ('A' for Active; 'I' for Inactive)
REMARK    1  A    between atoms: C_1  and  N_2
REMARK    2  A    between atoms: N_2  and  C_3
REMARK    3  A    between atoms: N_2  and  C_15
REMARK    4  A    between atoms: C_3  and  C_4
REMARK    5  A    between atoms: N_6  and  C_7
REMARK    6  A    between atoms: C_11  and  C_12
REMARK    7  A    between atoms: C_15  and  C_16
REMARK                            x       y       z     vdW  Elec       q    Type
REMARK                         _______ _______ _______ _____ _____    ______ ____
ROOT
ATOM      1  C   UNL     1       5.873   4.818  18.700  0.00  0.00    +0.000 C 
ATOM      2  O   UNL     1       5.502   5.643  19.536  0.00  0.00    +0.000 OA
ATOM      3  N   UNL     1       5.092   3.788  18.192  0.00  0.00    +0.000 N 
ATOM      4  H   UNL     1       5.574   3.048  17.698  0.00  0.00    +0.000 HD
ENDROOT
BRANCH   3   5
ATOM      5  C   UNL     1       3.718   3.593  18.458  0.00  0.00    +0.000 A 
ATOM      6  C   UNL     1       2.724   3.800  17.496  0.00  0.00    +0.000 A 
ATOM      7  C   UNL     1       1.374   3.652  17.816  0.00  0.00    +0.000 A 
ATOM      8  C   UNL     1       1.003   3.285  19.109  0.00  0.00    +0.000 A 
ATOM      9  C   UNL     1       1.987   3.035  20.066  0.00  0.00    +0.000 A 
ATOM     10  C   UNL     1       3.344   3.169  19.738  0.00  0.00    +0.000 A 
BRANCH   9  11
ATOM     11  C   UNL     1       1.605   2.662  21.397  0.00  0.00    +0.000 C 
ATOM     12  N   UNL     1       1.304   2.353  22.474  0.00  0.00    +0.000 NA
ENDBRANCH   9  11
ENDBRANCH   3   5
BRANCH   1  13
ATOM     13  C   UNL     1       7.285   4.886  18.114  0.00  0.00    +0.000 C 
BRANCH  13  15
ATOM     14  C   UNL     1       7.822   7.257  17.982  0.00  0.00    +0.000 C 
ATOM     15  N   UNL     1       7.494   6.046  17.220  0.00  0.00    +0.000 NA
BRANCH  15  16
ATOM     16  C   UNL     1       6.360   6.255  16.308  0.00  0.00    +0.000 C 
BRANCH  16  17
ATOM     17  C   UNL     1       6.354   5.296  15.136  0.00  0.00    +0.000 A 
ATOM     18  C   UNL     1       7.412   5.286  14.213  0.00  0.00    +0.000 A 
ATOM     19  C   UNL     1       7.368   4.449  13.095  0.00  0.00    +0.000 A 
ATOM     20  C   UNL     1       6.271   3.612  12.902  0.00  0.00    +0.000 A 
ATOM     21 CL   UNL     1       6.198   2.605  11.508  0.00  0.00    +0.000 Cl
ATOM     22  C   UNL     1       5.225   3.593  13.822  0.00  0.00    +0.000 A 
ATOM     23  C   UNL     1       5.268   4.430  14.939  0.00  0.00    +0.000 A 
ENDBRANCH  16  17
ENDBRANCH  15  16
ENDBRANCH  13  15
ENDBRANCH   1  13
TORSDOF 6
ENDMDL
MODEL 3
REMARK VINA RESULT:      -7.1      4.384      5.600
REMARK  Name = 
REMARK  7 active torsions:
REMARK  status: ('A' for Active; 'I' for Inactive)
REMARK    1  A    between atoms: C_1  and  N_2
REMARK    2  A    between atoms: N_2  and  C_3
REMARK    3  A    between atoms: N_2  and  C_15
REMARK    4  A    between atoms: C_3  and  C_4
REMARK    5  A    between atoms: N_6  and  C_7
REMARK    6  A    between atoms: C_11  and  C_12
REMARK    7  A    between atoms: C_15  and  C_16
REMARK                            x       y       z     vdW  Elec       q    Type
REMARK                         _______ _______ _______ _____ _____    ______ ____
ROOT
ATOM      1  C   UNL     1       6.085   4.597  18.347  0.00  0.00    +0.000 C 
ATOM      2  O   UNL     1       5.963   5.088  19.469  0.00  0.00    +0.000 OA
ATOM      3  N   UNL     1       5.091   3.907  17.664  0.00  0.00    +0.000 N 
ATOM      4  H   UNL     1       5.381   3.358  16.866  0.00  0.00    +0.000 HD
ENDROOT
BRANCH   3   5
ATOM      5  C   UNL     1       3.751   3.765  18.090  0.00  0.00    +0.000 A 
ATOM      6  C   UNL     1       2.661   4.107  17.285  0.00  0.00    +0.000 A 
ATOM      7  C   UNL     1       1.355   4.005  17.765  0.00  0.00    +0.000 A 
ATOM      8  C   UNL     1       1.125   3.549  19.062  0.00  0.00    +0.000 A 
ATOM      9  C   UNL     1       2.202   3.164  19.860  0.00  0.00    +0.000 A 
ATOM     10  C   UNL     1       3.514   3.253  19.370  0.00  0.00    +0.000 A 
BRANCH   9  11
ATOM     11  C   UNL     1       1.967   2.699  21.196  0.00  0.00    +0.000 C 
ATOM     12  N   UNL     1       1.787   2.324  22.279  0.00  0.00    +0.000 NA
ENDBRANCH   9  11
ENDBRANCH   3   5
BRANCH   1  13
ATOM     13  C   UNL     1       7.399   4.736  17.576  0.00  0.00    +0.000 C 
BRANCH  13  15
ATOM     14  C   UNL     1       7.645   7.154  17.436  0.00  0.00    +0.000 C 
ATOM     15  N   UNL     1       7.432   5.913  16.680  0.00  0.00    +0.000 NA
BRANCH  15  16
ATOM     16  C   UNL     1       6.246   5.987  15.816  0.00  0.00    +0.000 C 
BRANCH  16  17
ATOM     17  C   UNL     1       6.361   5.130  14.573  0.00  0.00    +0.000 A 
ATOM     18  C   UNL     1       5.366   4.193  14.254  0.00  0.00    +0.000 A 
ATOM     19  C   UNL     1       5.511   3.355  13.146  0.00  0.00    +0.000 A 
ATOM     20  C   UNL     1       6.647   3.459  12.346  0.00  0.00    +0.000 A 
ATOM     21 CL   UNL     1       6.845   2.404  11.000  0.00  0.00    +0.000 Cl
ATOM     22  C   UNL     1       7.632   4.400  12.635  0.00  0.00    +0.000 A 
ATOM     23  C   UNL     1       7.488   5.236  13.744  0.00  0.00    +0.000 A 
ENDBRANCH  16  17
ENDBRANCH  15  16
ENDBRANCH  13  15
ENDBRANCH   1  13
TORSDOF 6
ENDMDL
MODEL 4
REMARK VINA RESULT:      -7.0      1.762      2.092
REMARK  Name = 
REMARK  7 active torsions:
REMARK  status: ('A' for Active; 'I' for Inactive)
REMARK    1  A    between atoms: C_1  and  N_2
REMARK    2  A    between atoms: N_2  and  C_3
REMARK    3  A    between atoms: N_2  and  C_15
REMARK    4  A    between atoms: C_3  and  C_4
REMARK    5  A    between atoms: N_6  and  C_7
REMARK    6  A    between atoms: C_11  and  C_12
REMARK    7  A    between atoms: C_15  and  C_16
REMARK                            x       y       z     vdW  Elec       q    Type
REMARK                         _______ _______ _______ _____ _____    ______ ____
ROOT
ATOM      1  C   UNL     1       2.354   5.182  19.272  0.00  0.00    +0.000 C 
ATOM      2  O   UNL     1       1.770   5.107  18.191  0.00  0.00    +0.000 OA
ATOM      3  N   UNL     1       2.570   6.354  19.986  0.00  0.00    +0.000 N 
ATOM      4  H   UNL     1       3.255   6.319  20.728  0.00  0.00    +0.000 HD
ENDROOT
BRANCH   3   5
ATOM      5  C   UNL     1       2.049   7.625  19.651  0.00  0.00    +0.000 A 
ATOM      6  C   UNL     1       2.140   8.164  18.364  0.00  0.00    +0.000 A 
ATOM      7  C   UNL     1       1.664   9.447  18.089  0.00  0.00    +0.000 A 
ATOM      8  C   UNL     1       1.082  10.204  19.103  0.00  0.00    +0.000 A 
ATOM      9  C   UNL     1       0.948   9.661  20.381  0.00  0.00    +0.000 A 
ATOM     10  C   UNL     1       1.412   8.366  20.652  0.00  0.00    +0.000 A 
BRANCH   9  11
ATOM     11  C   UNL     1       0.353  10.442  21.427  0.00  0.00    +0.000 C 
ATOM     12  N   UNL     1      -0.138  11.072  22.268  0.00  0.00    +0.000 NA
ENDBRANCH   9  11
ENDBRANCH   3   5
BRANCH   1  13
ATOM     13  C   UNL     1       2.895   3.923  19.953  0.00  0.00    +0.000 C 
BRANCH  13  15
ATOM     14  C   UNL     1       4.476   2.073  19.881  0.00  0.00    +0.000 C 
ATOM     15  N   UNL     1       4.070   3.343  19.266  0.00  0.00    +0.000 NA
BRANCH  15  16
ATOM     16  C   UNL     1       5.185   4.296  19.173  0.00  0.00    +0.000 C 
BRANCH  16  17
ATOM     17  C   UNL     1       5.670   4.508  17.754  0.00  0.00    +0.000 A 
ATOM     18  C   UNL     1       5.049   3.853  16.679  0.00  0.00    +0.000 A 
ATOM     19  C   UNL     1       5.545   3.998  15.381  0.00  0.00    +0.000 A 
ATOM     20  C   UNL     1       6.657   4.805  15.153  0.00  0.00    +0.000 A 
ATOM     21 CL   UNL     1       7.291   4.957  13.559  0.00  0.00    +0.000 Cl
ATOM     22  C   UNL     1       7.269   5.481  16.205  0.00  0.00    +0.000 A 
ATOM     23  C   UNL     1       6.775   5.336  17.503  0.00  0.00    +0.000 A 
ENDBRANCH  16  17
ENDBRANCH  15  16
ENDBRANCH  13  15
ENDBRANCH   1  13
TORSDOF 6
ENDMDL
MODEL 5
REMARK VINA RESULT:      -7.0      2.961      4.295
REMARK  Name = 
REMARK  7 active torsions:
REMARK  status: ('A' for Active; 'I' for Inactive)
REMARK    1  A    between atoms: C_1  and  N_2
REMARK    2  A    between atoms: N_2  and  C_3
REMARK    3  A    between atoms: N_2  and  C_15
REMARK    4  A    between atoms: C_3  and  C_4
REMARK    5  A    between atoms: N_6  and  C_7
REMARK    6  A    between atoms: C_11  and  C_12
REMARK    7  A    between atoms: C_15  and  C_16
REMARK                            x       y       z     vdW  Elec       q    Type
REMARK                         _______ _______ _______ _____ _____    ______ ____
ROOT
ATOM      1  C   UNL     1       4.543   6.852  17.271  0.00  0.00    +0.000 C 
ATOM      2  O   UNL     1       5.306   7.664  17.794  0.00  0.00    +0.000 OA
ATOM      3  N   UNL     1       3.232   6.618  17.665  0.00  0.00    +0.000 N 
ATOM      4  H   UNL     1       2.793   5.775  17.319  0.00  0.00    +0.000 HD
ENDROOT
BRANCH   3   5
ATOM      5  C   UNL     1       2.525   7.356  18.642  0.00  0.00    +0.000 A 
ATOM      6  C   UNL     1       2.298   6.876  19.935  0.00  0.00    +0.000 A 
ATOM      7  C   UNL     1       1.546   7.612  20.851  0.00  0.00    +0.000 A 
ATOM      8  C   UNL     1       1.017   8.847  20.483  0.00  0.00    +0.000 A 
ATOM      9  C   UNL     1       1.272   9.356  19.209  0.00  0.00    +0.000 A 
ATOM     10  C   UNL     1       2.042   8.622  18.294  0.00  0.00    +0.000 A 
BRANCH   9  11
ATOM     11  C   UNL     1       0.724  10.626  18.828  0.00  0.00    +0.000 C 
ATOM     12  N   UNL     1       0.283  11.656  18.529  0.00  0.00    +0.000 NA
ENDBRANCH   9  11
ENDBRANCH   3   5
BRANCH   1  13
ATOM     13  C   UNL     1       5.001   6.012  16.076  0.00  0.00    +0.000 C 
BRANCH  13  15
ATOM     14  C   UNL     1       6.998   4.663  15.741  0.00  0.00    +0.000 C 
ATOM     15  N   UNL     1       5.727   4.784  16.465  0.00  0.00    +0.000 NA
BRANCH  15  16
ATOM     16  C   UNL     1       4.894   3.580  16.329  0.00  0.00    +0.000 C 
BRANCH  16  17
ATOM     17  C   UNL     1       3.944   3.380  17.492  0.00  0.00    +0.000 A 
ATOM     18  C   UNL     1       2.564   3.241  17.273  0.00  0.00    +0.000 A 
ATOM     19  C   UNL     1       1.685   3.127  18.352  0.00  0.00    +0.000 A 
ATOM     20  C   UNL     1       2.183   3.142  19.653  0.00  0.00    +0.000 A 
ATOM     21 CL   UNL     1       1.098   3.037  20.986  0.00  0.00    +0.000 Cl
ATOM     22  C   UNL     1       3.551   3.254  19.886  0.00  0.00    +0.000 A 
ATOM     23  C   UNL     1       4.431   3.369  18.807  0.00  0.00    +0.000 A 
ENDBRANCH  16  17
ENDBRANCH  15  16
ENDBRANCH  13  15
ENDBRANCH   1  13
TORSDOF 6
ENDMDL
MODEL 6
REMARK VINA RESULT:      -6.9      5.265      7.570
REMARK  Name = 
REMARK  7 active torsions:
REMARK  status: ('A' for Active; 'I' for Inactive)
REMARK    1  A    between atoms: C_1  and  N_2
REMARK    2  A    between atoms: N_2  and  C_3
REMARK    3  A    between atoms: N_2  and  C_15
REMARK    4  A    between atoms: C_3  and  C_4
REMARK    5  A    between atoms: N_6  and  C_7
REMARK    6  A    between atoms: C_11  and  C_12
REMARK    7  A    between atoms: C_15  and  C_16
REMARK                            x       y       z     vdW  Elec       q    Type
REMARK                         _______ _______ _______ _____ _____    ______ ____
ROOT
ATOM      1  C   UNL     1       7.903   7.974  18.006  0.00  0.00    +0.000 C 
ATOM      2  O   UNL     1       8.488   7.313  18.865  0.00  0.00    +0.000 OA
ATOM      3  N   UNL     1       8.044   9.343  17.816  0.00  0.00    +0.000 N 
ATOM      4  H   UNL     1       7.346   9.800  17.245  0.00  0.00    +0.000 HD
ENDROOT
BRANCH   3   5
ATOM      5  C   UNL     1       8.967  10.173  18.491  0.00  0.00    +0.000 A 
ATOM      6  C   UNL     1       9.022  10.267  19.885  0.00  0.00    +0.000 A 
ATOM      7  C   UNL     1       9.910  11.142  20.511  0.00  0.00    +0.000 A 
ATOM      8  C   UNL     1      10.763  11.932  19.743  0.00  0.00    +0.000 A 
ATOM      9  C   UNL     1      10.748  11.817  18.353  0.00  0.00    +0.000 A 
ATOM     10  C   UNL     1       9.865  10.925  17.727  0.00  0.00    +0.000 A 
BRANCH   9  11
ATOM     11  C   UNL     1      11.623  12.633  17.563  0.00  0.00    +0.000 C 
ATOM     12  N   UNL     1      12.330  13.301  16.931  0.00  0.00    +0.000 NA
ENDBRANCH   9  11
ENDBRANCH   3   5
BRANCH   1  13
ATOM     13  C   UNL     1       6.946   7.297  17.023  0.00  0.00    +0.000 C 
BRANCH  13  15
ATOM     14  C   UNL     1       7.481   4.955  17.414  0.00  0.00    +0.000 C 
ATOM     15  N   UNL     1       6.443   5.990  17.499  0.00  0.00    +0.000 NA
BRANCH  15  16
ATOM     16  C   UNL     1       5.204   5.590  16.816  0.00  0.00    +0.000 C 
BRANCH  16  17
ATOM     17  C   UNL     1       4.109   5.164  17.772  0.00  0.00    +0.000 A 
ATOM     18  C   UNL     1       4.135   5.566  19.117  0.00  0.00    +0.000 A 
ATOM     19  C   UNL     1       3.162   5.113  20.010  0.00  0.00    +0.000 A 
ATOM     20  C   UNL     1       2.153   4.264  19.560  0.00  0.00    +0.000 A 
ATOM     21 CL   UNL     1       0.972   3.676  20.666  0.00  0.00    +0.000 Cl
ATOM     22  C   UNL     1       2.099   3.876  18.224  0.00  0.00    +0.000 A 
ATOM     23  C   UNL     1       3.073   4.328  17.330  0.00  0.00    +0.000 A 
ENDBRANCH  16  17
ENDBRANCH  15  16
ENDBRANCH  13  15
ENDBRANCH   1  13
TORSDOF 6
ENDMDL
MODEL 7
REMARK VINA RESULT:      -6.9      3.797      7.654
REMARK  Name = 
REMARK  7 active torsions:
REMARK  status: ('A' for Active; 'I' for Inactive)
REMARK    1  A    between atoms: C_1  and  N_2
REMARK    2  A    between atoms: N_2  and  C_3
REMARK    3  A    between atoms: N_2  and  C_15
REMARK    4  A    between atoms: C_3  and  C_4
REMARK    5  A    between atoms: N_6  and  C_7
REMARK    6  A    between atoms: C_11  and  C_12
REMARK    7  A    between atoms: C_15  and  C_16
REMARK                            x       y       z     vdW  Elec       q    Type
REMARK                         _______ _______ _______ _____ _____    ______ ____
ROOT
ATOM      1  C   UNL     1       0.881   8.643  21.045  0.00  0.00    +0.000 C 
ATOM      2  O   UNL     1      -0.180   8.063  21.275  0.00  0.00    +0.000 OA
ATOM      3  N   UNL     1       2.003   8.061  20.469  0.00  0.00    +0.000 N 
ATOM      4  H   UNL     1       2.874   8.568  20.548  0.00  0.00    +0.000 HD
ENDROOT
BRANCH   3   5
ATOM      5  C   UNL     1       2.067   6.750  19.945  0.00  0.00    +0.000 A 
ATOM      6  C   UNL     1       2.253   6.487  18.584  0.00  0.00    +0.000 A 
ATOM      7  C   UNL     1       2.254   5.179  18.099  0.00  0.00    +0.000 A 
ATOM      8  C   UNL     1       2.074   4.112  18.978  0.00  0.00    +0.000 A 
ATOM      9  C   UNL     1       1.930   4.359  20.343  0.00  0.00    +0.000 A 
ATOM     10  C   UNL     1       1.946   5.674  20.831  0.00  0.00    +0.000 A 
BRANCH   9  11
ATOM     11  C   UNL     1       1.741   3.262  21.248  0.00  0.00    +0.000 C 
ATOM     12  N   UNL     1       1.581   2.380  21.985  0.00  0.00    +0.000 NA
ENDBRANCH   9  11
ENDBRANCH   3   5
BRANCH   1  13
ATOM     13  C   UNL     1       1.042  10.129  21.374  0.00  0.00    +0.000 C 
BRANCH  13  15
ATOM     14  C   UNL     1       1.300  12.292  20.288  0.00  0.00    +0.000 C 
ATOM     15  N   UNL     1       0.560  11.024  20.298  0.00  0.00    +0.000 NA
BRANCH  15  16
ATOM     16  C   UNL     1      -0.894  11.230  20.358  0.00  0.00    +0.000 C 
BRANCH  16  17
ATOM     17  C   UNL     1      -1.578  11.033  19.020  0.00  0.00    +0.000 A 
ATOM     18  C   UNL     1      -2.731  11.762  18.691  0.00  0.00    +0.000 A 
ATOM     19  C   UNL     1      -3.398  11.525  17.487  0.00  0.00    +0.000 A 
ATOM     20  C   UNL     1      -2.909  10.565  16.604  0.00  0.00    +0.000 A 
ATOM     21 CL   UNL     1      -3.748  10.248  15.135  0.00  0.00    +0.000 Cl
ATOM     22  C   UNL     1      -1.752   9.852  16.905  0.00  0.00    +0.000 A 
ATOM     23  C   UNL     1      -1.085  10.087  18.109  0.00  0.00    +0.000 A 
ENDBRANCH  16  17
ENDBRANCH  15  16
ENDBRANCH  13  15
ENDBRANCH   1  13
TORSDOF 6
ENDMDL
MODEL 8
REMARK VINA RESULT:      -6.9      0.678      1.233
REMARK  Name = 
REMARK  7 active torsions:
REMARK  status: ('A' for Active; 'I' for Inactive)
REMARK    1  A    between atoms: C_1  and  N_2
REMARK    2  A    between atoms: N_2  and  C_3
REMARK    3  A    between atoms: N_2  and  C_15
REMARK    4  A    between atoms: C_3  and  C_4
REMARK    5  A    between atoms: N_6  and  C_7
REMARK    6  A    between atoms: C_11  and  C_12
REMARK    7  A    between atoms: C_15  and  C_16
REMARK                            x       y       z     vdW  Elec       q    Type
REMARK                         _______ _______ _______ _____ _____    ______ ____
ROOT
ATOM      1  C   UNL     1       2.579   5.437  19.875  0.00  0.00    +0.000 C 
ATOM      2  O   UNL     1       1.441   4.997  20.043  0.00  0.00    +0.000 OA
ATOM      3  N   UNL     1       2.901   6.775  19.688  0.00  0.00    +0.000 N 
ATOM      4  H   UNL     1       3.824   6.979  19.330  0.00  0.00    +0.000 HD
ENDROOT
BRANCH   3   5
ATOM      5  C   UNL     1       1.996   7.856  19.784  0.00  0.00    +0.000 A 
ATOM      6  C   UNL     1       1.583   8.598  18.673  0.00  0.00    +0.000 A 
ATOM      7  C   UNL     1       0.733   9.695  18.818  0.00  0.00    +0.000 A 
ATOM      8  C   UNL     1       0.277  10.058  20.085  0.00  0.00    +0.000 A 
ATOM      9  C   UNL     1       0.648   9.299  21.195  0.00  0.00    +0.000 A 
ATOM     10  C   UNL     1       1.490   8.188  21.045  0.00  0.00    +0.000 A 
BRANCH   9  11
ATOM     11  C   UNL     1       0.183   9.675  22.499  0.00  0.00    +0.000 C 
ATOM     12  N   UNL     1      -0.183   9.983  23.556  0.00  0.00    +0.000 NA
ENDBRANCH   9  11
ENDBRANCH   3   5
BRANCH   1  13
ATOM     13  C   UNL     1       3.785   4.494  19.879  0.00  0.00    +0.000 C 
BRANCH  13  15
ATOM     14  C   UNL     1       4.034   2.087  19.614  0.00  0.00    +0.000 C 
ATOM     15  N   UNL     1       3.633   3.342  18.965  0.00  0.00    +0.000 NA
BRANCH  15  16
ATOM     16  C   UNL     1       4.328   3.551  17.687  0.00  0.00    +0.000 C 
BRANCH  16  17
ATOM     17  C   UNL     1       5.236   4.764  17.696  0.00  0.00    +0.000 A 
ATOM     18  C   UNL     1       4.894   5.921  16.978  0.00  0.00    +0.000 A 
ATOM     19  C   UNL     1       5.767   7.009  16.932  0.00  0.00    +0.000 A 
ATOM     20  C   UNL     1       6.982   6.950  17.612  0.00  0.00    +0.000 A 
ATOM     21 CL   UNL     1       8.075   8.276  17.529  0.00  0.00    +0.000 Cl
ATOM     22  C   UNL     1       7.325   5.819  18.349  0.00  0.00    +0.000 A 
ATOM     23  C   UNL     1       6.452   4.730  18.395  0.00  0.00    +0.000 A 
ENDBRANCH  16  17
ENDBRANCH  15  16
ENDBRANCH  13  15
ENDBRANCH   1  13
TORSDOF 6
ENDMDL
MODEL 9
REMARK VINA RESULT:      -6.8      3.348      5.180
REMARK  Name = 
REMARK  7 active torsions:
REMARK  status: ('A' for Active; 'I' for Inactive)
REMARK    1  A    between atoms: C_1  and  N_2
REMARK    2  A    between atoms: N_2  and  C_3
REMARK    3  A    between atoms: N_2  and  C_15
REMARK    4  A    between atoms: C_3  and  C_4
REMARK    5  A    between atoms: N_6  and  C_7
REMARK    6  A    between atoms: C_11  and  C_12
REMARK    7  A    between atoms: C_15  and  C_16
REMARK                            x       y       z     vdW  Elec       q    Type
REMARK                         _______ _______ _______ _____ _____    ______ ____
ROOT
ATOM      1  C   UNL     1       6.544   4.798  18.766  0.00  0.00    +0.000 C 
ATOM      2  O   UNL     1       6.809   5.331  19.845  0.00  0.00    +0.000 OA
ATOM      3  N   UNL     1       5.362   4.132  18.472  0.00  0.00    +0.000 N 
ATOM      4  H   UNL     1       5.360   3.543  17.650  0.00  0.00    +0.000 HD
ENDROOT
BRANCH   3   5
ATOM      5  C   UNL     1       4.228   4.064  19.313  0.00  0.00    +0.000 A 
ATOM      6  C   UNL     1       3.733   2.859  19.821  0.00  0.00    +0.000 A 
ATOM      7  C   UNL     1       2.577   2.830  20.601  0.00  0.00    +0.000 A 
ATOM      8  C   UNL     1       1.904   4.016  20.890  0.00  0.00    +0.000 A 
ATOM      9  C   UNL     1       2.412   5.229  20.425  0.00  0.00    +0.000 A 
ATOM     10  C   UNL     1       3.583   5.258  19.654  0.00  0.00    +0.000 A 
BRANCH   9  11
ATOM     11  C   UNL     1       1.717   6.449  20.719  0.00  0.00    +0.000 C 
ATOM     12  N   UNL     1       1.158   7.435  20.967  0.00  0.00    +0.000 NA
ENDBRANCH   9  11
ENDBRANCH   3   5
BRANCH   1  13
ATOM     13  C   UNL     1       7.542   4.852  17.607  0.00  0.00    +0.000 C 
BRANCH  13  15
ATOM     14  C   UNL     1       7.615   7.284  17.675  0.00  0.00    +0.000 C 
ATOM     15  N   UNL     1       7.459   6.101  16.819  0.00  0.00    +0.000 NA
BRANCH  15  16
ATOM     16  C   UNL     1       6.238   6.163  16.004  0.00  0.00    +0.000 C 
BRANCH  16  17
ATOM     17  C   UNL     1       6.232   5.166  14.864  0.00  0.00    +0.000 A 
ATOM     18  C   UNL     1       7.265   5.157  13.915  0.00  0.00    +0.000 A 
ATOM     19  C   UNL     1       7.219   4.283  12.826  0.00  0.00    +0.000 A 
ATOM     20  C   UNL     1       6.143   3.408  12.689  0.00  0.00    +0.000 A 
ATOM     21 CL   UNL     1       6.066   2.353  11.330  0.00  0.00    +0.000 Cl
ATOM     22  C   UNL     1       5.123   3.387  13.636  0.00  0.00    +0.000 A 
ATOM     23  C   UNL     1       5.168   4.262  14.724  0.00  0.00    +0.000 A 
ENDBRANCH  16  17
ENDBRANCH  15  16
ENDBRANCH  13  15
ENDBRANCH   1  13
TORSDOF 6
ENDMDL
