MODEL 1
REMARK VINA RESULT:      -7.2      0.000      0.000
REMARK  Name = 
REMARK  6 active torsions:
REMARK  status: ('A' for Active; 'I' for Inactive)
REMARK    1  A    between atoms: C_1  and  C_2
REMARK    2  A    between atoms: C_2  and  N_3
REMARK    3  A    between atoms: C_2  and  C_14
REMARK    4  A    between atoms: N_3  and  C_4
REMARK    5  A    between atoms: C_11  and  C_12
REMARK    6  A    between atoms: N_25  and  C_26
REMARK                            x       y       z     vdW  Elec       q    Type
REMARK                         _______ _______ _______ _____ _____    ______ ____
ROOT
ATOM      1  C   UNL     1      -1.421  12.455  19.473  0.00  0.00    +0.000 A 
ATOM      2  N   UNL     1      -1.308  11.880  18.312  0.00  0.00    +0.000 NA
ATOM      3  C   UNL     1      -2.462  11.520  17.604  0.00  0.00    +0.000 A 
ATOM      4  C   UNL     1      -2.291  10.947  16.337  0.00  0.00    +0.000 A 
ATOM      5  C   UNL     1      -3.387  10.613  15.543  0.00  0.00    +0.000 A 
ATOM      6  C   UNL     1      -4.673  10.866  16.009  0.00  0.00    +0.000 A 
ATOM      7  C   UNL     1      -4.866  11.436  17.273  0.00  0.00    +0.000 A 
ATOM      8 CL   UNL     1      -6.512  11.757  17.700  0.00  0.00    +0.000 Cl
ATOM      9  C   UNL     1      -3.756  11.747  18.081  0.00  0.00    +0.000 A 
ATOM     10  C   UNL     1      -3.858  12.284  19.457  0.00  0.00    +0.000 A 
ATOM     11  O   UNL     1      -4.949  12.312  20.020  0.00  0.00    +0.000 OA
ATOM     12  N   UNL     1      -2.656  12.662  20.083  0.00  0.00    +0.000 N 
ENDROOT
BRANCH  12  13
ATOM     13  C   UNL     1      -2.770  13.140  21.426  0.00  0.00    +0.000 A 
ATOM     14  C   UNL     1      -2.895  14.511  21.688  0.00  0.00    +0.000 A 
ATOM     15  C   UNL     1      -3.152  14.964  22.982  0.00  0.00    +0.000 A 
ATOM     16  C   UNL     1      -3.230  14.050  24.022  0.00  0.00    +0.000 A 
ATOM     17  F   UNL     1      -3.526  14.478  25.255  0.00  0.00    +0.000 F 
ATOM     18  C   UNL     1      -3.011  12.695  23.800  0.00  0.00    +0.000 A 
ATOM     19  C   UNL     1      -2.768  12.239  22.502  0.00  0.00    +0.000 A 
ENDBRANCH  12  13
BRANCH   1  21
ATOM     20  C   UNL     1       0.421  14.258  19.593  0.00  0.00    +0.000 C 
ATOM     21  C   UNL     1      -0.099  12.939  20.162  0.00  0.00    +0.000 C 
BRANCH  21  22
ATOM     22  N   UNL     1       0.952  11.928  19.957  0.00  0.00    +0.000 N 
ATOM     23  H   UNL     1       1.384  11.961  19.037  0.00  0.00    +0.000 HD
BRANCH  22  24
ATOM     24  C   UNL     1       0.870  10.695  20.596  0.00  0.00    +0.000 A 
ATOM     25  N   UNL     1       0.440  10.672  21.871  0.00  0.00    +0.000 NA
ATOM     26  C   UNL     1       0.434   9.506  22.519  0.00  0.00    +0.000 A 
ATOM     27  N   UNL     1      -0.024   9.511  23.821  0.00  0.00    +0.000 N 
ATOM     28  N   UNL     1       0.863   8.353  22.012  0.00  0.00    +0.000 NA
ATOM     29  C   UNL     1       1.299   8.377  20.745  0.00  0.00    +0.000 A 
ATOM     30  N   UNL     1       1.800   7.160  20.279  0.00  0.00    +0.000 N 
ATOM     31  C   UNL     1       1.323   9.538  19.985  0.00  0.00    +0.000 A 
ATOM     32  H   UNL     1       0.038  10.444  24.206  0.00  0.00    +0.000 HD
ATOM     33  H   UNL     1       0.421   8.771  24.347  0.00  0.00    +0.000 HD
ATOM     34  H   UNL     1       1.630   6.449  20.988  0.00  0.00    +0.000 HD
ATOM     35  H   UNL     1       1.451   6.881  19.368  0.00  0.00    +0.000 HD
BRANCH  31  36
ATOM     36  C   UNL     1       1.789   9.531  18.641  0.00  0.00    +0.000 C 
ATOM     37  N   UNL     1       2.136   9.562  17.531  0.00  0.00    +0.000 NA
ENDBRANCH  31  36
ENDBRANCH  22  24
ENDBRANCH  21  22
ENDBRANCH   1  21
TORSDOF 5
ENDMDL
MODEL 2
REMARK VINA RESULT:      -6.9      1.752      2.152
REMARK  Name = 
REMARK  6 active torsions:
REMARK  status: ('A' for Active; 'I' for Inactive)
REMARK    1  A    between atoms: C_1  and  C_2
REMARK    2  A    between atoms: C_2  and  N_3
REMARK    3  A    between atoms: C_2  and  C_14
REMARK    4  A    between atoms: N_3  and  C_4
REMARK    5  A    between atoms: C_11  and  C_12
REMARK    6  A    between atoms: N_25  and  C_26
REMARK                            x       y       z     vdW  Elec       q    Type
REMARK                         _______ _______ _______ _____ _____    ______ ____
ROOT
ATOM      1  C   UNL     1      -2.348  12.677  19.768  0.00  0.00    +0.000 A 
ATOM      2  N   UNL     1      -3.032  11.909  18.972  0.00  0.00    +0.000 NA
ATOM      3  C   UNL     1      -4.432  11.936  19.021  0.00  0.00    +0.000 A 
ATOM      4  C   UNL     1      -5.126  11.127  18.113  0.00  0.00    +0.000 A 
ATOM      5  C   UNL     1      -6.519  11.137  18.057  0.00  0.00    +0.000 A 
ATOM      6  C   UNL     1      -7.232  11.978  18.905  0.00  0.00    +0.000 A 
ATOM      7  C   UNL     1      -6.558  12.794  19.821  0.00  0.00    +0.000 A 
ATOM      8 CL   UNL     1      -7.563  13.836  20.769  0.00  0.00    +0.000 Cl
ATOM      9  C   UNL     1      -5.152  12.759  19.892  0.00  0.00    +0.000 A 
ATOM     10  C   UNL     1      -4.353  13.528  20.872  0.00  0.00    +0.000 A 
ATOM     11  O   UNL     1      -4.917  14.104  21.799  0.00  0.00    +0.000 OA
ATOM     12  N   UNL     1      -2.955  13.482  20.729  0.00  0.00    +0.000 N 
ENDROOT
BRANCH  12  13
ATOM     13  C   UNL     1      -2.198  14.197  21.710  0.00  0.00    +0.000 A 
ATOM     14  C   UNL     1      -1.835  15.533  21.497  0.00  0.00    +0.000 A 
ATOM     15  C   UNL     1      -1.226  16.272  22.511  0.00  0.00    +0.000 A 
ATOM     16  C   UNL     1      -0.932  15.658  23.720  0.00  0.00    +0.000 A 
ATOM     17  F   UNL     1      -0.394  16.379  24.711  0.00  0.00    +0.000 F 
ATOM     18  C   UNL     1      -1.195  14.308  23.917  0.00  0.00    +0.000 A 
ATOM     19  C   UNL     1      -1.817  13.570  22.907  0.00  0.00    +0.000 A 
ENDBRANCH  12  13
BRANCH   1  21
ATOM     20  C   UNL     1      -0.318  13.710  18.552  0.00  0.00    +0.000 C 
ATOM     21  C   UNL     1      -0.791  12.688  19.585  0.00  0.00    +0.000 C 
BRANCH  21  22
ATOM     22  N   UNL     1      -0.348  11.362  19.123  0.00  0.00    +0.000 N 
ATOM     23  H   UNL     1      -0.760  11.073  18.238  0.00  0.00    +0.000 HD
BRANCH  22  24
ATOM     24  C   UNL     1      -0.024  10.372  20.046  0.00  0.00    +0.000 A 
ATOM     25  N   UNL     1      -0.547  10.466  21.282  0.00  0.00    +0.000 NA
ATOM     26  C   UNL     1      -0.179   9.568  22.197  0.00  0.00    +0.000 A 
ATOM     27  N   UNL     1      -0.741   9.681  23.452  0.00  0.00    +0.000 N 
ATOM     28  N   UNL     1       0.708   8.597  21.996  0.00  0.00    +0.000 NA
ATOM     29  C   UNL     1       1.236   8.508  20.767  0.00  0.00    +0.000 A 
ATOM     30  N   UNL     1       2.208   7.517  20.622  0.00  0.00    +0.000 N 
ATOM     31  C   UNL     1       0.898   9.384  19.744  0.00  0.00    +0.000 A 
ATOM     32  H   UNL     1      -1.081  10.623  23.596  0.00  0.00    +0.000 HD
ATOM     33  H   UNL     1      -0.109   9.314  24.149  0.00  0.00    +0.000 HD
ATOM     34  H   UNL     1       2.246   6.975  21.482  0.00  0.00    +0.000 HD
ATOM     35  H   UNL     1       2.092   6.929  19.803  0.00  0.00    +0.000 HD
BRANCH  31  36
ATOM     36  C   UNL     1       1.474   9.263  18.449  0.00  0.00    +0.000 C 
ATOM     37  N   UNL     1       1.922   9.117  17.385  0.00  0.00    +0.000 NA
ENDBRANCH  31  36
ENDBRANCH  22  24
ENDBRANCH  21  22
ENDBRANCH   1  21
TORSDOF 5
ENDMDL
MODEL 3
REMARK VINA RESULT:      -6.9      3.751      6.808
REMARK  Name = 
REMARK  6 active torsions:
REMARK  status: ('A' for Active; 'I' for Inactive)
REMARK    1  A    between atoms: C_1  and  C_2
REMARK    2  A    between atoms: C_2  and  N_3
REMARK    3  A    between atoms: C_2  and  C_14
REMARK    4  A    between atoms: N_3  and  C_4
REMARK    5  A    between atoms: C_11  and  C_12
REMARK    6  A    between atoms: N_25  and  C_26
REMARK                            x       y       z     vdW  Elec       q    Type
REMARK                         _______ _______ _______ _____ _____    ______ ____
ROOT
ATOM      1  C   UNL     1      -0.887  13.352  19.554  0.00  0.00    +0.000 A 
ATOM      2  N   UNL     1      -1.026  14.619  19.296  0.00  0.00    +0.000 NA
ATOM      3  C   UNL     1       0.091  15.373  18.914  0.00  0.00    +0.000 A 
ATOM      4  C   UNL     1      -0.117  16.722  18.600  0.00  0.00    +0.000 A 
ATOM      5  C   UNL     1       0.930  17.528  18.157  0.00  0.00    +0.000 A 
ATOM      6  C   UNL     1       2.200  16.980  18.008  0.00  0.00    +0.000 A 
ATOM      7  C   UNL     1       2.429  15.635  18.317  0.00  0.00    +0.000 A 
ATOM      8 CL   UNL     1       4.038  15.068  18.024  0.00  0.00    +0.000 Cl
ATOM      9  C   UNL     1       1.374  14.832  18.790  0.00  0.00    +0.000 A 
ATOM     10  C   UNL     1       1.530  13.422  19.211  0.00  0.00    +0.000 A 
ATOM     11  O   UNL     1       2.655  12.944  19.331  0.00  0.00    +0.000 OA
ATOM     12  N   UNL     1       0.355  12.722  19.538  0.00  0.00    +0.000 N 
ENDROOT
BRANCH  12  13
ATOM     13  C   UNL     1       0.529  11.373  19.983  0.00  0.00    +0.000 A 
ATOM     14  C   UNL     1       0.758  10.342  19.062  0.00  0.00    +0.000 A 
ATOM     15  C   UNL     1       1.072   9.057  19.502  0.00  0.00    +0.000 A 
ATOM     16  C   UNL     1       1.105   8.791  20.864  0.00  0.00    +0.000 A 
ATOM     17  F   UNL     1       1.455   7.571  21.288  0.00  0.00    +0.000 F 
ATOM     18  C   UNL     1       0.785   9.775  21.791  0.00  0.00    +0.000 A 
ATOM     19  C   UNL     1       0.484  11.066  21.352  0.00  0.00    +0.000 A 
ENDBRANCH  12  13
BRANCH   1  21
ATOM     20  C   UNL     1      -2.748  11.817  18.635  0.00  0.00    +0.000 C 
ATOM     21  C   UNL     1      -2.191  12.538  19.862  0.00  0.00    +0.000 C 
BRANCH  21  22
ATOM     22  N   UNL     1      -3.235  13.459  20.340  0.00  0.00    +0.000 N 
ATOM     23  H   UNL     1      -2.979  14.442  20.279  0.00  0.00    +0.000 HD
BRANCH  22  24
ATOM     24  C   UNL     1      -4.096  13.071  21.362  0.00  0.00    +0.000 A 
ATOM     25  N   UNL     1      -5.374  12.799  21.042  0.00  0.00    +0.000 NA
ATOM     26  C   UNL     1      -6.226  12.504  22.025  0.00  0.00    +0.000 A 
ATOM     27  N   UNL     1      -7.527  12.216  21.665  0.00  0.00    +0.000 N 
ATOM     28  N   UNL     1      -5.920  12.497  23.319  0.00  0.00    +0.000 NA
ATOM     29  C   UNL     1      -4.649  12.777  23.640  0.00  0.00    +0.000 A 
ATOM     30  N   UNL     1      -4.391  12.823  25.011  0.00  0.00    +0.000 N 
ATOM     31  C   UNL     1      -3.686  13.075  22.685  0.00  0.00    +0.000 A 
ATOM     32  H   UNL     1      -7.729  12.605  20.754  0.00  0.00    +0.000 HD
ATOM     33  H   UNL     1      -8.156  12.465  22.416  0.00  0.00    +0.000 HD
ATOM     34  H   UNL     1      -5.228  12.522  25.506  0.00  0.00    +0.000 HD
ATOM     35  H   UNL     1      -3.567  12.308  25.303  0.00  0.00    +0.000 HD
BRANCH  31  36
ATOM     36  C   UNL     1      -2.344  13.366  23.056  0.00  0.00    +0.000 C 
ATOM     37  N   UNL     1      -1.257  13.589  23.408  0.00  0.00    +0.000 NA
ENDBRANCH  31  36
ENDBRANCH  22  24
ENDBRANCH  21  22
ENDBRANCH   1  21
TORSDOF 5
ENDMDL
MODEL 4
REMARK VINA RESULT:      -6.8      3.757      6.757
REMARK  Name = 
REMARK  6 active torsions:
REMARK  status: ('A' for Active; 'I' for Inactive)
REMARK    1  A    between atoms: C_1  and  C_2
REMARK    2  A    between atoms: C_2  and  N_3
REMARK    3  A    between atoms: C_2  and  C_14
REMARK    4  A    between atoms: N_3  and  C_4
REMARK    5  A    between atoms: C_11  and  C_12
REMARK    6  A    between atoms: N_25  and  C_26
REMARK                            x       y       z     vdW  Elec       q    Type
REMARK                         _______ _______ _______ _____ _____    ______ ____
ROOT
ATOM      1  C   UNL     1      -0.866  13.395  19.573  0.00  0.00    +0.000 A 
ATOM      2  N   UNL     1      -1.001  14.664  19.318  0.00  0.00    +0.000 NA
ATOM      3  C   UNL     1       0.111  15.406  18.898  0.00  0.00    +0.000 A 
ATOM      4  C   UNL     1      -0.093  16.757  18.590  0.00  0.00    +0.000 A 
ATOM      5  C   UNL     1       0.948  17.551  18.112  0.00  0.00    +0.000 A 
ATOM      6  C   UNL     1       2.206  16.990  17.921  0.00  0.00    +0.000 A 
ATOM      7  C   UNL     1       2.431  15.642  18.224  0.00  0.00    +0.000 A 
ATOM      8 CL   UNL     1       4.023  15.058  17.878  0.00  0.00    +0.000 Cl
ATOM      9  C   UNL     1       1.383  14.851  18.732  0.00  0.00    +0.000 A 
ATOM     10  C   UNL     1       1.538  13.440  19.149  0.00  0.00    +0.000 A 
ATOM     11  O   UNL     1       2.662  12.949  19.232  0.00  0.00    +0.000 OA
ATOM     12  N   UNL     1       0.368  12.752  19.516  0.00  0.00    +0.000 N 
ENDROOT
BRANCH  12  13
ATOM     13  C   UNL     1       0.542  11.403  19.955  0.00  0.00    +0.000 A 
ATOM     14  C   UNL     1       0.744  10.370  19.030  0.00  0.00    +0.000 A 
ATOM     15  C   UNL     1       1.059   9.082  19.462  0.00  0.00    +0.000 A 
ATOM     16  C   UNL     1       1.119   8.815  20.822  0.00  0.00    +0.000 A 
ATOM     17  F   UNL     1       1.470   7.592  21.238  0.00  0.00    +0.000 F 
ATOM     18  C   UNL     1       0.825   9.800  21.757  0.00  0.00    +0.000 A 
ATOM     19  C   UNL     1       0.524  11.095  21.325  0.00  0.00    +0.000 A 
ENDBRANCH  12  13
BRANCH   1  21
ATOM     20  C   UNL     1      -2.786  11.899  18.712  0.00  0.00    +0.000 C 
ATOM     21  C   UNL     1      -2.168  12.596  19.924  0.00  0.00    +0.000 C 
BRANCH  21  22
ATOM     22  N   UNL     1      -3.178  13.525  20.457  0.00  0.00    +0.000 N 
ATOM     23  H   UNL     1      -3.300  14.368  19.899  0.00  0.00    +0.000 HD
BRANCH  22  24
ATOM     24  C   UNL     1      -3.392  13.614  21.829  0.00  0.00    +0.000 A 
ATOM     25  N   UNL     1      -2.439  14.194  22.580  0.00  0.00    +0.000 NA
ATOM     26  C   UNL     1      -2.598  14.212  23.905  0.00  0.00    +0.000 A 
ATOM     27  N   UNL     1      -1.610  14.826  24.648  0.00  0.00    +0.000 N 
ATOM     28  N   UNL     1      -3.616  13.659  24.556  0.00  0.00    +0.000 NA
ATOM     29  C   UNL     1      -4.562  13.072  23.808  0.00  0.00    +0.000 A 
ATOM     30  N   UNL     1      -5.576  12.449  24.537  0.00  0.00    +0.000 N 
ATOM     31  C   UNL     1      -4.495  13.022  22.422  0.00  0.00    +0.000 A 
ATOM     32  H   UNL     1      -0.750  14.866  24.117  0.00  0.00    +0.000 HD
ATOM     33  H   UNL     1      -1.558  14.408  25.567  0.00  0.00    +0.000 HD
ATOM     34  H   UNL     1      -5.442  12.663  25.524  0.00  0.00    +0.000 HD
ATOM     35  H   UNL     1      -6.516  12.666  24.223  0.00  0.00    +0.000 HD
BRANCH  31  36
ATOM     36  C   UNL     1      -5.516  12.395  21.656  0.00  0.00    +0.000 C 
ATOM     37  N   UNL     1      -6.353  11.845  21.065  0.00  0.00    +0.000 NA
ENDBRANCH  31  36
ENDBRANCH  22  24
ENDBRANCH  21  22
ENDBRANCH   1  21
TORSDOF 5
ENDMDL
MODEL 5
REMARK VINA RESULT:      -6.8      3.780      6.806
REMARK  Name = 
REMARK  6 active torsions:
REMARK  status: ('A' for Active; 'I' for Inactive)
REMARK    1  A    between atoms: C_1  and  C_2
REMARK    2  A    between atoms: C_2  and  N_3
REMARK    3  A    between atoms: C_2  and  C_14
REMARK    4  A    between atoms: N_3  and  C_4
REMARK    5  A    between atoms: C_11  and  C_12
REMARK    6  A    between atoms: N_25  and  C_26
REMARK                            x       y       z     vdW  Elec       q    Type
REMARK                         _______ _______ _______ _____ _____    ______ ____
ROOT
ATOM      1  C   UNL     1      -0.963  13.310  19.511  0.00  0.00    +0.000 A 
ATOM      2  N   UNL     1      -1.119  14.572  19.238  0.00  0.00    +0.000 NA
ATOM      3  C   UNL     1      -0.003  15.349  18.901  0.00  0.00    +0.000 A 
ATOM      4  C   UNL     1      -0.227  16.691  18.570  0.00  0.00    +0.000 A 
ATOM      5  C   UNL     1       0.821  17.518  18.168  0.00  0.00    +0.000 A 
ATOM      6  C   UNL     1       2.108  16.998  18.078  0.00  0.00    +0.000 A 
ATOM      7  C   UNL     1       2.353  15.660  18.406  0.00  0.00    +0.000 A 
ATOM      8 CL   UNL     1       3.985  15.128  18.188  0.00  0.00    +0.000 Cl
ATOM      9  C   UNL     1       1.296  14.836  18.837  0.00  0.00    +0.000 A 
ATOM     10  C   UNL     1       1.464  13.432  19.274  0.00  0.00    +0.000 A 
ATOM     11  O   UNL     1       2.594  12.980  19.446  0.00  0.00    +0.000 OA
ATOM     12  N   UNL     1       0.292  12.708  19.553  0.00  0.00    +0.000 N 
ENDROOT
BRANCH  12  13
ATOM     13  C   UNL     1       0.476  11.366  20.013  0.00  0.00    +0.000 A 
ATOM     14  C   UNL     1       0.769  10.335  19.111  0.00  0.00    +0.000 A 
ATOM     15  C   UNL     1       1.092   9.060  19.572  0.00  0.00    +0.000 A 
ATOM     16  C   UNL     1       1.070   8.801  20.935  0.00  0.00    +0.000 A 
ATOM     17  F   UNL     1       1.427   7.592  21.383  0.00  0.00    +0.000 F 
ATOM     18  C   UNL     1       0.686   9.783  21.841  0.00  0.00    +0.000 A 
ATOM     19  C   UNL     1       0.377  11.065  21.381  0.00  0.00    +0.000 A 
ENDBRANCH  12  13
BRANCH   1  21
ATOM     20  C   UNL     1      -2.655  11.602  18.570  0.00  0.00    +0.000 C 
ATOM     21  C   UNL     1      -2.261  12.469  19.766  0.00  0.00    +0.000 C 
BRANCH  21  22
ATOM     22  N   UNL     1      -3.385  13.382  20.035  0.00  0.00    +0.000 N 
ATOM     23  H   UNL     1      -3.202  14.349  19.778  0.00  0.00    +0.000 HD
BRANCH  22  24
ATOM     24  C   UNL     1      -4.241  13.140  21.104  0.00  0.00    +0.000 A 
ATOM     25  N   UNL     1      -3.769  13.340  22.348  0.00  0.00    +0.000 NA
ATOM     26  C   UNL     1      -4.556  13.035  23.382  0.00  0.00    +0.000 A 
ATOM     27  N   UNL     1      -4.050  13.263  24.646  0.00  0.00    +0.000 N 
ATOM     28  N   UNL     1      -5.770  12.503  23.282  0.00  0.00    +0.000 NA
ATOM     29  C   UNL     1      -6.238  12.296  22.043  0.00  0.00    +0.000 A 
ATOM     30  N   UNL     1      -7.487  11.677  21.989  0.00  0.00    +0.000 N 
ATOM     31  C   UNL     1      -5.501  12.601  20.906  0.00  0.00    +0.000 A 
ATOM     32  H   UNL     1      -3.040  13.301  24.614  0.00  0.00    +0.000 HD
ATOM     33  H   UNL     1      -4.460  12.616  25.304  0.00  0.00    +0.000 HD
ATOM     34  H   UNL     1      -7.850  11.599  22.937  0.00  0.00    +0.000 HD
ATOM     35  H   UNL     1      -8.150  12.118  21.360  0.00  0.00    +0.000 HD
BRANCH  31  36
ATOM     36  C   UNL     1      -6.026  12.372  19.604  0.00  0.00    +0.000 C 
ATOM     37  N   UNL     1      -6.453  12.134  18.548  0.00  0.00    +0.000 NA
ENDBRANCH  31  36
ENDBRANCH  22  24
ENDBRANCH  21  22
ENDBRANCH   1  21
TORSDOF 5
ENDMDL
MODEL 6
REMARK VINA RESULT:      -6.7      3.696      6.908
REMARK  Name = 
REMARK  6 active torsions:
REMARK  status: ('A' for Active; 'I' for Inactive)
REMARK    1  A    between atoms: C_1  and  C_2
REMARK    2  A    between atoms: C_2  and  N_3
REMARK    3  A    between atoms: C_2  and  C_14
REMARK    4  A    between atoms: N_3  and  C_4
REMARK    5  A    between atoms: C_11  and  C_12
REMARK    6  A    between atoms: N_25  and  C_26
REMARK                            x       y       z     vdW  Elec       q    Type
REMARK                         _______ _______ _______ _____ _____    ______ ____
ROOT
ATOM      1  C   UNL     1      -0.918  13.047  19.270  0.00  0.00    +0.000 A 
ATOM      2  N   UNL     1      -1.100  14.308  19.006  0.00  0.00    +0.000 NA
ATOM      3  C   UNL     1       0.007  15.158  18.897  0.00  0.00    +0.000 A 
ATOM      4  C   UNL     1      -0.236  16.497  18.564  0.00  0.00    +0.000 A 
ATOM      5  C   UNL     1       0.813  17.396  18.380  0.00  0.00    +0.000 A 
ATOM      6  C   UNL     1       2.125  16.953  18.513  0.00  0.00    +0.000 A 
ATOM      7  C   UNL     1       2.390  15.620  18.845  0.00  0.00    +0.000 A 
ATOM      8 CL   UNL     1       4.064  15.189  18.914  0.00  0.00    +0.000 Cl
ATOM      9  C   UNL     1       1.326  14.723  19.057  0.00  0.00    +0.000 A 
ATOM     10  C   UNL     1       1.500  13.316  19.481  0.00  0.00    +0.000 A 
ATOM     11  O   UNL     1       2.606  12.922  19.844  0.00  0.00    +0.000 OA
ATOM     12  N   UNL     1       0.344  12.516  19.524  0.00  0.00    +0.000 N 
ENDROOT
BRANCH  12  13
ATOM     13  C   UNL     1       0.526  11.171  19.976  0.00  0.00    +0.000 A 
ATOM     14  C   UNL     1       0.956  10.173  19.092  0.00  0.00    +0.000 A 
ATOM     15  C   UNL     1       1.273   8.899  19.562  0.00  0.00    +0.000 A 
ATOM     16  C   UNL     1       1.108   8.608  20.909  0.00  0.00    +0.000 A 
ATOM     17  F   UNL     1       1.459   7.402  21.370  0.00  0.00    +0.000 F 
ATOM     18  C   UNL     1       0.590   9.554  21.785  0.00  0.00    +0.000 A 
ATOM     19  C   UNL     1       0.286  10.835  21.318  0.00  0.00    +0.000 A 
ENDBRANCH  12  13
BRANCH   1  21
ATOM     20  C   UNL     1      -2.342  11.334  17.966  0.00  0.00    +0.000 C 
ATOM     21  C   UNL     1      -2.186  12.125  19.264  0.00  0.00    +0.000 C 
BRANCH  21  22
ATOM     22  N   UNL     1      -3.391  12.958  19.417  0.00  0.00    +0.000 N 
ATOM     23  H   UNL     1      -3.214  13.958  19.350  0.00  0.00    +0.000 HD
BRANCH  22  24
ATOM     24  C   UNL     1      -4.435  12.532  20.232  0.00  0.00    +0.000 A 
ATOM     25  N   UNL     1      -5.488  11.932  19.646  0.00  0.00    +0.000 NA
ATOM     26  C   UNL     1      -6.530  11.593  20.407  0.00  0.00    +0.000 A 
ATOM     27  N   UNL     1      -7.589  10.967  19.781  0.00  0.00    +0.000 N 
ATOM     28  N   UNL     1      -6.632  11.840  21.710  0.00  0.00    +0.000 NA
ATOM     29  C   UNL     1      -5.587  12.446  22.292  0.00  0.00    +0.000 A 
ATOM     30  N   UNL     1      -5.767  12.743  23.644  0.00  0.00    +0.000 N 
ATOM     31  C   UNL     1      -4.451  12.817  21.586  0.00  0.00    +0.000 A 
ATOM     32  H   UNL     1      -7.573  11.166  18.790  0.00  0.00    +0.000 HD
ATOM     33  H   UNL     1      -8.449  11.170  20.272  0.00  0.00    +0.000 HD
ATOM     34  H   UNL     1      -6.646  12.332  23.950  0.00  0.00    +0.000 HD
ATOM     35  H   UNL     1      -4.991  12.477  24.241  0.00  0.00    +0.000 HD
BRANCH  31  36
ATOM     36  C   UNL     1      -3.357  13.456  22.233  0.00  0.00    +0.000 C 
ATOM     37  N   UNL     1      -2.441  13.988  22.716  0.00  0.00    +0.000 NA
ENDBRANCH  31  36
ENDBRANCH  22  24
ENDBRANCH  21  22
ENDBRANCH   1  21
TORSDOF 5
ENDMDL
MODEL 7
REMARK VINA RESULT:      -6.7      3.772      6.803
REMARK  Name = 
REMARK  6 active torsions:
REMARK  status: ('A' for Active; 'I' for Inactive)
REMARK    1  A    between atoms: C_1  and  C_2
REMARK    2  A    between atoms: C_2  and  N_3
REMARK    3  A    between atoms: C_2  and  C_14
REMARK    4  A    between atoms: N_3  and  C_4
REMARK    5  A    between atoms: C_11  and  C_12
REMARK    6  A    between atoms: N_25  and  C_26
REMARK                            x       y       z     vdW  Elec       q    Type
REMARK                         _______ _______ _______ _____ _____    ______ ____
ROOT
ATOM      1  C   UNL     1      -0.832  12.903  19.255  0.00  0.00    +0.000 A 
ATOM      2  N   UNL     1      -1.109  14.144  18.983  0.00  0.00    +0.000 NA
ATOM      3  C   UNL     1      -0.069  15.076  18.871  0.00  0.00    +0.000 A 
ATOM      4  C   UNL     1      -0.414  16.390  18.529  0.00  0.00    +0.000 A 
ATOM      5  C   UNL     1       0.564  17.365  18.342  0.00  0.00    +0.000 A 
ATOM      6  C   UNL     1       1.906  17.025  18.481  0.00  0.00    +0.000 A 
ATOM      7  C   UNL     1       2.271  15.718  18.824  0.00  0.00    +0.000 A 
ATOM      8 CL   UNL     1       3.973  15.417  18.900  0.00  0.00    +0.000 Cl
ATOM      9  C   UNL     1       1.278  14.744  19.038  0.00  0.00    +0.000 A 
ATOM     10  C   UNL     1       1.558  13.357  19.472  0.00  0.00    +0.000 A 
ATOM     11  O   UNL     1       2.690  13.051  19.841  0.00  0.00    +0.000 OA
ATOM     12  N   UNL     1       0.467  12.471  19.517  0.00  0.00    +0.000 N 
ENDROOT
BRANCH  12  13
ATOM     13  C   UNL     1       0.749  11.147  19.978  0.00  0.00    +0.000 A 
ATOM     14  C   UNL     1       0.516  10.791  21.313  0.00  0.00    +0.000 A 
ATOM     15  C   UNL     1       0.652   9.466  21.727  0.00  0.00    +0.000 A 
ATOM     16  C   UNL     1       1.073   8.507  20.817  0.00  0.00    +0.000 A 
ATOM     17  F   UNL     1       1.156   7.227  21.200  0.00  0.00    +0.000 F 
ATOM     18  C   UNL     1       1.404   8.857  19.513  0.00  0.00    +0.000 A 
ATOM     19  C   UNL     1       1.254  10.181  19.094  0.00  0.00    +0.000 A 
ENDBRANCH  12  13
BRANCH   1  21
ATOM     20  C   UNL     1      -1.994  10.934  18.057  0.00  0.00    +0.000 C 
ATOM     21  C   UNL     1      -2.025  11.886  19.252  0.00  0.00    +0.000 C 
BRANCH  21  22
ATOM     22  N   UNL     1      -3.294  12.630  19.186  0.00  0.00    +0.000 N 
ATOM     23  H   UNL     1      -3.244  13.488  18.640  0.00  0.00    +0.000 HD
BRANCH  22  24
ATOM     24  C   UNL     1      -4.186  12.588  20.254  0.00  0.00    +0.000 A 
ATOM     25  N   UNL     1      -3.692  12.750  21.495  0.00  0.00    +0.000 NA
ATOM     26  C   UNL     1      -4.526  12.631  22.530  0.00  0.00    +0.000 A 
ATOM     27  N   UNL     1      -3.994  12.816  23.790  0.00  0.00    +0.000 N 
ATOM     28  N   UNL     1      -5.815  12.319  22.436  0.00  0.00    +0.000 NA
ATOM     29  C   UNL     1      -6.305  12.148  21.200  0.00  0.00    +0.000 A 
ATOM     30  N   UNL     1      -7.645  11.758  21.154  0.00  0.00    +0.000 N 
ATOM     31  C   UNL     1      -5.520  12.273  20.061  0.00  0.00    +0.000 A 
ATOM     32  H   UNL     1      -2.993  12.673  23.769  0.00  0.00    +0.000 HD
ATOM     33  H   UNL     1      -4.516  12.278  24.468  0.00  0.00    +0.000 HD
ATOM     34  H   UNL     1      -8.020  11.784  22.100  0.00  0.00    +0.000 HD
ATOM     35  H   UNL     1      -8.216  12.285  20.501  0.00  0.00    +0.000 HD
BRANCH  31  36
ATOM     36  C   UNL     1      -6.070  12.088  18.763  0.00  0.00    +0.000 C 
ATOM     37  N   UNL     1      -6.565  11.958  17.717  0.00  0.00    +0.000 NA
ENDBRANCH  31  36
ENDBRANCH  22  24
ENDBRANCH  21  22
ENDBRANCH   1  21
TORSDOF 5
ENDMDL
MODEL 8
REMARK VINA RESULT:      -6.7      3.437      6.035
REMARK  Name = 
REMARK  6 active torsions:
REMARK  status: ('A' for Active; 'I' for Inactive)
REMARK    1  A    between atoms: C_1  and  C_2
REMARK    2  A    between atoms: C_2  and  N_3
REMARK    3  A    between atoms: C_2  and  C_14
REMARK    4  A    between atoms: N_3  and  C_4
REMARK    5  A    between atoms: C_11  and  C_12
REMARK    6  A    between atoms: N_25  and  C_26
REMARK                            x       y       z     vdW  Elec       q    Type
REMARK                         _______ _______ _______ _____ _____    ______ ____
ROOT
ATOM      1  C   UNL     1      -0.370  12.618  19.881  0.00  0.00    +0.000 A 
ATOM      2  N   UNL     1       0.469  12.800  18.904  0.00  0.00    +0.000 NA
ATOM      3  C   UNL     1       1.653  13.513  19.134  0.00  0.00    +0.000 A 
ATOM      4  C   UNL     1       2.547  13.642  18.064  0.00  0.00    +0.000 A 
ATOM      5  C   UNL     1       3.773  14.287  18.223  0.00  0.00    +0.000 A 
ATOM      6  C   UNL     1       4.122  14.797  19.469  0.00  0.00    +0.000 A 
ATOM      7  C   UNL     1       3.241  14.680  20.551  0.00  0.00    +0.000 A 
ATOM      8 CL   UNL     1       3.828  15.299  22.057  0.00  0.00    +0.000 Cl
ATOM      9  C   UNL     1       1.994  14.051  20.378  0.00  0.00    +0.000 A 
ATOM     10  C   UNL     1       0.967  13.941  21.438  0.00  0.00    +0.000 A 
ATOM     11  O   UNL     1       1.104  14.569  22.486  0.00  0.00    +0.000 OA
ATOM     12  N   UNL     1      -0.173  13.173  21.144  0.00  0.00    +0.000 N 
ENDROOT
BRANCH  12  13
ATOM     13  C   UNL     1      -1.172  13.112  22.165  0.00  0.00    +0.000 A 
ATOM     14  C   UNL     1      -1.886  14.259  22.535  0.00  0.00    +0.000 A 
ATOM     15  C   UNL     1      -2.958  14.172  23.423  0.00  0.00    +0.000 A 
ATOM     16  C   UNL     1      -3.281  12.944  23.982  0.00  0.00    +0.000 A 
ATOM     17  F   UNL     1      -4.340  12.849  24.795  0.00  0.00    +0.000 F 
ATOM     18  C   UNL     1      -2.525  11.812  23.705  0.00  0.00    +0.000 A 
ATOM     19  C   UNL     1      -1.460  11.896  22.804  0.00  0.00    +0.000 A 
ENDBRANCH  12  13
BRANCH   1  21
ATOM     20  C   UNL     1      -1.314  10.571  18.625  0.00  0.00    +0.000 C 
ATOM     21  C   UNL     1      -1.617  11.714  19.592  0.00  0.00    +0.000 C 
BRANCH  21  22
ATOM     22  N   UNL     1      -2.679  12.534  18.983  0.00  0.00    +0.000 N 
ATOM     23  H   UNL     1      -2.398  13.492  18.784  0.00  0.00    +0.000 HD
BRANCH  22  24
ATOM     24  C   UNL     1      -4.013  12.295  19.297  0.00  0.00    +0.000 A 
ATOM     25  N   UNL     1      -4.423  12.560  20.550  0.00  0.00    +0.000 NA
ATOM     26  C   UNL     1      -5.680  12.260  20.884  0.00  0.00    +0.000 A 
ATOM     27  N   UNL     1      -6.077  12.555  22.172  0.00  0.00    +0.000 N 
ATOM     28  N   UNL     1      -6.561  11.674  20.078  0.00  0.00    +0.000 NA
ATOM     29  C   UNL     1      -6.149  11.402  18.831  0.00  0.00    +0.000 A 
ATOM     30  N   UNL     1      -7.085  10.728  18.044  0.00  0.00    +0.000 N 
ATOM     31  C   UNL     1      -4.867  11.697  18.387  0.00  0.00    +0.000 A 
ATOM     32  H   UNL     1      -5.268  12.634  22.775  0.00  0.00    +0.000 HD
ATOM     33  H   UNL     1      -6.802  11.915  22.466  0.00  0.00    +0.000 HD
ATOM     34  H   UNL     1      -7.959  10.670  18.562  0.00  0.00    +0.000 HD
ATOM     35  H   UNL     1      -7.215  11.118  17.116  0.00  0.00    +0.000 HD
BRANCH  31  36
ATOM     36  C   UNL     1      -4.461  11.398  17.057  0.00  0.00    +0.000 C 
ATOM     37  N   UNL     1      -4.083  11.138  15.987  0.00  0.00    +0.000 NA
ENDBRANCH  31  36
ENDBRANCH  22  24
ENDBRANCH  21  22
ENDBRANCH   1  21
TORSDOF 5
ENDMDL
MODEL 9
REMARK VINA RESULT:      -6.7      3.732      6.583
REMARK  Name = 
REMARK  6 active torsions:
REMARK  status: ('A' for Active; 'I' for Inactive)
REMARK    1  A    between atoms: C_1  and  C_2
REMARK    2  A    between atoms: C_2  and  N_3
REMARK    3  A    between atoms: C_2  and  C_14
REMARK    4  A    between atoms: N_3  and  C_4
REMARK    5  A    between atoms: C_11  and  C_12
REMARK    6  A    between atoms: N_25  and  C_26
REMARK                            x       y       z     vdW  Elec       q    Type
REMARK                         _______ _______ _______ _____ _____    ______ ____
ROOT
ATOM      1  C   UNL     1      -0.756  13.266  19.562  0.00  0.00    +0.000 A 
ATOM      2  N   UNL     1      -0.710  14.416  18.956  0.00  0.00    +0.000 NA
ATOM      3  C   UNL     1       0.439  15.210  19.067  0.00  0.00    +0.000 A 
ATOM      4  C   UNL     1       0.460  16.418  18.358  0.00  0.00    +0.000 A 
ATOM      5  C   UNL     1       1.587  17.239  18.368  0.00  0.00    +0.000 A 
ATOM      6  C   UNL     1       2.715  16.845  19.079  0.00  0.00    +0.000 A 
ATOM      7  C   UNL     1       2.714  15.642  19.794  0.00  0.00    +0.000 A 
ATOM      8 CL   UNL     1       4.203  15.243  20.580  0.00  0.00    +0.000 Cl
ATOM      9  C   UNL     1       1.564  14.830  19.803  0.00  0.00    +0.000 A 
ATOM     10  C   UNL     1       1.440  13.579  20.585  0.00  0.00    +0.000 A 
ATOM     11  O   UNL     1       2.298  13.292  21.415  0.00  0.00    +0.000 OA
ATOM     12  N   UNL     1       0.274  12.818  20.386  0.00  0.00    +0.000 N 
ENDROOT
BRANCH  12  13
ATOM     13  C   UNL     1       0.152  11.635  21.180  0.00  0.00    +0.000 A 
ATOM     14  C   UNL     1      -0.569  11.652  22.381  0.00  0.00    +0.000 A 
ATOM     15  C   UNL     1      -0.811  10.469  23.079  0.00  0.00    +0.000 A 
ATOM     16  C   UNL     1      -0.287   9.277  22.603  0.00  0.00    +0.000 A 
ATOM     17  F   UNL     1      -0.560   8.134  23.244  0.00  0.00    +0.000 F 
ATOM     18  C   UNL     1       0.513   9.252  21.466  0.00  0.00    +0.000 A 
ATOM     19  C   UNL     1       0.745  10.434  20.759  0.00  0.00    +0.000 A 
ENDBRANCH  12  13
BRANCH   1  21
ATOM     20  C   UNL     1      -1.997  11.686  17.942  0.00  0.00    +0.000 C 
ATOM     21  C   UNL     1      -2.019  12.374  19.306  0.00  0.00    +0.000 C 
BRANCH  21  22
ATOM     22  N   UNL     1      -3.225  13.219  19.351  0.00  0.00    +0.000 N 
ATOM     23  H   UNL     1      -3.037  14.214  19.253  0.00  0.00    +0.000 HD
BRANCH  22  24
ATOM     24  C   UNL     1      -4.321  12.833  20.117  0.00  0.00    +0.000 A 
ATOM     25  N   UNL     1      -4.214  12.915  21.456  0.00  0.00    +0.000 NA
ATOM     26  C   UNL     1      -5.229  12.473  22.202  0.00  0.00    +0.000 A 
ATOM     27  N   UNL     1      -5.097  12.582  23.571  0.00  0.00    +0.000 N 
ATOM     28  N   UNL     1      -6.335  11.911  21.724  0.00  0.00    +0.000 NA
ATOM     29  C   UNL     1      -6.437  11.820  20.390  0.00  0.00    +0.000 A 
ATOM     30  N   UNL     1      -7.584  11.165  19.938  0.00  0.00    +0.000 N 
ATOM     31  C   UNL     1      -5.443  12.272  19.532  0.00  0.00    +0.000 A 
ATOM     32  H   UNL     1      -4.120  12.661  23.821  0.00  0.00    +0.000 HD
ATOM     33  H   UNL     1      -5.626  11.854  24.029  0.00  0.00    +0.000 HD
ATOM     34  H   UNL     1      -8.182  10.973  20.739  0.00  0.00    +0.000 HD
ATOM     35  H   UNL     1      -8.080  11.647  19.196  0.00  0.00    +0.000 HD
BRANCH  31  36
ATOM     36  C   UNL     1      -5.582  12.165  18.121  0.00  0.00    +0.000 C 
ATOM     37  N   UNL     1      -5.698  12.129  16.964  0.00  0.00    +0.000 NA
ENDBRANCH  31  36
ENDBRANCH  22  24
ENDBRANCH  21  22
ENDBRANCH   1  21
TORSDOF 5
ENDMDL
