MODEL 1
REMARK VINA RESULT:      -6.8      0.000      0.000
REMARK  Name = 
REMARK  13 active torsions:
REMARK  status: ('A' for Active; 'I' for Inactive)
REMARK    1  A    between atoms: C_1  and  C_2
REMARK    2  A    between atoms: C_2  and  O_3
REMARK    3  A    between atoms: O_3  and  C_4
REMARK    4  A    between atoms: C_4  and  C_6
REMARK    5  A    between atoms: C_7  and  C_8
REMARK    6  A    between atoms: C_14  and  C_15
REMARK    7  A    between atoms: N_21  and  C_22
REMARK    8  A    between atoms: C_22  and  C_23
REMARK    9  A    between atoms: C_23  and  C_24
REMARK   10  A    between atoms: C_26  and  O_27
REMARK   11  A    between atoms: C_32  and  C_33
REMARK   12  A    between atoms: C_33  and  C_34
REMARK   13  A    between atoms: C_33  and  C_35
REMARK                            x       y       z     vdW  Elec       q    Type
REMARK                         _______ _______ _______ _____ _____    ______ ____
ROOT
ATOM      1  C   UNL     1      -5.455  11.917  19.572  0.00  0.00    +0.000 A 
ATOM      2  C   UNL     1      -5.135  12.802  20.671  0.00  0.00    +0.000 A 
ATOM      3  C   UNL     1      -3.762  13.091  20.609  0.00  0.00    +0.000 A 
ATOM      4  N   UNL     1      -3.249  12.366  19.516  0.00  0.00    +0.000 N 
ATOM      5  C   UNL     1      -4.250  11.594  18.921  0.00  0.00    +0.000 A 
ENDROOT
BRANCH   2   6
ATOM      6  C   UNL     1      -6.052  13.310  21.713  0.00  0.00    +0.000 A 
ATOM      7  C   UNL     1      -6.850  14.444  21.476  0.00  0.00    +0.000 A 
ATOM      8  C   UNL     1      -7.756  14.909  22.438  0.00  0.00    +0.000 A 
ATOM      9  C   UNL     1      -7.915  14.221  23.637  0.00  0.00    +0.000 A 
ATOM     10  C   UNL     1      -7.141  13.092  23.888  0.00  0.00    +0.000 A 
ATOM     11  C   UNL     1      -6.193  12.666  22.951  0.00  0.00    +0.000 A 
ENDBRANCH   2   6
BRANCH   3  12
ATOM     12  C   UNL     1      -2.920  13.919  21.531  0.00  0.00    +0.000 A 
ATOM     13  C   UNL     1      -2.503  15.208  21.162  0.00  0.00    +0.000 A 
ATOM     14  C   UNL     1      -1.746  16.007  22.028  0.00  0.00    +0.000 A 
ATOM     15  C   UNL     1      -1.464  15.568  23.317  0.00  0.00    +0.000 A 
ATOM     16  C   UNL     1      -1.873  14.299  23.711  0.00  0.00    +0.000 A 
ATOM     17  C   UNL     1      -2.534  13.465  22.802  0.00  0.00    +0.000 A 
ENDBRANCH   3  12
BRANCH   5  18
ATOM     18  C   UNL     1      -4.090  10.670  17.706  0.00  0.00    +0.000 C 
ATOM     19  C   UNL     1      -4.249  11.460  16.408  0.00  0.00    +0.000 C 
ATOM     20  C   UNL     1      -2.872   9.742  17.651  0.00  0.00    +0.000 C 
ENDBRANCH   5  18
BRANCH   1  21
ATOM     21  C   UNL     1      -6.821  11.488  19.196  0.00  0.00    +0.000 C 
ATOM     22  O   UNL     1      -7.407  11.901  18.201  0.00  0.00    +0.000 OA
BRANCH  21  23
ATOM     23  O   UNL     1      -7.382  10.592  20.061  0.00  0.00    +0.000 OA
BRANCH  23  25
ATOM     24  C   UNL     1      -7.773   8.325  20.867  0.00  0.00    +0.000 C 
ATOM     25  C   UNL     1      -7.161   9.200  19.786  0.00  0.00    +0.000 C 
ENDBRANCH  23  25
ENDBRANCH  21  23
ENDBRANCH   1  21
BRANCH   4  26
ATOM     26  C   UNL     1      -1.847  12.424  19.087  0.00  0.00    +0.000 C 
BRANCH  26  27
ATOM     27  C   UNL     1      -0.865  12.081  20.209  0.00  0.00    +0.000 C 
BRANCH  27  28
ATOM     28  C   UNL     1      -0.614  10.583  20.415  0.00  0.00    +0.000 C 
ATOM     29  C   UNL     1      -0.177  10.353  21.850  0.00  0.00    +0.000 C 
ATOM     30  C   UNL     1       0.259   8.921  22.040  0.00  0.00    +0.000 C 
ATOM     31  C   UNL     1       1.385   8.573  21.091  0.00  0.00    +0.000 C 
ATOM     32  C   UNL     1       1.215   9.082  19.685  0.00  0.00    +0.000 C 
ATOM     33  O   UNL     1       1.880   8.624  18.762  0.00  0.00    +0.000 OA
ATOM     34  O   UNL     1       0.384  10.134  19.473  0.00  0.00    +0.000 OA
BRANCH  30  35
ATOM     35  O   UNL     1      -0.850   8.036  21.905  0.00  0.00    +0.000 OA
ATOM     36  H   UNL     1      -1.127   7.982  20.974  0.00  0.00    +0.000 HD
ENDBRANCH  30  35
ENDBRANCH  27  28
ENDBRANCH  26  27
ENDBRANCH   4  26
TORSDOF 10
ENDMDL
MODEL 2
REMARK VINA RESULT:      -6.6      0.686      1.218
REMARK  Name = 
REMARK  13 active torsions:
REMARK  status: ('A' for Active; 'I' for Inactive)
REMARK    1  A    between atoms: C_1  and  C_2
REMARK    2  A    between atoms: C_2  and  O_3
REMARK    3  A    between atoms: O_3  and  C_4
REMARK    4  A    between atoms: C_4  and  C_6
REMARK    5  A    between atoms: C_7  and  C_8
REMARK    6  A    between atoms: C_14  and  C_15
REMARK    7  A    between atoms: N_21  and  C_22
REMARK    8  A    between atoms: C_22  and  C_23
REMARK    9  A    between atoms: C_23  and  C_24
REMARK   10  A    between atoms: C_26  and  O_27
REMARK   11  A    between atoms: C_32  and  C_33
REMARK   12  A    between atoms: C_33  and  C_34
REMARK   13  A    between atoms: C_33  and  C_35
REMARK                            x       y       z     vdW  Elec       q    Type
REMARK                         _______ _______ _______ _____ _____    ______ ____
ROOT
ATOM      1  C   UNL     1      -4.697  12.155  19.388  0.00  0.00    +0.000 A 
ATOM      2  C   UNL     1      -4.448  12.946  20.572  0.00  0.00    +0.000 A 
ATOM      3  C   UNL     1      -3.078  13.251  20.610  0.00  0.00    +0.000 A 
ATOM      4  N   UNL     1      -2.498  12.626  19.490  0.00  0.00    +0.000 N 
ATOM      5  C   UNL     1      -3.455  11.898  18.779  0.00  0.00    +0.000 A 
ENDROOT
BRANCH   2   6
ATOM      6  C   UNL     1      -5.427  13.357  21.602  0.00  0.00    +0.000 A 
ATOM      7  C   UNL     1      -5.591  12.604  22.778  0.00  0.00    +0.000 A 
ATOM      8  C   UNL     1      -6.483  13.007  23.780  0.00  0.00    +0.000 A 
ATOM      9  C   UNL     1      -7.192  14.197  23.647  0.00  0.00    +0.000 A 
ATOM     10  C   UNL     1      -7.039  14.961  22.494  0.00  0.00    +0.000 A 
ATOM     11  C   UNL     1      -6.194  14.524  21.467  0.00  0.00    +0.000 A 
ENDBRANCH   2   6
BRANCH   3  12
ATOM     12  C   UNL     1      -2.298  14.006  21.642  0.00  0.00    +0.000 A 
ATOM     13  C   UNL     1      -1.889  15.330  21.411  0.00  0.00    +0.000 A 
ATOM     14  C   UNL     1      -1.190  16.059  22.381  0.00  0.00    +0.000 A 
ATOM     15  C   UNL     1      -0.962  15.510  23.638  0.00  0.00    +0.000 A 
ATOM     16  C   UNL     1      -1.364  14.205  23.897  0.00  0.00    +0.000 A 
ATOM     17  C   UNL     1      -1.964  13.446  22.886  0.00  0.00    +0.000 A 
ENDBRANCH   3  12
BRANCH   5  18
ATOM     18  C   UNL     1      -3.218  11.081  17.501  0.00  0.00    +0.000 C 
ATOM     19  C   UNL     1      -3.208   9.586  17.815  0.00  0.00    +0.000 C 
ATOM     20  C   UNL     1      -4.075  11.388  16.269  0.00  0.00    +0.000 C 
ENDBRANCH   5  18
BRANCH   1  21
ATOM     21  C   UNL     1      -6.036  11.746  18.903  0.00  0.00    +0.000 C 
ATOM     22  O   UNL     1      -6.785  12.495  18.285  0.00  0.00    +0.000 OA
BRANCH  21  23
ATOM     23  O   UNL     1      -6.371  10.459  19.211  0.00  0.00    +0.000 OA
BRANCH  23  25
ATOM     24  C   UNL     1      -7.570   8.797  20.532  0.00  0.00    +0.000 C 
ATOM     25  C   UNL     1      -7.329  10.273  20.264  0.00  0.00    +0.000 C 
ENDBRANCH  23  25
ENDBRANCH  21  23
ENDBRANCH   1  21
BRANCH   4  26
ATOM     26  C   UNL     1      -1.076  12.732  19.144  0.00  0.00    +0.000 C 
BRANCH  26  27
ATOM     27  C   UNL     1      -0.155  12.160  20.224  0.00  0.00    +0.000 C 
BRANCH  27  28
ATOM     28  C   UNL     1      -0.168  10.632  20.344  0.00  0.00    +0.000 C 
ATOM     29  C   UNL     1       0.218  10.250  21.761  0.00  0.00    +0.000 C 
ATOM     30  C   UNL     1       0.399   8.755  21.867  0.00  0.00    +0.000 C 
ATOM     31  C   UNL     1       1.452   8.272  20.893  0.00  0.00    +0.000 C 
ATOM     32  C   UNL     1       1.377   8.881  19.519  0.00  0.00    +0.000 C 
ATOM     33  O   UNL     1       1.955   8.368  18.567  0.00  0.00    +0.000 OA
ATOM     34  O   UNL     1       0.740  10.071  19.371  0.00  0.00    +0.000 OA
BRANCH  30  35
ATOM     35  O   UNL     1      -0.845   8.084  21.690  0.00  0.00    +0.000 OA
ATOM     36  H   UNL     1      -0.826   7.216  22.128  0.00  0.00    +0.000 HD
ENDBRANCH  30  35
ENDBRANCH  27  28
ENDBRANCH  26  27
ENDBRANCH   4  26
TORSDOF 10
ENDMDL
MODEL 3
REMARK VINA RESULT:      -6.6      2.782      6.153
REMARK  Name = 
REMARK  13 active torsions:
REMARK  status: ('A' for Active; 'I' for Inactive)
REMARK    1  A    between atoms: C_1  and  C_2
REMARK    2  A    between atoms: C_2  and  O_3
REMARK    3  A    between atoms: O_3  and  C_4
REMARK    4  A    between atoms: C_4  and  C_6
REMARK    5  A    between atoms: C_7  and  C_8
REMARK    6  A    between atoms: C_14  and  C_15
REMARK    7  A    between atoms: N_21  and  C_22
REMARK    8  A    between atoms: C_22  and  C_23
REMARK    9  A    between atoms: C_23  and  C_24
REMARK   10  A    between atoms: C_26  and  O_27
REMARK   11  A    between atoms: C_32  and  C_33
REMARK   12  A    between atoms: C_33  and  C_34
REMARK   13  A    between atoms: C_33  and  C_35
REMARK                            x       y       z     vdW  Elec       q    Type
REMARK                         _______ _______ _______ _____ _____    ______ ____
ROOT
ATOM      1  C   UNL     1      -5.246  12.175  19.368  0.00  0.00    +0.000 A 
ATOM      2  C   UNL     1      -3.953  11.822  18.825  0.00  0.00    +0.000 A 
ATOM      3  C   UNL     1      -2.966  12.356  19.671  0.00  0.00    +0.000 A 
ATOM      4  N   UNL     1      -3.647  13.053  20.689  0.00  0.00    +0.000 N 
ATOM      5  C   UNL     1      -5.027  13.011  20.479  0.00  0.00    +0.000 A 
ENDROOT
BRANCH   2   6
ATOM      6  C   UNL     1      -3.674  11.063  17.587  0.00  0.00    +0.000 A 
ATOM      7  C   UNL     1      -4.166  11.506  16.347  0.00  0.00    +0.000 A 
ATOM      8  C   UNL     1      -3.872  10.820  15.161  0.00  0.00    +0.000 A 
ATOM      9  C   UNL     1      -3.040   9.705  15.188  0.00  0.00    +0.000 A 
ATOM     10  C   UNL     1      -2.536   9.254  16.404  0.00  0.00    +0.000 A 
ATOM     11  C   UNL     1      -2.881   9.905  17.595  0.00  0.00    +0.000 A 
ENDBRANCH   2   6
BRANCH   3  12
ATOM     12  C   UNL     1      -1.475  12.316  19.540  0.00  0.00    +0.000 A 
ATOM     13  C   UNL     1      -0.795  13.263  18.757  0.00  0.00    +0.000 A 
ATOM     14  C   UNL     1       0.602  13.260  18.655  0.00  0.00    +0.000 A 
ATOM     15  C   UNL     1       1.355  12.363  19.405  0.00  0.00    +0.000 A 
ATOM     16  C   UNL     1       0.707  11.420  20.195  0.00  0.00    +0.000 A 
ATOM     17  C   UNL     1      -0.691  11.361  20.206  0.00  0.00    +0.000 A 
ENDBRANCH   3  12
BRANCH   5  18
ATOM     18  C   UNL     1      -6.105  13.649  21.366  0.00  0.00    +0.000 C 
ATOM     19  C   UNL     1      -6.956  14.626  20.556  0.00  0.00    +0.000 C 
ATOM     20  C   UNL     1      -6.976  12.731  22.229  0.00  0.00    +0.000 C 
ENDBRANCH   5  18
BRANCH   1  21
ATOM     21  C   UNL     1      -6.546  11.686  18.856  0.00  0.00    +0.000 C 
ATOM     22  O   UNL     1      -7.035  12.060  17.795  0.00  0.00    +0.000 OA
BRANCH  21  23
ATOM     23  O   UNL     1      -7.165  10.785  19.673  0.00  0.00    +0.000 OA
BRANCH  23  25
ATOM     24  C   UNL     1      -7.541   8.504  20.449  0.00  0.00    +0.000 C 
ATOM     25  C   UNL     1      -7.018   9.396  19.336  0.00  0.00    +0.000 C 
ENDBRANCH  23  25
ENDBRANCH  21  23
ENDBRANCH   1  21
BRANCH   4  26
ATOM     26  C   UNL     1      -2.972  13.730  21.802  0.00  0.00    +0.000 C 
BRANCH  26  27
ATOM     27  C   UNL     1      -3.480  13.276  23.172  0.00  0.00    +0.000 C 
BRANCH  27  28
ATOM     28  C   UNL     1      -3.669  14.400  24.197  0.00  0.00    +0.000 C 
ATOM     29  C   UNL     1      -3.971  15.690  23.456  0.00  0.00    +0.000 C 
ATOM     30  C   UNL     1      -3.977  16.855  24.417  0.00  0.00    +0.000 C 
ATOM     31  C   UNL     1      -2.649  16.965  25.134  0.00  0.00    +0.000 C 
ATOM     32  C   UNL     1      -2.068  15.659  25.606  0.00  0.00    +0.000 C 
ATOM     33  O   UNL     1      -1.178  15.630  26.449  0.00  0.00    +0.000 OA
ATOM     34  O   UNL     1      -2.477  14.513  25.004  0.00  0.00    +0.000 OA
BRANCH  30  35
ATOM     35  O   UNL     1      -5.071  16.751  25.325  0.00  0.00    +0.000 OA
ATOM     36  H   UNL     1      -5.560  17.591  25.361  0.00  0.00    +0.000 HD
ENDBRANCH  30  35
ENDBRANCH  27  28
ENDBRANCH  26  27
ENDBRANCH   4  26
TORSDOF 10
ENDMDL
MODEL 4
REMARK VINA RESULT:      -6.6      1.411      2.265
REMARK  Name = 
REMARK  13 active torsions:
REMARK  status: ('A' for Active; 'I' for Inactive)
REMARK    1  A    between atoms: C_1  and  C_2
REMARK    2  A    between atoms: C_2  and  O_3
REMARK    3  A    between atoms: O_3  and  C_4
REMARK    4  A    between atoms: C_4  and  C_6
REMARK    5  A    between atoms: C_7  and  C_8
REMARK    6  A    between atoms: C_14  and  C_15
REMARK    7  A    between atoms: N_21  and  C_22
REMARK    8  A    between atoms: C_22  and  C_23
REMARK    9  A    between atoms: C_23  and  C_24
REMARK   10  A    between atoms: C_26  and  O_27
REMARK   11  A    between atoms: C_32  and  C_33
REMARK   12  A    between atoms: C_33  and  C_34
REMARK   13  A    between atoms: C_33  and  C_35
REMARK                            x       y       z     vdW  Elec       q    Type
REMARK                         _______ _______ _______ _____ _____    ______ ____
ROOT
ATOM      1  C   UNL     1      -4.641  11.988  18.791  0.00  0.00    +0.000 A 
ATOM      2  C   UNL     1      -4.565  12.749  20.019  0.00  0.00    +0.000 A 
ATOM      3  C   UNL     1      -3.210  12.987  20.299  0.00  0.00    +0.000 A 
ATOM      4  N   UNL     1      -2.473  12.350  19.281  0.00  0.00    +0.000 N 
ATOM      5  C   UNL     1      -3.325  11.681  18.399  0.00  0.00    +0.000 A 
ENDROOT
BRANCH   2   6
ATOM      6  C   UNL     1      -5.688  13.192  20.874  0.00  0.00    +0.000 A 
ATOM      7  C   UNL     1      -6.059  14.548  20.926  0.00  0.00    +0.000 A 
ATOM      8  C   UNL     1      -7.148  14.973  21.697  0.00  0.00    +0.000 A 
ATOM      9  C   UNL     1      -7.917  14.045  22.392  0.00  0.00    +0.000 A 
ATOM     10  C   UNL     1      -7.571  12.697  22.348  0.00  0.00    +0.000 A 
ATOM     11  C   UNL     1      -6.445  12.283  21.627  0.00  0.00    +0.000 A 
ENDBRANCH   2   6
BRANCH   3  12
ATOM     12  C   UNL     1      -2.586  13.687  21.466  0.00  0.00    +0.000 A 
ATOM     13  C   UNL     1      -2.450  13.041  22.706  0.00  0.00    +0.000 A 
ATOM     14  C   UNL     1      -1.837  13.670  23.796  0.00  0.00    +0.000 A 
ATOM     15  C   UNL     1      -1.265  14.929  23.644  0.00  0.00    +0.000 A 
ATOM     16  C   UNL     1      -1.377  15.588  22.426  0.00  0.00    +0.000 A 
ATOM     17  C   UNL     1      -2.087  14.997  21.375  0.00  0.00    +0.000 A 
ENDBRANCH   3  12
BRANCH   5  18
ATOM     18  C   UNL     1      -2.908  10.872  17.163  0.00  0.00    +0.000 C 
ATOM     19  C   UNL     1      -3.286   9.402  17.332  0.00  0.00    +0.000 C 
ATOM     20  C   UNL     1      -3.306  11.397  15.780  0.00  0.00    +0.000 C 
ENDBRANCH   5  18
BRANCH   1  21
ATOM     21  C   UNL     1      -5.893  11.653  18.074  0.00  0.00    +0.000 C 
ATOM     22  O   UNL     1      -6.589  10.682  18.353  0.00  0.00    +0.000 OA
BRANCH  21  23
ATOM     23  O   UNL     1      -6.205  12.515  17.063  0.00  0.00    +0.000 OA
BRANCH  23  25
ATOM     24  C   UNL     1      -7.378  14.486  16.236  0.00  0.00    +0.000 C 
ATOM     25  C   UNL     1      -6.786  13.773  17.440  0.00  0.00    +0.000 C 
ENDBRANCH  23  25
ENDBRANCH  21  23
ENDBRANCH   1  21
BRANCH   4  26
ATOM     26  C   UNL     1      -1.010  12.393  19.187  0.00  0.00    +0.000 C 
BRANCH  26  27
ATOM     27  C   UNL     1      -0.381  11.006  19.030  0.00  0.00    +0.000 C 
BRANCH  27  28
ATOM     28  C   UNL     1      -0.393  10.143  20.296  0.00  0.00    +0.000 C 
ATOM     29  C   UNL     1       0.079  10.986  21.467  0.00  0.00    +0.000 C 
ATOM     30  C   UNL     1       0.260  10.123  22.692  0.00  0.00    +0.000 C 
ATOM     31  C   UNL     1       1.248   9.008  22.422  0.00  0.00    +0.000 C 
ATOM     32  C   UNL     1       1.090   8.325  21.090  0.00  0.00    +0.000 C 
ATOM     33  O   UNL     1       1.606   7.234  20.874  0.00  0.00    +0.000 OA
ATOM     34  O   UNL     1       0.451   8.989  20.093  0.00  0.00    +0.000 OA
BRANCH  30  35
ATOM     35  O   UNL     1      -0.996   9.628  23.149  0.00  0.00    +0.000 OA
ATOM     36  H   UNL     1      -1.259   8.848  22.632  0.00  0.00    +0.000 HD
ENDBRANCH  30  35
ENDBRANCH  27  28
ENDBRANCH  26  27
ENDBRANCH   4  26
TORSDOF 10
ENDMDL
MODEL 5
REMARK VINA RESULT:      -6.6      2.945      6.383
REMARK  Name = 
REMARK  13 active torsions:
REMARK  status: ('A' for Active; 'I' for Inactive)
REMARK    1  A    between atoms: C_1  and  C_2
REMARK    2  A    between atoms: C_2  and  O_3
REMARK    3  A    between atoms: O_3  and  C_4
REMARK    4  A    between atoms: C_4  and  C_6
REMARK    5  A    between atoms: C_7  and  C_8
REMARK    6  A    between atoms: C_14  and  C_15
REMARK    7  A    between atoms: N_21  and  C_22
REMARK    8  A    between atoms: C_22  and  C_23
REMARK    9  A    between atoms: C_23  and  C_24
REMARK   10  A    between atoms: C_26  and  O_27
REMARK   11  A    between atoms: C_32  and  C_33
REMARK   12  A    between atoms: C_33  and  C_34
REMARK   13  A    between atoms: C_33  and  C_35
REMARK                            x       y       z     vdW  Elec       q    Type
REMARK                         _______ _______ _______ _____ _____    ______ ____
ROOT
ATOM      1  C   UNL     1      -3.659  11.570  18.542  0.00  0.00    +0.000 A 
ATOM      2  C   UNL     1      -2.497  12.101  19.221  0.00  0.00    +0.000 A 
ATOM      3  C   UNL     1      -2.942  12.999  20.205  0.00  0.00    +0.000 A 
ATOM      4  N   UNL     1      -4.346  13.042  20.102  0.00  0.00    +0.000 N 
ATOM      5  C   UNL     1      -4.790  12.235  19.052  0.00  0.00    +0.000 A 
ENDROOT
BRANCH   2   6
ATOM      6  C   UNL     1      -1.077  11.802  18.939  0.00  0.00    +0.000 A 
ATOM      7  C   UNL     1      -0.197  12.819  18.527  0.00  0.00    +0.000 A 
ATOM      8  C   UNL     1       1.160  12.558  18.300  0.00  0.00    +0.000 A 
ATOM      9  C   UNL     1       1.674  11.285  18.528  0.00  0.00    +0.000 A 
ATOM     10  C   UNL     1       0.822  10.266  18.944  0.00  0.00    +0.000 A 
ATOM     11  C   UNL     1      -0.546  10.515  19.110  0.00  0.00    +0.000 A 
ENDBRANCH   2   6
BRANCH   3  12
ATOM     12  C   UNL     1      -2.148  13.845  21.151  0.00  0.00    +0.000 A 
ATOM     13  C   UNL     1      -1.495  13.273  22.255  0.00  0.00    +0.000 A 
ATOM     14  C   UNL     1      -0.720  14.047  23.128  0.00  0.00    +0.000 A 
ATOM     15  C   UNL     1      -0.509  15.396  22.864  0.00  0.00    +0.000 A 
ATOM     16  C   UNL     1      -1.136  15.986  21.774  0.00  0.00    +0.000 A 
ATOM     17  C   UNL     1      -1.996  15.230  20.970  0.00  0.00    +0.000 A 
ENDBRANCH   3  12
BRANCH   5  18
ATOM     18  C   UNL     1      -6.247  12.016  18.621  0.00  0.00    +0.000 C 
ATOM     19  C   UNL     1      -6.514  12.686  17.274  0.00  0.00    +0.000 C 
ATOM     20  C   UNL     1      -6.813  10.593  18.660  0.00  0.00    +0.000 C 
ENDBRANCH   5  18
BRANCH   1  21
ATOM     21  C   UNL     1      -3.634  10.487  17.533  0.00  0.00    +0.000 C 
ATOM     22  O   UNL     1      -3.516   9.301  17.822  0.00  0.00    +0.000 OA
BRANCH  21  23
ATOM     23  O   UNL     1      -3.746  10.922  16.244  0.00  0.00    +0.000 OA
BRANCH  23  25
ATOM     24  C   UNL     1      -3.420  10.020  14.003  0.00  0.00    +0.000 C 
ATOM     25  C   UNL     1      -2.769  10.440  15.310  0.00  0.00    +0.000 C 
ENDBRANCH  23  25
ENDBRANCH  21  23
ENDBRANCH   1  21
BRANCH   4  26
ATOM     26  C   UNL     1      -5.202  13.841  20.986  0.00  0.00    +0.000 C 
BRANCH  26  27
ATOM     27  C   UNL     1      -5.193  13.347  22.434  0.00  0.00    +0.000 C 
BRANCH  27  28
ATOM     28  C   UNL     1      -5.150  14.452  23.495  0.00  0.00    +0.000 C 
ATOM     29  C   UNL     1      -5.012  15.793  22.798  0.00  0.00    +0.000 C 
ATOM     30  C   UNL     1      -4.778  16.886  23.811  0.00  0.00    +0.000 C 
ATOM     31  C   UNL     1      -3.541  16.599  24.634  0.00  0.00    +0.000 C 
ATOM     32  C   UNL     1      -3.393  15.170  25.085  0.00  0.00    +0.000 C 
ATOM     33  O   UNL     1      -2.624  14.870  25.992  0.00  0.00    +0.000 OA
ATOM     34  O   UNL     1      -4.051  14.202  24.398  0.00  0.00    +0.000 OA
BRANCH  30  35
ATOM     35  O   UNL     1      -5.933  17.074  24.625  0.00  0.00    +0.000 OA
ATOM     36  H   UNL     1      -6.017  18.007  24.881  0.00  0.00    +0.000 HD
ENDBRANCH  30  35
ENDBRANCH  27  28
ENDBRANCH  26  27
ENDBRANCH   4  26
TORSDOF 10
ENDMDL
MODEL 6
REMARK VINA RESULT:      -6.5      0.848      1.442
REMARK  Name = 
REMARK  13 active torsions:
REMARK  status: ('A' for Active; 'I' for Inactive)
REMARK    1  A    between atoms: C_1  and  C_2
REMARK    2  A    between atoms: C_2  and  O_3
REMARK    3  A    between atoms: O_3  and  C_4
REMARK    4  A    between atoms: C_4  and  C_6
REMARK    5  A    between atoms: C_7  and  C_8
REMARK    6  A    between atoms: C_14  and  C_15
REMARK    7  A    between atoms: N_21  and  C_22
REMARK    8  A    between atoms: C_22  and  C_23
REMARK    9  A    between atoms: C_23  and  C_24
REMARK   10  A    between atoms: C_26  and  O_27
REMARK   11  A    between atoms: C_32  and  C_33
REMARK   12  A    between atoms: C_33  and  C_34
REMARK   13  A    between atoms: C_33  and  C_35
REMARK                            x       y       z     vdW  Elec       q    Type
REMARK                         _______ _______ _______ _____ _____    ______ ____
ROOT
ATOM      1  C   UNL     1      -4.689  11.870  19.123  0.00  0.00    +0.000 A 
ATOM      2  C   UNL     1      -4.347  12.779  20.195  0.00  0.00    +0.000 A 
ATOM      3  C   UNL     1      -2.974  13.060  20.104  0.00  0.00    +0.000 A 
ATOM      4  N   UNL     1      -2.483  12.307  19.020  0.00  0.00    +0.000 N 
ATOM      5  C   UNL     1      -3.497  11.526  18.460  0.00  0.00    +0.000 A 
ENDROOT
BRANCH   2   6
ATOM      6  C   UNL     1      -5.245  13.316  21.240  0.00  0.00    +0.000 A 
ATOM      7  C   UNL     1      -5.336  12.694  22.498  0.00  0.00    +0.000 A 
ATOM      8  C   UNL     1      -6.150  13.219  23.510  0.00  0.00    +0.000 A 
ATOM      9  C   UNL     1      -6.849  14.403  23.300  0.00  0.00    +0.000 A 
ATOM     10  C   UNL     1      -6.767  15.039  22.065  0.00  0.00    +0.000 A 
ATOM     11  C   UNL     1      -6.003  14.479  21.035  0.00  0.00    +0.000 A 
ENDBRANCH   2   6
BRANCH   3  12
ATOM     12  C   UNL     1      -2.114  13.906  20.991  0.00  0.00    +0.000 A 
ATOM     13  C   UNL     1      -1.711  13.445  22.255  0.00  0.00    +0.000 A 
ATOM     14  C   UNL     1      -0.877  14.210  23.080  0.00  0.00    +0.000 A 
ATOM     15  C   UNL     1      -0.354  15.414  22.621  0.00  0.00    +0.000 A 
ATOM     16  C   UNL     1      -0.729  15.889  21.369  0.00  0.00    +0.000 A 
ATOM     17  C   UNL     1      -1.649  15.171  20.597  0.00  0.00    +0.000 A 
ENDBRANCH   3  12
BRANCH   5  18
ATOM     18  C   UNL     1      -3.361  10.572  17.265  0.00  0.00    +0.000 C 
ATOM     19  C   UNL     1      -3.650  11.307  15.958  0.00  0.00    +0.000 C 
ATOM     20  C   UNL     1      -2.097   9.714  17.157  0.00  0.00    +0.000 C 
ENDBRANCH   5  18
BRANCH   1  21
ATOM     21  C   UNL     1      -6.063  11.437  18.780  0.00  0.00    +0.000 C 
ATOM     22  O   UNL     1      -6.630  11.757  17.741  0.00  0.00    +0.000 OA
BRANCH  21  23
ATOM     23  O   UNL     1      -6.655  10.654  19.729  0.00  0.00    +0.000 OA
BRANCH  23  25
ATOM     24  C   UNL     1      -7.582   8.539  20.513  0.00  0.00    +0.000 C 
ATOM     25  C   UNL     1      -6.986   9.310  19.347  0.00  0.00    +0.000 C 
ENDBRANCH  23  25
ENDBRANCH  21  23
ENDBRANCH   1  21
BRANCH   4  26
ATOM     26  C   UNL     1      -1.088  12.348  18.566  0.00  0.00    +0.000 C 
BRANCH  26  27
ATOM     27  C   UNL     1      -0.093  11.950  19.659  0.00  0.00    +0.000 C 
BRANCH  27  28
ATOM     28  C   UNL     1      -0.109  10.465  20.039  0.00  0.00    +0.000 C 
ATOM     29  C   UNL     1       0.173  10.339  21.525  0.00  0.00    +0.000 C 
ATOM     30  C   UNL     1       0.351   8.888  21.901  0.00  0.00    +0.000 C 
ATOM     31  C   UNL     1       1.474   8.261  21.103  0.00  0.00    +0.000 C 
ATOM     32  C   UNL     1       1.498   8.624  19.643  0.00  0.00    +0.000 C 
ATOM     33  O   UNL     1       2.146   7.963  18.838  0.00  0.00    +0.000 OA
ATOM     34  O   UNL     1       0.870   9.760  19.246  0.00  0.00    +0.000 OA
BRANCH  30  35
ATOM     35  O   UNL     1      -0.875   8.177  21.754  0.00  0.00    +0.000 OA
ATOM     36  H   UNL     1      -0.776   7.264  22.075  0.00  0.00    +0.000 HD
ENDBRANCH  30  35
ENDBRANCH  27  28
ENDBRANCH  26  27
ENDBRANCH   4  26
TORSDOF 10
ENDMDL
MODEL 7
REMARK VINA RESULT:      -6.5      1.292      1.901
REMARK  Name = 
REMARK  13 active torsions:
REMARK  status: ('A' for Active; 'I' for Inactive)
REMARK    1  A    between atoms: C_1  and  C_2
REMARK    2  A    between atoms: C_2  and  O_3
REMARK    3  A    between atoms: O_3  and  C_4
REMARK    4  A    between atoms: C_4  and  C_6
REMARK    5  A    between atoms: C_7  and  C_8
REMARK    6  A    between atoms: C_14  and  C_15
REMARK    7  A    between atoms: N_21  and  C_22
REMARK    8  A    between atoms: C_22  and  C_23
REMARK    9  A    between atoms: C_23  and  C_24
REMARK   10  A    between atoms: C_26  and  O_27
REMARK   11  A    between atoms: C_32  and  C_33
REMARK   12  A    between atoms: C_33  and  C_34
REMARK   13  A    between atoms: C_33  and  C_35
REMARK                            x       y       z     vdW  Elec       q    Type
REMARK                         _______ _______ _______ _____ _____    ______ ____
ROOT
ATOM      1  C   UNL     1      -4.394  11.976  18.879  0.00  0.00    +0.000 A 
ATOM      2  C   UNL     1      -4.362  12.849  20.032  0.00  0.00    +0.000 A 
ATOM      3  C   UNL     1      -3.028  13.226  20.254  0.00  0.00    +0.000 A 
ATOM      4  N   UNL     1      -2.258  12.565  19.278  0.00  0.00    +0.000 N 
ATOM      5  C   UNL     1      -3.064  11.748  18.482  0.00  0.00    +0.000 A 
ENDROOT
BRANCH   2   6
ATOM      6  C   UNL     1      -5.504  13.270  20.873  0.00  0.00    +0.000 A 
ATOM      7  C   UNL     1      -6.033  14.569  20.766  0.00  0.00    +0.000 A 
ATOM      8  C   UNL     1      -7.142  14.965  21.526  0.00  0.00    +0.000 A 
ATOM      9  C   UNL     1      -7.772  14.056  22.370  0.00  0.00    +0.000 A 
ATOM     10  C   UNL     1      -7.268  12.764  22.484  0.00  0.00    +0.000 A 
ATOM     11  C   UNL     1      -6.123  12.389  21.771  0.00  0.00    +0.000 A 
ENDBRANCH   2   6
BRANCH   3  12
ATOM     12  C   UNL     1      -2.447  14.081  21.338  0.00  0.00    +0.000 A 
ATOM     13  C   UNL     1      -2.140  15.432  21.104  0.00  0.00    +0.000 A 
ATOM     14  C   UNL     1      -1.630  16.252  22.118  0.00  0.00    +0.000 A 
ATOM     15  C   UNL     1      -1.499  15.761  23.413  0.00  0.00    +0.000 A 
ATOM     16  C   UNL     1      -1.804  14.431  23.674  0.00  0.00    +0.000 A 
ATOM     17  C   UNL     1      -2.209  13.590  22.632  0.00  0.00    +0.000 A 
ENDBRANCH   3  12
BRANCH   5  18
ATOM     18  C   UNL     1      -2.600  10.868  17.312  0.00  0.00    +0.000 C 
ATOM     19  C   UNL     1      -2.993   9.411  17.549  0.00  0.00    +0.000 C 
ATOM     20  C   UNL     1      -2.937  11.315  15.887  0.00  0.00    +0.000 C 
ENDBRANCH   5  18
BRANCH   1  21
ATOM     21  C   UNL     1      -5.624  11.470  18.228  0.00  0.00    +0.000 C 
ATOM     22  O   UNL     1      -6.211  10.457  18.592  0.00  0.00    +0.000 OA
BRANCH  21  23
ATOM     23  O   UNL     1      -6.049  12.228  17.175  0.00  0.00    +0.000 OA
BRANCH  23  25
ATOM     24  C   UNL     1      -6.856  14.528  17.123  0.00  0.00    +0.000 C 
ATOM     25  C   UNL     1      -7.189  13.072  17.402  0.00  0.00    +0.000 C 
ENDBRANCH  23  25
ENDBRANCH  21  23
ENDBRANCH   1  21
BRANCH   4  26
ATOM     26  C   UNL     1      -0.805  12.724  19.143  0.00  0.00    +0.000 C 
BRANCH  26  27
ATOM     27  C   UNL     1      -0.028  12.123  20.316  0.00  0.00    +0.000 C 
BRANCH  27  28
ATOM     28  C   UNL     1      -0.088  10.595  20.418  0.00  0.00    +0.000 C 
ATOM     29  C   UNL     1       0.261  10.186  21.837  0.00  0.00    +0.000 C 
ATOM     30  C   UNL     1       0.396   8.685  21.930  0.00  0.00    +0.000 C 
ATOM     31  C   UNL     1       1.452   8.182  20.969  0.00  0.00    +0.000 C 
ATOM     32  C   UNL     1       1.420   8.808  19.601  0.00  0.00    +0.000 C 
ATOM     33  O   UNL     1       2.000   8.288  18.654  0.00  0.00    +0.000 OA
ATOM     34  O   UNL     1       0.822  10.018  19.456  0.00  0.00    +0.000 OA
BRANCH  30  35
ATOM     35  O   UNL     1      -0.864   8.053  21.722  0.00  0.00    +0.000 OA
ATOM     36  H   UNL     1      -1.021   7.915  20.773  0.00  0.00    +0.000 HD
ENDBRANCH  30  35
ENDBRANCH  27  28
ENDBRANCH  26  27
ENDBRANCH   4  26
TORSDOF 10
ENDMDL
MODEL 8
REMARK VINA RESULT:      -6.5      2.926      6.463
REMARK  Name = 
REMARK  13 active torsions:
REMARK  status: ('A' for Active; 'I' for Inactive)
REMARK    1  A    between atoms: C_1  and  C_2
REMARK    2  A    between atoms: C_2  and  O_3
REMARK    3  A    between atoms: O_3  and  C_4
REMARK    4  A    between atoms: C_4  and  C_6
REMARK    5  A    between atoms: C_7  and  C_8
REMARK    6  A    between atoms: C_14  and  C_15
REMARK    7  A    between atoms: N_21  and  C_22
REMARK    8  A    between atoms: C_22  and  C_23
REMARK    9  A    between atoms: C_23  and  C_24
REMARK   10  A    between atoms: C_26  and  O_27
REMARK   11  A    between atoms: C_32  and  C_33
REMARK   12  A    between atoms: C_33  and  C_34
REMARK   13  A    between atoms: C_33  and  C_35
REMARK                            x       y       z     vdW  Elec       q    Type
REMARK                         _______ _______ _______ _____ _____    ______ ____
ROOT
ATOM      1  C   UNL     1      -5.286  12.036  19.287  0.00  0.00    +0.000 A 
ATOM      2  C   UNL     1      -3.946  11.800  18.795  0.00  0.00    +0.000 A 
ATOM      3  C   UNL     1      -3.043  12.386  19.697  0.00  0.00    +0.000 A 
ATOM      4  N   UNL     1      -3.820  13.000  20.699  0.00  0.00    +0.000 N 
ATOM      5  C   UNL     1      -5.183  12.857  20.425  0.00  0.00    +0.000 A 
ENDROOT
BRANCH   2   6
ATOM      6  C   UNL     1      -3.554  11.097  17.554  0.00  0.00    +0.000 A 
ATOM      7  C   UNL     1      -2.747   9.947  17.605  0.00  0.00    +0.000 A 
ATOM      8  C   UNL     1      -2.406   9.247  16.440  0.00  0.00    +0.000 A 
ATOM      9  C   UNL     1      -2.905   9.657  15.208  0.00  0.00    +0.000 A 
ATOM     10  C   UNL     1      -3.712  10.788  15.136  0.00  0.00    +0.000 A 
ATOM     11  C   UNL     1      -4.001  11.521  16.294  0.00  0.00    +0.000 A 
ENDBRANCH   2   6
BRANCH   3  12
ATOM     12  C   UNL     1      -1.549  12.465  19.634  0.00  0.00    +0.000 A 
ATOM     13  C   UNL     1      -0.749  11.559  20.349  0.00  0.00    +0.000 A 
ATOM     14  C   UNL     1       0.649  11.599  20.272  0.00  0.00    +0.000 A 
ATOM     15  C   UNL     1       1.275  12.489  19.406  0.00  0.00    +0.000 A 
ATOM     16  C   UNL     1       0.507  13.390  18.679  0.00  0.00    +0.000 A 
ATOM     17  C   UNL     1      -0.883  13.417  18.846  0.00  0.00    +0.000 A 
ENDBRANCH   3  12
BRANCH   5  18
ATOM     18  C   UNL     1      -6.346  13.385  21.276  0.00  0.00    +0.000 C 
ATOM     19  C   UNL     1      -6.970  14.618  20.625  0.00  0.00    +0.000 C 
ATOM     20  C   UNL     1      -7.417  12.395  21.741  0.00  0.00    +0.000 C 
ENDBRANCH   5  18
BRANCH   1  21
ATOM     21  C   UNL     1      -6.520  11.462  18.704  0.00  0.00    +0.000 C 
ATOM     22  O   UNL     1      -6.771  10.262  18.707  0.00  0.00    +0.000 OA
BRANCH  21  23
ATOM     23  O   UNL     1      -7.357  12.387  18.149  0.00  0.00    +0.000 OA
BRANCH  23  25
ATOM     24  C   UNL     1      -7.639  14.467  16.910  0.00  0.00    +0.000 C 
ATOM     25  C   UNL     1      -6.817  13.204  17.099  0.00  0.00    +0.000 C 
ENDBRANCH  23  25
ENDBRANCH  21  23
ENDBRANCH   1  21
BRANCH   4  26
ATOM     26  C   UNL     1      -3.251  13.697  21.857  0.00  0.00    +0.000 C 
BRANCH  26  27
ATOM     27  C   UNL     1      -3.924  13.312  23.176  0.00  0.00    +0.000 C 
BRANCH  27  28
ATOM     28  C   UNL     1      -3.981  14.429  24.224  0.00  0.00    +0.000 C 
ATOM     29  C   UNL     1      -4.245  15.747  23.519  0.00  0.00    +0.000 C 
ATOM     30  C   UNL     1      -4.121  16.894  24.493  0.00  0.00    +0.000 C 
ATOM     31  C   UNL     1      -2.748  16.910  25.130  0.00  0.00    +0.000 C 
ATOM     32  C   UNL     1      -2.223  15.564  25.549  0.00  0.00    +0.000 C 
ATOM     33  O   UNL     1      -1.288  15.467  26.336  0.00  0.00    +0.000 OA
ATOM     34  O   UNL     1      -2.738  14.455  24.959  0.00  0.00    +0.000 OA
BRANCH  30  35
ATOM     35  O   UNL     1      -5.163  16.843  25.464  0.00  0.00    +0.000 OA
ATOM     36  H   UNL     1      -5.082  17.587  26.084  0.00  0.00    +0.000 HD
ENDBRANCH  30  35
ENDBRANCH  27  28
ENDBRANCH  26  27
ENDBRANCH   4  26
TORSDOF 10
ENDMDL
MODEL 9
REMARK VINA RESULT:      -6.5      2.620      5.790
REMARK  Name = 
REMARK  13 active torsions:
REMARK  status: ('A' for Active; 'I' for Inactive)
REMARK    1  A    between atoms: C_1  and  C_2
REMARK    2  A    between atoms: C_2  and  O_3
REMARK    3  A    between atoms: O_3  and  C_4
REMARK    4  A    between atoms: C_4  and  C_6
REMARK    5  A    between atoms: C_7  and  C_8
REMARK    6  A    between atoms: C_14  and  C_15
REMARK    7  A    between atoms: N_21  and  C_22
REMARK    8  A    between atoms: C_22  and  C_23
REMARK    9  A    between atoms: C_23  and  C_24
REMARK   10  A    between atoms: C_26  and  O_27
REMARK   11  A    between atoms: C_32  and  C_33
REMARK   12  A    between atoms: C_33  and  C_34
REMARK   13  A    between atoms: C_33  and  C_35
REMARK                            x       y       z     vdW  Elec       q    Type
REMARK                         _______ _______ _______ _____ _____    ______ ____
ROOT
ATOM      1  C   UNL     1      -5.539  12.134  19.455  0.00  0.00    +0.000 A 
ATOM      2  C   UNL     1      -4.140  11.963  19.130  0.00  0.00    +0.000 A 
ATOM      3  C   UNL     1      -3.384  12.657  20.088  0.00  0.00    +0.000 A 
ATOM      4  N   UNL     1      -4.307  13.270  20.958  0.00  0.00    +0.000 N 
ATOM      5  C   UNL     1      -5.617  13.020  20.545  0.00  0.00    +0.000 A 
ENDROOT
BRANCH   2   6
ATOM      6  C   UNL     1      -3.567  11.223  17.985  0.00  0.00    +0.000 A 
ATOM      7  C   UNL     1      -3.977  11.506  16.670  0.00  0.00    +0.000 A 
ATOM      8  C   UNL     1      -3.409  10.843  15.574  0.00  0.00    +0.000 A 
ATOM      9  C   UNL     1      -2.386   9.920  15.770  0.00  0.00    +0.000 A 
ATOM     10  C   UNL     1      -1.961   9.631  17.063  0.00  0.00    +0.000 A 
ATOM     11  C   UNL     1      -2.572  10.249  18.160  0.00  0.00    +0.000 A 
ENDBRANCH   2   6
BRANCH   3  12
ATOM     12  C   UNL     1      -1.900  12.834  20.186  0.00  0.00    +0.000 A 
ATOM     13  C   UNL     1      -1.276  13.982  19.670  0.00  0.00    +0.000 A 
ATOM     14  C   UNL     1       0.106  14.178  19.786  0.00  0.00    +0.000 A 
ATOM     15  C   UNL     1       0.882  13.271  20.500  0.00  0.00    +0.000 A 
ATOM     16  C   UNL     1       0.288  12.131  21.029  0.00  0.00    +0.000 A 
ATOM     17  C   UNL     1      -1.073  11.889  20.814  0.00  0.00    +0.000 A 
ENDBRANCH   3  12
BRANCH   5  18
ATOM     18  C   UNL     1      -6.900  13.513  21.229  0.00  0.00    +0.000 C 
ATOM     19  C   UNL     1      -7.088  12.822  22.578  0.00  0.00    +0.000 C 
ATOM     20  C   UNL     1      -7.136  15.023  21.336  0.00  0.00    +0.000 C 
ENDBRANCH   5  18
BRANCH   1  21
ATOM     21  C   UNL     1      -6.661  11.447  18.775  0.00  0.00    +0.000 C 
ATOM     22  O   UNL     1      -6.790  10.227  18.755  0.00  0.00    +0.000 OA
BRANCH  21  23
ATOM     23  O   UNL     1      -7.542  12.290  18.161  0.00  0.00    +0.000 OA
BRANCH  23  25
ATOM     24  C   UNL     1      -7.236  14.563  17.334  0.00  0.00    +0.000 C 
ATOM     25  C   UNL     1      -7.033  13.080  17.075  0.00  0.00    +0.000 C 
ENDBRANCH  23  25
ENDBRANCH  21  23
ENDBRANCH   1  21
BRANCH   4  26
ATOM     26  C   UNL     1      -3.917  14.066  22.127  0.00  0.00    +0.000 C 
BRANCH  26  27
ATOM     27  C   UNL     1      -3.331  13.218  23.259  0.00  0.00    +0.000 C 
BRANCH  27  28
ATOM     28  C   UNL     1      -2.327  13.946  24.159  0.00  0.00    +0.000 C 
ATOM     29  C   UNL     1      -3.026  15.119  24.821  0.00  0.00    +0.000 C 
ATOM     30  C   UNL     1      -2.026  15.969  25.568  0.00  0.00    +0.000 C 
ATOM     31  C   UNL     1      -0.944  16.467  24.634  0.00  0.00    +0.000 C 
ATOM     32  C   UNL     1      -0.420  15.446  23.662  0.00  0.00    +0.000 C 
ATOM     33  O   UNL     1       0.643  15.618  23.075  0.00  0.00    +0.000 OA
ATOM     34  O   UNL     1      -1.198  14.373  23.366  0.00  0.00    +0.000 OA
BRANCH  30  35
ATOM     35  O   UNL     1      -1.491  15.256  26.679  0.00  0.00    +0.000 OA
ATOM     36  H   UNL     1      -0.546  15.458  26.787  0.00  0.00    +0.000 HD
ENDBRANCH  30  35
ENDBRANCH  27  28
ENDBRANCH  26  27
ENDBRANCH   4  26
TORSDOF 10
ENDMDL
