MODEL 1
REMARK VINA RESULT:      -6.0      0.000      0.000
REMARK  Name = 
REMARK  4 active torsions:
REMARK  status: ('A' for Active; 'I' for Inactive)
REMARK    1  A    between atoms: C_1  and  C_2
REMARK    2  A    between atoms: C_2  and  C_3
REMARK    3  A    between atoms: C_2  and  N_5
REMARK    4  A    between atoms: C_6  and  C_8
REMARK                            x       y       z     vdW  Elec       q    Type
REMARK                         _______ _______ _______ _____ _____    ______ ____
ROOT
ATOM      1  N   UNL     1       3.205   3.758  19.591  0.00  0.00    +0.000 N 
ATOM      2  C   UNL     1       4.546   3.507  19.405  0.00  0.00    +0.000 C 
ATOM      3  O   UNL     1       5.068   2.434  19.689  0.00  0.00    +0.000 OA
ATOM      4  H   UNL     1       2.786   4.609  19.238  0.00  0.00    +0.000 HD
ENDROOT
BRANCH   2   5
ATOM      5  C   UNL     1       5.370   4.590  18.811  0.00  0.00    +0.000 A 
ATOM      6  C   UNL     1       6.594   4.905  19.422  0.00  0.00    +0.000 A 
ATOM      7  C   UNL     1       7.377   5.961  18.943  0.00  0.00    +0.000 A 
ATOM      8  C   UNL     1       6.929   6.714  17.860  0.00  0.00    +0.000 A 
ATOM      9 CL   UNL     1       7.877   8.035  17.298  0.00  0.00    +0.000 Cl
ATOM     10  C   UNL     1       5.712   6.400  17.255  0.00  0.00    +0.000 A 
ATOM     11  F   UNL     1       5.257   7.125  16.223  0.00  0.00    +0.000 F 
ATOM     12  C   UNL     1       4.928   5.342  17.718  0.00  0.00    +0.000 A 
ENDBRANCH   2   5
BRANCH   1  14
ATOM     13  C   UNL     1       1.796   3.191  21.529  0.00  0.00    +0.000 C 
ATOM     14  C   UNL     1       2.329   2.737  20.171  0.00  0.00    +0.000 C 
BRANCH  14  15
ATOM     15  C   UNL     1       1.206   2.422  19.262  0.00  0.00    +0.000 C 
ATOM     16  N   UNL     1       0.341   2.178  18.529  0.00  0.00    +0.000 NA
ENDBRANCH  14  15
ENDBRANCH   1  14
TORSDOF 3
ENDMDL
MODEL 2
REMARK VINA RESULT:      -6.0      1.201      1.728
REMARK  Name = 
REMARK  4 active torsions:
REMARK  status: ('A' for Active; 'I' for Inactive)
REMARK    1  A    between atoms: C_1  and  C_2
REMARK    2  A    between atoms: C_2  and  C_3
REMARK    3  A    between atoms: C_2  and  N_5
REMARK    4  A    between atoms: C_6  and  C_8
REMARK                            x       y       z     vdW  Elec       q    Type
REMARK                         _______ _______ _______ _____ _____    ______ ____
ROOT
ATOM      1  N   UNL     1       3.095   3.819  19.649  0.00  0.00    +0.000 N 
ATOM      2  C   UNL     1       4.440   3.596  19.457  0.00  0.00    +0.000 C 
ATOM      3  O   UNL     1       4.971   2.510  19.664  0.00  0.00    +0.000 OA
ATOM      4  H   UNL     1       2.670   4.689  19.356  0.00  0.00    +0.000 HD
ENDROOT
BRANCH   2   5
ATOM      5  C   UNL     1       5.257   4.729  18.954  0.00  0.00    +0.000 A 
ATOM      6  C   UNL     1       4.717   5.542  17.944  0.00  0.00    +0.000 A 
ATOM      7  C   UNL     1       5.472   6.581  17.389  0.00  0.00    +0.000 A 
ATOM      8  C   UNL     1       6.774   6.801  17.834  0.00  0.00    +0.000 A 
ATOM      9 CL   UNL     1       7.711   8.057  17.122  0.00  0.00    +0.000 Cl
ATOM     10  C   UNL     1       7.308   5.992  18.836  0.00  0.00    +0.000 A 
ATOM     11  F   UNL     1       8.566   6.177  19.264  0.00  0.00    +0.000 F 
ATOM     12  C   UNL     1       6.561   4.959  19.404  0.00  0.00    +0.000 A 
ENDBRANCH   2   5
BRANCH   1  14
ATOM     13  C   UNL     1       1.626   3.119  21.498  0.00  0.00    +0.000 C 
ATOM     14  C   UNL     1       2.225   2.747  20.141  0.00  0.00    +0.000 C 
BRANCH  14  15
ATOM     15  C   UNL     1       1.148   2.449  19.173  0.00  0.00    +0.000 C 
ATOM     16  N   UNL     1       0.286   2.219  18.432  0.00  0.00    +0.000 NA
ENDBRANCH  14  15
ENDBRANCH   1  14
TORSDOF 3
ENDMDL
MODEL 3
REMARK VINA RESULT:      -5.9      2.857      3.394
REMARK  Name = 
REMARK  4 active torsions:
REMARK  status: ('A' for Active; 'I' for Inactive)
REMARK    1  A    between atoms: C_1  and  C_2
REMARK    2  A    between atoms: C_2  and  C_3
REMARK    3  A    between atoms: C_2  and  N_5
REMARK    4  A    between atoms: C_6  and  C_8
REMARK                            x       y       z     vdW  Elec       q    Type
REMARK                         _______ _______ _______ _____ _____    ______ ____
ROOT
ATOM      1  N   UNL     1       4.439   3.095  18.472  0.00  0.00    +0.000 N 
ATOM      2  C   UNL     1       5.199   4.216  18.223  0.00  0.00    +0.000 C 
ATOM      3  O   UNL     1       5.423   5.072  19.072  0.00  0.00    +0.000 OA
ATOM      4  H   UNL     1       4.374   2.354  17.787  0.00  0.00    +0.000 HD
ENDROOT
BRANCH   2   5
ATOM      5  C   UNL     1       5.781   4.361  16.865  0.00  0.00    +0.000 A 
ATOM      6  C   UNL     1       7.076   4.892  16.749  0.00  0.00    +0.000 A 
ATOM      7  C   UNL     1       7.644   5.112  15.490  0.00  0.00    +0.000 A 
ATOM      8  C   UNL     1       6.913   4.813  14.342  0.00  0.00    +0.000 A 
ATOM      9 CL   UNL     1       7.602   5.119  12.795  0.00  0.00    +0.000 Cl
ATOM     10  C   UNL     1       5.627   4.286  14.459  0.00  0.00    +0.000 A 
ATOM     11  F   UNL     1       4.902   4.009  13.366  0.00  0.00    +0.000 F 
ATOM     12  C   UNL     1       5.054   4.053  15.711  0.00  0.00    +0.000 A 
ENDBRANCH   2   5
BRANCH   1  14
ATOM     13  C   UNL     1       2.433   2.289  19.650  0.00  0.00    +0.000 C 
ATOM     14  C   UNL     1       3.834   2.884  19.790  0.00  0.00    +0.000 C 
BRANCH  14  15
ATOM     15  C   UNL     1       4.679   2.008  20.629  0.00  0.00    +0.000 C 
ATOM     16  N   UNL     1       5.360   1.338  21.287  0.00  0.00    +0.000 NA
ENDBRANCH  14  15
ENDBRANCH   1  14
TORSDOF 3
ENDMDL
MODEL 4
REMARK VINA RESULT:      -5.9      2.469      2.586
REMARK  Name = 
REMARK  4 active torsions:
REMARK  status: ('A' for Active; 'I' for Inactive)
REMARK    1  A    between atoms: C_1  and  C_2
REMARK    2  A    between atoms: C_2  and  C_3
REMARK    3  A    between atoms: C_2  and  N_5
REMARK    4  A    between atoms: C_6  and  C_8
REMARK                            x       y       z     vdW  Elec       q    Type
REMARK                         _______ _______ _______ _____ _____    ______ ____
ROOT
ATOM      1  N   UNL     1       3.320   4.147  18.328  0.00  0.00    +0.000 N 
ATOM      2  C   UNL     1       4.684   3.961  18.358  0.00  0.00    +0.000 C 
ATOM      3  O   UNL     1       5.284   3.596  19.364  0.00  0.00    +0.000 OA
ATOM      4  H   UNL     1       2.845   4.333  17.454  0.00  0.00    +0.000 HD
ENDROOT
BRANCH   2   5
ATOM      5  C   UNL     1       5.436   4.197  17.100  0.00  0.00    +0.000 A 
ATOM      6  C   UNL     1       6.735   4.723  17.190  0.00  0.00    +0.000 A 
ATOM      7  C   UNL     1       7.461   5.027  16.034  0.00  0.00    +0.000 A 
ATOM      8  C   UNL     1       6.883   4.819  14.783  0.00  0.00    +0.000 A 
ATOM      9 CL   UNL     1       7.765   5.229  13.364  0.00  0.00    +0.000 Cl
ATOM     10  C   UNL     1       5.592   4.298  14.696  0.00  0.00    +0.000 A 
ATOM     11  F   UNL     1       5.013   4.108  13.501  0.00  0.00    +0.000 F 
ATOM     12  C   UNL     1       4.863   3.981  15.843  0.00  0.00    +0.000 A 
ENDBRANCH   2   5
BRANCH   1  14
ATOM     13  C   UNL     1       2.059   5.266  20.122  0.00  0.00    +0.000 C 
ATOM     14  C   UNL     1       2.511   3.931  19.530  0.00  0.00    +0.000 C 
BRANCH  14  15
ATOM     15  C   UNL     1       1.338   3.080  19.237  0.00  0.00    +0.000 C 
ATOM     16  N   UNL     1       0.430   2.403  18.986  0.00  0.00    +0.000 NA
ENDBRANCH  14  15
ENDBRANCH   1  14
TORSDOF 3
ENDMDL
MODEL 5
REMARK VINA RESULT:      -5.9      4.309      6.033
REMARK  Name = 
REMARK  4 active torsions:
REMARK  status: ('A' for Active; 'I' for Inactive)
REMARK    1  A    between atoms: C_1  and  C_2
REMARK    2  A    between atoms: C_2  and  C_3
REMARK    3  A    between atoms: C_2  and  N_5
REMARK    4  A    between atoms: C_6  and  C_8
REMARK                            x       y       z     vdW  Elec       q    Type
REMARK                         _______ _______ _______ _____ _____    ______ ____
ROOT
ATOM      1  N   UNL     1       5.102   4.265  16.104  0.00  0.00    +0.000 N 
ATOM      2  C   UNL     1       4.421   5.062  16.997  0.00  0.00    +0.000 C 
ATOM      3  O   UNL     1       4.396   6.285  16.913  0.00  0.00    +0.000 OA
ATOM      4  H   UNL     1       5.005   3.258  16.134  0.00  0.00    +0.000 HD
ENDROOT
BRANCH   2   5
ATOM      5  C   UNL     1       3.672   4.386  18.086  0.00  0.00    +0.000 A 
ATOM      6  C   UNL     1       2.321   4.720  18.272  0.00  0.00    +0.000 A 
ATOM      7  C   UNL     1       1.589   4.162  19.325  0.00  0.00    +0.000 A 
ATOM      8  C   UNL     1       2.212   3.278  20.205  0.00  0.00    +0.000 A 
ATOM      9 CL   UNL     1       1.318   2.624  21.521  0.00  0.00    +0.000 Cl
ATOM     10  C   UNL     1       3.554   2.949  20.019  0.00  0.00    +0.000 A 
ATOM     11  F   UNL     1       4.174   2.114  20.866  0.00  0.00    +0.000 F 
ATOM     12  C   UNL     1       4.291   3.492  18.965  0.00  0.00    +0.000 A 
ENDBRANCH   2   5
BRANCH   1  14
ATOM     13  C   UNL     1       7.326   5.053  15.399  0.00  0.00    +0.000 C 
ATOM     14  C   UNL     1       5.862   4.861  15.003  0.00  0.00    +0.000 C 
BRANCH  14  15
ATOM     15  C   UNL     1       5.769   4.032  13.782  0.00  0.00    +0.000 C 
ATOM     16  N   UNL     1       5.721   3.380  12.823  0.00  0.00    +0.000 NA
ENDBRANCH  14  15
ENDBRANCH   1  14
TORSDOF 3
ENDMDL
MODEL 6
REMARK VINA RESULT:      -5.9      4.350      5.960
REMARK  Name = 
REMARK  4 active torsions:
REMARK  status: ('A' for Active; 'I' for Inactive)
REMARK    1  A    between atoms: C_1  and  C_2
REMARK    2  A    between atoms: C_2  and  C_3
REMARK    3  A    between atoms: C_2  and  N_5
REMARK    4  A    between atoms: C_6  and  C_8
REMARK                            x       y       z     vdW  Elec       q    Type
REMARK                         _______ _______ _______ _____ _____    ______ ____
ROOT
ATOM      1  N   UNL     1       4.998   4.392  15.993  0.00  0.00    +0.000 N 
ATOM      2  C   UNL     1       4.403   5.268  16.874  0.00  0.00    +0.000 C 
ATOM      3  O   UNL     1       4.566   6.482  16.818  0.00  0.00    +0.000 OA
ATOM      4  H   UNL     1       4.749   3.412  15.995  0.00  0.00    +0.000 HD
ENDROOT
BRANCH   2   5
ATOM      5  C   UNL     1       3.512   4.694  17.914  0.00  0.00    +0.000 A 
ATOM      6  C   UNL     1       3.648   5.153  19.234  0.00  0.00    +0.000 A 
ATOM      7  C   UNL     1       2.880   4.597  20.263  0.00  0.00    +0.000 A 
ATOM      8  C   UNL     1       1.983   3.570  19.975  0.00  0.00    +0.000 A 
ATOM      9 CL   UNL     1       1.067   2.865  21.249  0.00  0.00    +0.000 Cl
ATOM     10  C   UNL     1       1.850   3.115  18.663  0.00  0.00    +0.000 A 
ATOM     11  F   UNL     1       1.005   2.116  18.371  0.00  0.00    +0.000 F 
ATOM     12  C   UNL     1       2.604   3.669  17.627  0.00  0.00    +0.000 A 
ENDBRANCH   2   5
BRANCH   1  14
ATOM     13  C   UNL     1       7.333   4.939  15.437  0.00  0.00    +0.000 C 
ATOM     14  C   UNL     1       5.889   4.886  14.940  0.00  0.00    +0.000 C 
BRANCH  14  15
ATOM     15  C   UNL     1       5.797   4.043  13.728  0.00  0.00    +0.000 C 
ATOM     16  N   UNL     1       5.746   3.392  12.769  0.00  0.00    +0.000 NA
ENDBRANCH  14  15
ENDBRANCH   1  14
TORSDOF 3
ENDMDL
MODEL 7
REMARK VINA RESULT:      -5.8      4.082      6.060
REMARK  Name = 
REMARK  4 active torsions:
REMARK  status: ('A' for Active; 'I' for Inactive)
REMARK    1  A    between atoms: C_1  and  C_2
REMARK    2  A    between atoms: C_2  and  C_3
REMARK    3  A    between atoms: C_2  and  N_5
REMARK    4  A    between atoms: C_6  and  C_8
REMARK                            x       y       z     vdW  Elec       q    Type
REMARK                         _______ _______ _______ _____ _____    ______ ____
ROOT
ATOM      1  N   UNL     1       5.526   5.680  17.650  0.00  0.00    +0.000 N 
ATOM      2  C   UNL     1       4.268   6.107  18.015  0.00  0.00    +0.000 C 
ATOM      3  O   UNL     1       3.793   7.175  17.646  0.00  0.00    +0.000 OA
ATOM      4  H   UNL     1       5.838   4.745  17.875  0.00  0.00    +0.000 HD
ENDROOT
BRANCH   2   5
ATOM      5  C   UNL     1       3.463   5.205  18.877  0.00  0.00    +0.000 A 
ATOM      6  C   UNL     1       2.767   5.766  19.960  0.00  0.00    +0.000 A 
ATOM      7  C   UNL     1       2.048   4.951  20.842  0.00  0.00    +0.000 A 
ATOM      8  C   UNL     1       2.036   3.571  20.650  0.00  0.00    +0.000 A 
ATOM      9 CL   UNL     1       1.181   2.570  21.759  0.00  0.00    +0.000 Cl
ATOM     10  C   UNL     1       2.729   3.016  19.575  0.00  0.00    +0.000 A 
ATOM     11  F   UNL     1       2.742   1.689  19.385  0.00  0.00    +0.000 F 
ATOM     12  C   UNL     1       3.440   3.820  18.683  0.00  0.00    +0.000 A 
ENDBRANCH   2   5
BRANCH   1  14
ATOM     13  C   UNL     1       7.486   7.170  17.625  0.00  0.00    +0.000 C 
ATOM     14  C   UNL     1       6.378   6.516  16.800  0.00  0.00    +0.000 C 
BRANCH  14  15
ATOM     15  C   UNL     1       6.963   5.728  15.694  0.00  0.00    +0.000 C 
ATOM     16  N   UNL     1       7.445   5.114  14.836  0.00  0.00    +0.000 NA
ENDBRANCH  14  15
ENDBRANCH   1  14
TORSDOF 3
ENDMDL
MODEL 8
REMARK VINA RESULT:      -5.8      1.259      1.672
REMARK  Name = 
REMARK  4 active torsions:
REMARK  status: ('A' for Active; 'I' for Inactive)
REMARK    1  A    between atoms: C_1  and  C_2
REMARK    2  A    between atoms: C_2  and  C_3
REMARK    3  A    between atoms: C_2  and  N_5
REMARK    4  A    between atoms: C_6  and  C_8
REMARK                            x       y       z     vdW  Elec       q    Type
REMARK                         _______ _______ _______ _____ _____    ______ ____
ROOT
ATOM      1  N   UNL     1       2.126   4.333  19.291  0.00  0.00    +0.000 N 
ATOM      2  C   UNL     1       3.310   3.747  18.903  0.00  0.00    +0.000 C 
ATOM      3  O   UNL     1       3.495   2.535  18.932  0.00  0.00    +0.000 OA
ATOM      4  H   UNL     1       1.967   5.321  19.144  0.00  0.00    +0.000 HD
ENDROOT
BRANCH   2   5
ATOM      5  C   UNL     1       4.388   4.643  18.411  0.00  0.00    +0.000 A 
ATOM      6  C   UNL     1       5.548   4.778  19.190  0.00  0.00    +0.000 A 
ATOM      7  C   UNL     1       6.563   5.660  18.806  0.00  0.00    +0.000 A 
ATOM      8  C   UNL     1       6.414   6.419  17.647  0.00  0.00    +0.000 A 
ATOM      9 CL   UNL     1       7.650   7.530  17.198  0.00  0.00    +0.000 Cl
ATOM     10  C   UNL     1       5.261   6.284  16.875  0.00  0.00    +0.000 A 
ATOM     11  F   UNL     1       5.093   7.020  15.767  0.00  0.00    +0.000 F 
ATOM     12  C   UNL     1       4.246   5.400  17.244  0.00  0.00    +0.000 A 
ENDBRANCH   2   5
BRANCH   1  14
ATOM     13  C   UNL     1       0.687   2.396  18.797  0.00  0.00    +0.000 C 
ATOM     14  C   UNL     1       1.017   3.513  19.787  0.00  0.00    +0.000 C 
BRANCH  14  15
ATOM     15  C   UNL     1       1.331   2.941  21.114  0.00  0.00    +0.000 C 
ATOM     16  N   UNL     1       1.594   2.511  22.159  0.00  0.00    +0.000 NA
ENDBRANCH  14  15
ENDBRANCH   1  14
TORSDOF 3
ENDMDL
MODEL 9
REMARK VINA RESULT:      -5.8      3.961      5.338
REMARK  Name = 
REMARK  4 active torsions:
REMARK  status: ('A' for Active; 'I' for Inactive)
REMARK    1  A    between atoms: C_1  and  C_2
REMARK    2  A    between atoms: C_2  and  C_3
REMARK    3  A    between atoms: C_2  and  N_5
REMARK    4  A    between atoms: C_6  and  C_8
REMARK                            x       y       z     vdW  Elec       q    Type
REMARK                         _______ _______ _______ _____ _____    ______ ____
ROOT
ATOM      1  N   UNL     1       4.724   5.490  16.694  0.00  0.00    +0.000 N 
ATOM      2  C   UNL     1       4.011   5.297  17.856  0.00  0.00    +0.000 C 
ATOM      3  O   UNL     1       4.002   4.232  18.463  0.00  0.00    +0.000 OA
ATOM      4  H   UNL     1       4.804   6.413  16.286  0.00  0.00    +0.000 HD
ENDROOT
BRANCH   2   5
ATOM      5  C   UNL     1       3.245   6.452  18.390  0.00  0.00    +0.000 A 
ATOM      6  C   UNL     1       2.662   6.333  19.662  0.00  0.00    +0.000 A 
ATOM      7  C   UNL     1       1.874   7.365  20.182  0.00  0.00    +0.000 A 
ATOM      8  C   UNL     1       1.656   8.514  19.425  0.00  0.00    +0.000 A 
ATOM      9 CL   UNL     1       0.657   9.766  20.053  0.00  0.00    +0.000 Cl
ATOM     10  C   UNL     1       2.235   8.630  18.161  0.00  0.00    +0.000 A 
ATOM     11  F   UNL     1       2.021   9.721  17.411  0.00  0.00    +0.000 F 
ATOM     12  C   UNL     1       3.031   7.610  17.636  0.00  0.00    +0.000 A 
ENDBRANCH   2   5
BRANCH   1  14
ATOM     13  C   UNL     1       5.553   4.524  14.587  0.00  0.00    +0.000 C 
ATOM     14  C   UNL     1       5.505   4.397  16.109  0.00  0.00    +0.000 C 
BRANCH  14  15
ATOM     15  C   UNL     1       6.876   4.368  16.662  0.00  0.00    +0.000 C 
ATOM     16  N   UNL     1       7.961   4.340  17.072  0.00  0.00    +0.000 NA
ENDBRANCH  14  15
ENDBRANCH   1  14
TORSDOF 3
ENDMDL
