MODEL 1
REMARK VINA RESULT:      -8.2      0.000      0.000
REMARK  Name = 
REMARK  2 active torsions:
REMARK  status: ('A' for Active; 'I' for Inactive)
REMARK    1  A    between atoms: N_3  and  C_4
REMARK    2  A    between atoms: C_8  and  N_9
REMARK                            x       y       z     vdW  Elec       q    Type
REMARK                         _______ _______ _______ _____ _____    ______ ____
ROOT
ATOM      1  C   UNL     1       5.860   4.777  15.188  0.00  0.00    +0.000 A 
ATOM      2  C   UNL     1       5.564   6.117  15.437  0.00  0.00    +0.000 A 
ATOM      3  C   UNL     1       4.688   6.464  16.465  0.00  0.00    +0.000 A 
ATOM      4  C   UNL     1       4.052   5.482  17.260  0.00  0.00    +0.000 A 
ATOM      5  C   UNL     1       3.131   5.771  18.306  0.00  0.00    +0.000 A 
ATOM      6  C   UNL     1       2.591   4.702  19.074  0.00  0.00    +0.000 A 
ATOM      7  C   UNL     1       1.714   4.868  20.179  0.00  0.00    +0.000 A 
ATOM      8  C   UNL     1       1.189   3.775  20.867  0.00  0.00    +0.000 A 
ATOM      9  C   UNL     1       1.539   2.494  20.473  0.00  0.00    +0.000 A 
ATOM     10  C   UNL     1       2.410   2.318  19.397  0.00  0.00    +0.000 A 
ATOM     11  C   UNL     1       2.942   3.393  18.694  0.00  0.00    +0.000 A 
ATOM     12  N   UNL     1       3.776   3.123  17.680  0.00  0.00    +0.000 NA
ATOM     13  C   UNL     1       4.330   4.130  16.989  0.00  0.00    +0.000 A 
ATOM     14  C   UNL     1       5.220   3.809  15.969  0.00  0.00    +0.000 A 
ENDROOT
BRANCH   1  17
ATOM     15  N   UNL     1       8.514   5.838  13.646  0.00  0.00    +0.000 NA
ATOM     16  N   UNL     1       7.663   5.121  13.901  0.00  0.00    +0.000 NA
ATOM     17  N   UNL     1       6.726   4.344  14.165  0.00  0.00    +0.000 NA
ENDBRANCH   1  17
BRANCH   5  18
ATOM     18  N   UNL     1       2.927   7.117  18.720  0.00  0.00    +0.000 N 
ATOM     19  H   UNL     1       3.588   7.776  18.327  0.00  0.00    +0.000 HD
ATOM     20  H   UNL     1       1.979   7.447  18.593  0.00  0.00    +0.000 HD
ENDBRANCH   5  18
TORSDOF 2
ENDMDL
MODEL 2
REMARK VINA RESULT:      -7.8      1.058      1.227
REMARK  Name = 
REMARK  2 active torsions:
REMARK  status: ('A' for Active; 'I' for Inactive)
REMARK    1  A    between atoms: N_3  and  C_4
REMARK    2  A    between atoms: C_8  and  N_9
REMARK                            x       y       z     vdW  Elec       q    Type
REMARK                         _______ _______ _______ _____ _____    ______ ____
ROOT
ATOM      1  C   UNL     1       6.112   5.420  15.785  0.00  0.00    +0.000 A 
ATOM      2  C   UNL     1       5.395   6.611  15.889  0.00  0.00    +0.000 A 
ATOM      3  C   UNL     1       4.446   6.775  16.897  0.00  0.00    +0.000 A 
ATOM      4  C   UNL     1       4.157   5.741  17.818  0.00  0.00    +0.000 A 
ATOM      5  C   UNL     1       3.184   5.837  18.853  0.00  0.00    +0.000 A 
ATOM      6  C   UNL     1       3.015   4.750  19.754  0.00  0.00    +0.000 A 
ATOM      7  C   UNL     1       2.123   4.752  20.859  0.00  0.00    +0.000 A 
ATOM      8  C   UNL     1       1.976   3.637  21.683  0.00  0.00    +0.000 A 
ATOM      9  C   UNL     1       2.725   2.500  21.426  0.00  0.00    +0.000 A 
ATOM     10  C   UNL     1       3.614   2.490  20.350  0.00  0.00    +0.000 A 
ATOM     11  C   UNL     1       3.774   3.589  19.513  0.00  0.00    +0.000 A 
ATOM     12  N   UNL     1       4.659   3.486  18.511  0.00  0.00    +0.000 NA
ATOM     13  C   UNL     1       4.861   4.529  17.694  0.00  0.00    +0.000 A 
ATOM     14  C   UNL     1       5.815   4.395  16.690  0.00  0.00    +0.000 A 
ENDROOT
BRANCH   1  17
ATOM     15  N   UNL     1       6.375   3.733  13.022  0.00  0.00    +0.000 NA
ATOM     16  N   UNL     1       6.708   4.428  13.864  0.00  0.00    +0.000 NA
ATOM     17  N   UNL     1       7.079   5.173  14.791  0.00  0.00    +0.000 NA
ENDBRANCH   1  17
BRANCH   5  18
ATOM     18  N   UNL     1       2.552   7.085  19.118  0.00  0.00    +0.000 N 
ATOM     19  H   UNL     1       1.989   7.094  19.959  0.00  0.00    +0.000 HD
ATOM     20  H   UNL     1       3.183   7.875  19.105  0.00  0.00    +0.000 HD
ENDBRANCH   5  18
TORSDOF 2
ENDMDL
MODEL 3
REMARK VINA RESULT:      -7.7      0.798      1.025
REMARK  Name = 
REMARK  2 active torsions:
REMARK  status: ('A' for Active; 'I' for Inactive)
REMARK    1  A    between atoms: N_3  and  C_4
REMARK    2  A    between atoms: C_8  and  N_9
REMARK                            x       y       z     vdW  Elec       q    Type
REMARK                         _______ _______ _______ _____ _____    ______ ____
ROOT
ATOM      1  C   UNL     1       6.050   5.279  15.789  0.00  0.00    +0.000 A 
ATOM      2  C   UNL     1       5.770   6.535  16.327  0.00  0.00    +0.000 A 
ATOM      3  C   UNL     1       4.811   6.673  17.330  0.00  0.00    +0.000 A 
ATOM      4  C   UNL     1       4.075   5.565  17.809  0.00  0.00    +0.000 A 
ATOM      5  C   UNL     1       3.068   5.644  18.813  0.00  0.00    +0.000 A 
ATOM      6  C   UNL     1       2.428   4.452  19.253  0.00  0.00    +0.000 A 
ATOM      7  C   UNL     1       1.456   4.396  20.288  0.00  0.00    +0.000 A 
ATOM      8  C   UNL     1       0.838   3.199  20.646  0.00  0.00    +0.000 A 
ATOM      9  C   UNL     1       1.186   2.032  19.987  0.00  0.00    +0.000 A 
ATOM     10  C   UNL     1       2.149   2.072  18.978  0.00  0.00    +0.000 A 
ATOM     11  C   UNL     1       2.776   3.255  18.601  0.00  0.00    +0.000 A 
ATOM     12  N   UNL     1       3.694   3.190  17.626  0.00  0.00    +0.000 NA
ATOM     13  C   UNL     1       4.339   4.302  17.246  0.00  0.00    +0.000 A 
ATOM     14  C   UNL     1       5.312   4.187  16.258  0.00  0.00    +0.000 A 
ENDROOT
BRANCH   1  17
ATOM     15  N   UNL     1       6.243   3.685  12.967  0.00  0.00    +0.000 NA
ATOM     16  N   UNL     1       6.599   4.347  13.826  0.00  0.00    +0.000 NA
ATOM     17  N   UNL     1       6.996   5.057  14.769  0.00  0.00    +0.000 NA
ENDBRANCH   1  17
BRANCH   5  18
ATOM     18  N   UNL     1       2.866   6.863  19.519  0.00  0.00    +0.000 N 
ATOM     19  H   UNL     1       1.898   7.154  19.574  0.00  0.00    +0.000 HD
ATOM     20  H   UNL     1       3.294   6.881  20.436  0.00  0.00    +0.000 HD
ENDBRANCH   5  18
TORSDOF 2
ENDMDL
MODEL 4
REMARK VINA RESULT:      -7.6      1.149      2.433
REMARK  Name = 
REMARK  2 active torsions:
REMARK  status: ('A' for Active; 'I' for Inactive)
REMARK    1  A    between atoms: N_3  and  C_4
REMARK    2  A    between atoms: C_8  and  N_9
REMARK                            x       y       z     vdW  Elec       q    Type
REMARK                         _______ _______ _______ _____ _____    ______ ____
ROOT
ATOM      1  C   UNL     1       6.562   4.999  15.721  0.00  0.00    +0.000 A 
ATOM      2  C   UNL     1       6.161   3.708  15.378  0.00  0.00    +0.000 A 
ATOM      3  C   UNL     1       5.083   3.110  16.029  0.00  0.00    +0.000 A 
ATOM      4  C   UNL     1       4.386   3.770  17.068  0.00  0.00    +0.000 A 
ATOM      5  C   UNL     1       3.294   3.205  17.786  0.00  0.00    +0.000 A 
ATOM      6  C   UNL     1       2.635   3.983  18.778  0.00  0.00    +0.000 A 
ATOM      7  C   UNL     1       1.499   3.553  19.515  0.00  0.00    +0.000 A 
ATOM      8  C   UNL     1       0.923   4.351  20.502  0.00  0.00    +0.000 A 
ATOM      9  C   UNL     1       1.462   5.599  20.766  0.00  0.00    +0.000 A 
ATOM     10  C   UNL     1       2.570   6.039  20.040  0.00  0.00    +0.000 A 
ATOM     11  C   UNL     1       3.164   5.258  19.053  0.00  0.00    +0.000 A 
ATOM     12  N   UNL     1       4.219   5.770  18.405  0.00  0.00    +0.000 NA
ATOM     13  C   UNL     1       4.808   5.062  17.432  0.00  0.00    +0.000 A 
ATOM     14  C   UNL     1       5.877   5.644  16.756  0.00  0.00    +0.000 A 
ENDROOT
BRANCH   1  17
ATOM     15  N   UNL     1       7.845   5.359  12.761  0.00  0.00    +0.000 NA
ATOM     16  N   UNL     1       7.744   5.513  13.887  0.00  0.00    +0.000 NA
ATOM     17  N   UNL     1       7.645   5.668  15.119  0.00  0.00    +0.000 NA
ENDBRANCH   1  17
BRANCH   5  18
ATOM     18  N   UNL     1       2.731   1.968  17.363  0.00  0.00    +0.000 N 
ATOM     19  H   UNL     1       1.799   2.048  16.975  0.00  0.00    +0.000 HD
ATOM     20  H   UNL     1       3.328   1.436  16.743  0.00  0.00    +0.000 HD
ENDBRANCH   5  18
TORSDOF 2
ENDMDL
MODEL 5
REMARK VINA RESULT:      -7.6      2.768      3.405
REMARK  Name = 
REMARK  2 active torsions:
REMARK  status: ('A' for Active; 'I' for Inactive)
REMARK    1  A    between atoms: N_3  and  C_4
REMARK    2  A    between atoms: C_8  and  N_9
REMARK                            x       y       z     vdW  Elec       q    Type
REMARK                         _______ _______ _______ _____ _____    ______ ____
ROOT
ATOM      1  C   UNL     1       6.968   6.590  17.503  0.00  0.00    +0.000 A 
ATOM      2  C   UNL     1       7.595   5.667  18.338  0.00  0.00    +0.000 A 
ATOM      3  C   UNL     1       6.865   4.622  18.905  0.00  0.00    +0.000 A 
ATOM      4  C   UNL     1       5.475   4.482  18.681  0.00  0.00    +0.000 A 
ATOM      5  C   UNL     1       4.671   3.454  19.248  0.00  0.00    +0.000 A 
ATOM      6  C   UNL     1       3.291   3.382  18.912  0.00  0.00    +0.000 A 
ATOM      7  C   UNL     1       2.404   2.369  19.364  0.00  0.00    +0.000 A 
ATOM      8  C   UNL     1       1.051   2.378  19.027  0.00  0.00    +0.000 A 
ATOM      9  C   UNL     1       0.559   3.392  18.223  0.00  0.00    +0.000 A 
ATOM     10  C   UNL     1       1.423   4.386  17.761  0.00  0.00    +0.000 A 
ATOM     11  C   UNL     1       2.775   4.400  18.087  0.00  0.00    +0.000 A 
ATOM     12  N   UNL     1       3.527   5.392  17.590  0.00  0.00    +0.000 NA
ATOM     13  C   UNL     1       4.838   5.431  17.860  0.00  0.00    +0.000 A 
ATOM     14  C   UNL     1       5.591   6.455  17.293  0.00  0.00    +0.000 A 
ENDROOT
BRANCH   1  17
ATOM     15  N   UNL     1       8.375   9.374  18.403  0.00  0.00    +0.000 NA
ATOM     16  N   UNL     1       8.026   8.558  17.686  0.00  0.00    +0.000 NA
ATOM     17  N   UNL     1       7.631   7.677  16.900  0.00  0.00    +0.000 NA
ENDBRANCH   1  17
BRANCH   5  18
ATOM     18  N   UNL     1       5.285   2.386  19.962  0.00  0.00    +0.000 N 
ATOM     19  H   UNL     1       6.009   2.679  20.605  0.00  0.00    +0.000 HD
ATOM     20  H   UNL     1       4.629   1.770  20.424  0.00  0.00    +0.000 HD
ENDBRANCH   5  18
TORSDOF 2
ENDMDL
MODEL 6
REMARK VINA RESULT:      -7.5      2.085      3.072
REMARK  Name = 
REMARK  2 active torsions:
REMARK  status: ('A' for Active; 'I' for Inactive)
REMARK    1  A    between atoms: N_3  and  C_4
REMARK    2  A    between atoms: C_8  and  N_9
REMARK                            x       y       z     vdW  Elec       q    Type
REMARK                         _______ _______ _______ _____ _____    ______ ____
ROOT
ATOM      1  C   UNL     1       6.783   6.090  16.798  0.00  0.00    +0.000 A 
ATOM      2  C   UNL     1       6.960   4.774  16.373  0.00  0.00    +0.000 A 
ATOM      3  C   UNL     1       6.072   3.778  16.781  0.00  0.00    +0.000 A 
ATOM      4  C   UNL     1       4.994   4.058  17.652  0.00  0.00    +0.000 A 
ATOM      5  C   UNL     1       4.070   3.083  18.123  0.00  0.00    +0.000 A 
ATOM      6  C   UNL     1       2.992   3.490  18.958  0.00  0.00    +0.000 A 
ATOM      7  C   UNL     1       1.974   2.623  19.438  0.00  0.00    +0.000 A 
ATOM      8  C   UNL     1       0.966   3.078  20.285  0.00  0.00    +0.000 A 
ATOM      9  C   UNL     1       0.946   4.411  20.662  0.00  0.00    +0.000 A 
ATOM     10  C   UNL     1       1.933   5.276  20.187  0.00  0.00    +0.000 A 
ATOM     11  C   UNL     1       2.951   4.843  19.343  0.00  0.00    +0.000 A 
ATOM     12  N   UNL     1       3.849   5.750  18.934  0.00  0.00    +0.000 NA
ATOM     13  C   UNL     1       4.834   5.381  18.103  0.00  0.00    +0.000 A 
ATOM     14  C   UNL     1       5.723   6.360  17.669  0.00  0.00    +0.000 A 
ENDROOT
BRANCH   1  17
ATOM     15  N   UNL     1       8.165   8.671  18.202  0.00  0.00    +0.000 NA
ATOM     16  N   UNL     1       7.919   7.939  17.362  0.00  0.00    +0.000 NA
ATOM     17  N   UNL     1       7.639   7.150  16.439  0.00  0.00    +0.000 NA
ENDBRANCH   1  17
BRANCH   5  18
ATOM     18  N   UNL     1       4.094   1.765  17.585  0.00  0.00    +0.000 N 
ATOM     19  H   UNL     1       3.289   1.203  17.830  0.00  0.00    +0.000 HD
ATOM     20  H   UNL     1       4.259   1.732  16.587  0.00  0.00    +0.000 HD
ENDBRANCH   5  18
TORSDOF 2
ENDMDL
MODEL 7
REMARK VINA RESULT:      -7.3      1.572      1.767
REMARK  Name = 
REMARK  2 active torsions:
REMARK  status: ('A' for Active; 'I' for Inactive)
REMARK    1  A    between atoms: N_3  and  C_4
REMARK    2  A    between atoms: C_8  and  N_9
REMARK                            x       y       z     vdW  Elec       q    Type
REMARK                         _______ _______ _______ _____ _____    ______ ____
ROOT
ATOM      1  C   UNL     1       6.401   4.458  14.931  0.00  0.00    +0.000 A 
ATOM      2  C   UNL     1       7.273   4.732  15.984  0.00  0.00    +0.000 A 
ATOM      3  C   UNL     1       6.825   4.664  17.303  0.00  0.00    +0.000 A 
ATOM      4  C   UNL     1       5.482   4.348  17.615  0.00  0.00    +0.000 A 
ATOM      5  C   UNL     1       4.959   4.285  18.937  0.00  0.00    +0.000 A 
ATOM      6  C   UNL     1       3.602   3.907  19.133  0.00  0.00    +0.000 A 
ATOM      7  C   UNL     1       2.985   3.750  20.402  0.00  0.00    +0.000 A 
ATOM      8  C   UNL     1       1.638   3.413  20.524  0.00  0.00    +0.000 A 
ATOM      9  C   UNL     1       0.881   3.216  19.381  0.00  0.00    +0.000 A 
ATOM     10  C   UNL     1       1.479   3.355  18.128  0.00  0.00    +0.000 A 
ATOM     11  C   UNL     1       2.820   3.693  17.982  0.00  0.00    +0.000 A 
ATOM     12  N   UNL     1       3.305   3.796  16.736  0.00  0.00    +0.000 NA
ATOM     13  C   UNL     1       4.597   4.098  16.549  0.00  0.00    +0.000 A 
ATOM     14  C   UNL     1       5.071   4.157  15.242  0.00  0.00    +0.000 A 
ENDROOT
BRANCH   1  17
ATOM     15  N   UNL     1       8.611   5.954  13.081  0.00  0.00    +0.000 NA
ATOM     16  N   UNL     1       7.737   5.260  13.319  0.00  0.00    +0.000 NA
ATOM     17  N   UNL     1       6.772   4.514  13.573  0.00  0.00    +0.000 NA
ENDBRANCH   1  17
BRANCH   5  18
ATOM     18  N   UNL     1       5.838   4.381  20.052  0.00  0.00    +0.000 N 
ATOM     19  H   UNL     1       6.479   3.603  20.143  0.00  0.00    +0.000 HD
ATOM     20  H   UNL     1       6.338   5.259  20.107  0.00  0.00    +0.000 HD
ENDBRANCH   5  18
TORSDOF 2
ENDMDL
MODEL 8
REMARK VINA RESULT:      -7.3      2.469      3.888
REMARK  Name = 
REMARK  2 active torsions:
REMARK  status: ('A' for Active; 'I' for Inactive)
REMARK    1  A    between atoms: N_3  and  C_4
REMARK    2  A    between atoms: C_8  and  N_9
REMARK                            x       y       z     vdW  Elec       q    Type
REMARK                         _______ _______ _______ _____ _____    ______ ____
ROOT
ATOM      1  C   UNL     1       5.132   4.383  16.905  0.00  0.00    +0.000 A 
ATOM      2  C   UNL     1       4.892   3.739  18.118  0.00  0.00    +0.000 A 
ATOM      3  C   UNL     1       4.087   4.340  19.086  0.00  0.00    +0.000 A 
ATOM      4  C   UNL     1       3.518   5.619  18.887  0.00  0.00    +0.000 A 
ATOM      5  C   UNL     1       2.708   6.294  19.844  0.00  0.00    +0.000 A 
ATOM      6  C   UNL     1       2.147   7.559  19.514  0.00  0.00    +0.000 A 
ATOM      7  C   UNL     1       1.276   8.298  20.358  0.00  0.00    +0.000 A 
ATOM      8  C   UNL     1       0.790   9.552  19.989  0.00  0.00    +0.000 A 
ATOM      9  C   UNL     1       1.155  10.088  18.766  0.00  0.00    +0.000 A 
ATOM     10  C   UNL     1       2.000   9.366  17.921  0.00  0.00    +0.000 A 
ATOM     11  C   UNL     1       2.500   8.115  18.270  0.00  0.00    +0.000 A 
ATOM     12  N   UNL     1       3.298   7.496  17.389  0.00  0.00    +0.000 NA
ATOM     13  C   UNL     1       3.784   6.280  17.674  0.00  0.00    +0.000 A 
ATOM     14  C   UNL     1       4.577   5.654  16.717  0.00  0.00    +0.000 A 
ENDROOT
BRANCH   1  17
ATOM     15  N   UNL     1       7.628   5.317  15.050  0.00  0.00    +0.000 NA
ATOM     16  N   UNL     1       6.826   4.614  15.454  0.00  0.00    +0.000 NA
ATOM     17  N   UNL     1       5.939   3.850  15.882  0.00  0.00    +0.000 NA
ENDBRANCH   1  17
BRANCH   5  18
ATOM     18  N   UNL     1       2.286   5.615  21.021  0.00  0.00    +0.000 N 
ATOM     19  H   UNL     1       2.070   6.226  21.798  0.00  0.00    +0.000 HD
ATOM     20  H   UNL     1       1.532   4.957  20.867  0.00  0.00    +0.000 HD
ENDBRANCH   5  18
TORSDOF 2
ENDMDL
MODEL 9
REMARK VINA RESULT:      -7.2      1.735      2.204
REMARK  Name = 
REMARK  2 active torsions:
REMARK  status: ('A' for Active; 'I' for Inactive)
REMARK    1  A    between atoms: N_3  and  C_4
REMARK    2  A    between atoms: C_8  and  N_9
REMARK                            x       y       z     vdW  Elec       q    Type
REMARK                         _______ _______ _______ _____ _____    ______ ____
ROOT
ATOM      1  C   UNL     1       6.530   4.455  14.506  0.00  0.00    +0.000 A 
ATOM      2  C   UNL     1       7.447   4.847  15.479  0.00  0.00    +0.000 A 
ATOM      3  C   UNL     1       7.059   4.933  16.817  0.00  0.00    +0.000 A 
ATOM      4  C   UNL     1       5.733   4.659  17.222  0.00  0.00    +0.000 A 
ATOM      5  C   UNL     1       5.269   4.752  18.566  0.00  0.00    +0.000 A 
ATOM      6  C   UNL     1       3.924   4.402  18.864  0.00  0.00    +0.000 A 
ATOM      7  C   UNL     1       3.365   4.395  20.170  0.00  0.00    +0.000 A 
ATOM      8  C   UNL     1       2.025   4.079  20.391  0.00  0.00    +0.000 A 
ATOM      9  C   UNL     1       1.219   3.753  19.314  0.00  0.00    +0.000 A 
ATOM     10  C   UNL     1       1.759   3.744  18.027  0.00  0.00    +0.000 A 
ATOM     11  C   UNL     1       3.091   4.059  17.782  0.00  0.00    +0.000 A 
ATOM     12  N   UNL     1       3.519   4.015  16.513  0.00  0.00    +0.000 NA
ATOM     13  C   UNL     1       4.801   4.291  16.234  0.00  0.00    +0.000 A 
ATOM     14  C   UNL     1       5.216   4.196  14.909  0.00  0.00    +0.000 A 
ENDROOT
BRANCH   1  17
ATOM     15  N   UNL     1       5.629   2.676  11.943  0.00  0.00    +0.000 NA
ATOM     16  N   UNL     1       6.201   3.483  12.512  0.00  0.00    +0.000 NA
ATOM     17  N   UNL     1       6.839   4.353  13.135  0.00  0.00    +0.000 NA
ENDBRANCH   1  17
BRANCH   5  18
ATOM     18  N   UNL     1       6.198   4.974  19.622  0.00  0.00    +0.000 N 
ATOM     19  H   UNL     1       6.234   4.228  20.305  0.00  0.00    +0.000 HD
ATOM     20  H   UNL     1       7.129   5.211  19.306  0.00  0.00    +0.000 HD
ENDBRANCH   5  18
TORSDOF 2
ENDMDL
