MODEL 1
REMARK VINA RESULT:      -8.3      0.000      0.000
REMARK  Name = 
REMARK  4 active torsions:
REMARK  status: ('A' for Active; 'I' for Inactive)
REMARK    1  A    between atoms: N_2  and  C_4
REMARK    2  A    between atoms: C_7  and  O_8
REMARK    3  A    between atoms: C_9  and  C_10
REMARK    4  A    between atoms: N_11  and  N_12
REMARK                            x       y       z     vdW  Elec       q    Type
REMARK                         _______ _______ _______ _____ _____    ______ ____
ROOT
ATOM      1  C   UNL     1       5.990   4.549  15.907  0.00  0.00    +0.000 C 
ATOM      2  N   UNL     1       6.836   4.218  16.828  0.00  0.00    +0.000 NA
ENDROOT
BRANCH   2   3
ATOM      3  N   UNL     1       6.432   4.362  18.118  0.00  0.00    +0.000 N 
ATOM      4  C   UNL     1       5.124   3.908  18.399  0.00  0.00    +0.000 A 
ATOM      5  C   UNL     1       4.582   2.817  17.719  0.00  0.00    +0.000 A 
ATOM      6  N   UNL     1       3.330   2.343  17.922  0.00  0.00    +0.000 NA
ATOM      7  C   UNL     1       2.605   2.996  18.840  0.00  0.00    +0.000 A 
ATOM      8  C   UNL     1       1.301   2.584  19.074  0.00  0.00    +0.000 A 
ATOM      9  C   UNL     1       0.497   3.226  20.013  0.00  0.00    +0.000 A 
ATOM     10  C   UNL     1       1.012   4.294  20.735  0.00  0.00    +0.000 A 
ATOM     11  C   UNL     1       2.325   4.717  20.506  0.00  0.00    +0.000 A 
ATOM     12  C   UNL     1       3.140   4.095  19.563  0.00  0.00    +0.000 A 
ATOM     13  N   UNL     1       4.400   4.543  19.349  0.00  0.00    +0.000 NA
ATOM     14  H   UNL     1       6.591   5.242  18.608  0.00  0.00    +0.000 HD
ENDBRANCH   2   3
BRANCH   1  19
ATOM     15  C   UNL     1       5.967   3.368  12.324  0.00  0.00    +0.000 A 
ATOM     16  C   UNL     1       7.027   4.099  11.771  0.00  0.00    +0.000 A 
ATOM     17  C   UNL     1       7.759   4.975  12.580  0.00  0.00    +0.000 A 
ATOM     18  C   UNL     1       7.429   5.121  13.930  0.00  0.00    +0.000 A 
ATOM     19  C   UNL     1       6.368   4.394  14.482  0.00  0.00    +0.000 A 
ATOM     20  C   UNL     1       5.636   3.509  13.676  0.00  0.00    +0.000 A 
BRANCH  15  22
ATOM     21  O   UNL     1       4.073   2.828  11.100  0.00  0.00    +0.000 OA
ATOM     22  N   UNL     1       5.192   2.451  11.477  0.00  0.00    +0.000 N 
ATOM     23  O   UNL     1       5.698   1.359  11.192  0.00  0.00    +0.000 OA
ENDBRANCH  15  22
BRANCH  18  24
ATOM     24  O   UNL     1       8.146   5.981  14.712  0.00  0.00    +0.000 OA
ATOM     25  H   UNL     1       7.549   6.649  15.093  0.00  0.00    +0.000 HD
ENDBRANCH  18  24
ENDBRANCH   1  19
TORSDOF 4
ENDMDL
MODEL 2
REMARK VINA RESULT:      -8.2      4.073      5.510
REMARK  Name = 
REMARK  4 active torsions:
REMARK  status: ('A' for Active; 'I' for Inactive)
REMARK    1  A    between atoms: N_2  and  C_4
REMARK    2  A    between atoms: C_7  and  O_8
REMARK    3  A    between atoms: C_9  and  C_10
REMARK    4  A    between atoms: N_11  and  N_12
REMARK                            x       y       z     vdW  Elec       q    Type
REMARK                         _______ _______ _______ _____ _____    ______ ____
ROOT
ATOM      1  C   UNL     1       3.897   4.997  18.710  0.00  0.00    +0.000 C 
ATOM      2  N   UNL     1       3.641   6.071  19.384  0.00  0.00    +0.000 NA
ENDROOT
BRANCH   2   3
ATOM      3  N   UNL     1       2.478   6.096  20.087  0.00  0.00    +0.000 N 
ATOM      4  C   UNL     1       1.851   7.359  20.181  0.00  0.00    +0.000 A 
ATOM      5  C   UNL     1       1.943   8.284  19.141  0.00  0.00    +0.000 A 
ATOM      6  N   UNL     1       1.388   9.518  19.172  0.00  0.00    +0.000 NA
ATOM      7  C   UNL     1       0.721   9.825  20.293  0.00  0.00    +0.000 A 
ATOM      8  C   UNL     1       0.155  11.086  20.406  0.00  0.00    +0.000 A 
ATOM      9  C   UNL     1      -0.548  11.465  21.548  0.00  0.00    +0.000 A 
ATOM     10  C   UNL     1      -0.691  10.559  22.591  0.00  0.00    +0.000 A 
ATOM     11  C   UNL     1      -0.123   9.286  22.487  0.00  0.00    +0.000 A 
ATOM     12  C   UNL     1       0.592   8.893  21.357  0.00  0.00    +0.000 A 
ATOM     13  N   UNL     1       1.148   7.660  21.296  0.00  0.00    +0.000 NA
ATOM     14  H   UNL     1       2.416   5.626  20.990  0.00  0.00    +0.000 HD
ENDBRANCH   2   3
BRANCH   1  19
ATOM     15  C   UNL     1       6.287   4.742  15.801  0.00  0.00    +0.000 A 
ATOM     16  C   UNL     1       7.530   4.766  16.446  0.00  0.00    +0.000 A 
ATOM     17  C   UNL     1       7.586   4.855  17.841  0.00  0.00    +0.000 A 
ATOM     18  C   UNL     1       6.404   4.925  18.584  0.00  0.00    +0.000 A 
ATOM     19  C   UNL     1       5.161   4.905  17.941  0.00  0.00    +0.000 A 
ATOM     20  C   UNL     1       5.102   4.808  16.542  0.00  0.00    +0.000 A 
BRANCH  15  22
ATOM     21  O   UNL     1       5.245   4.078  13.838  0.00  0.00    +0.000 OA
ATOM     22  N   UNL     1       6.224   4.654  14.336  0.00  0.00    +0.000 N 
ATOM     23  O   UNL     1       7.148   5.156  13.686  0.00  0.00    +0.000 OA
ENDBRANCH  15  22
BRANCH  18  24
ATOM     24  O   UNL     1       6.466   5.017  19.945  0.00  0.00    +0.000 OA
ATOM     25  H   UNL     1       6.938   5.830  20.196  0.00  0.00    +0.000 HD
ENDBRANCH  18  24
ENDBRANCH   1  19
TORSDOF 4
ENDMDL
MODEL 3
REMARK VINA RESULT:      -8.0      1.336      1.571
REMARK  Name = 
REMARK  4 active torsions:
REMARK  status: ('A' for Active; 'I' for Inactive)
REMARK    1  A    between atoms: N_2  and  C_4
REMARK    2  A    between atoms: C_7  and  O_8
REMARK    3  A    between atoms: C_9  and  C_10
REMARK    4  A    between atoms: N_11  and  N_12
REMARK                            x       y       z     vdW  Elec       q    Type
REMARK                         _______ _______ _______ _____ _____    ______ ____
ROOT
ATOM      1  C   UNL     1       5.153   5.168  15.694  0.00  0.00    +0.000 C 
ATOM      2  N   UNL     1       5.268   6.402  16.063  0.00  0.00    +0.000 NA
ENDROOT
BRANCH   2   3
ATOM      3  N   UNL     1       4.626   6.769  17.203  0.00  0.00    +0.000 N 
ATOM      4  C   UNL     1       4.365   5.722  18.117  0.00  0.00    +0.000 A 
ATOM      5  C   UNL     1       5.242   4.645  18.242  0.00  0.00    +0.000 A 
ATOM      6  N   UNL     1       5.044   3.600  19.079  0.00  0.00    +0.000 NA
ATOM      7  C   UNL     1       3.922   3.647  19.809  0.00  0.00    +0.000 A 
ATOM      8  C   UNL     1       3.640   2.591  20.664  0.00  0.00    +0.000 A 
ATOM      9  C   UNL     1       2.488   2.581  21.447  0.00  0.00    +0.000 A 
ATOM     10  C   UNL     1       1.607   3.652  21.375  0.00  0.00    +0.000 A 
ATOM     11  C   UNL     1       1.882   4.720  20.516  0.00  0.00    +0.000 A 
ATOM     12  C   UNL     1       3.024   4.743  19.718  0.00  0.00    +0.000 A 
ATOM     13  N   UNL     1       3.251   5.782  18.881  0.00  0.00    +0.000 NA
ATOM     14  H   UNL     1       3.811   7.380  17.158  0.00  0.00    +0.000 HD
ENDBRANCH   2   3
BRANCH   1  19
ATOM     15  C   UNL     1       5.809   3.425  12.413  0.00  0.00    +0.000 A 
ATOM     16  C   UNL     1       7.115   3.839  12.122  0.00  0.00    +0.000 A 
ATOM     17  C   UNL     1       7.788   4.684  13.011  0.00  0.00    +0.000 A 
ATOM     18  C   UNL     1       7.155   5.115  14.180  0.00  0.00    +0.000 A 
ATOM     19  C   UNL     1       5.848   4.706  14.470  0.00  0.00    +0.000 A 
ATOM     20  C   UNL     1       5.173   3.852  13.584  0.00  0.00    +0.000 A 
BRANCH  15  22
ATOM     21  O   UNL     1       4.009   2.937  11.034  0.00  0.00    +0.000 OA
ATOM     22  N   UNL     1       5.096   2.542  11.480  0.00  0.00    +0.000 N 
ATOM     23  O   UNL     1       5.619   1.458  11.194  0.00  0.00    +0.000 OA
ENDBRANCH  15  22
BRANCH  18  24
ATOM     24  O   UNL     1       7.816   5.944  15.041  0.00  0.00    +0.000 OA
ATOM     25  H   UNL     1       8.414   6.525  14.539  0.00  0.00    +0.000 HD
ENDBRANCH  18  24
ENDBRANCH   1  19
TORSDOF 4
ENDMDL
MODEL 4
REMARK VINA RESULT:      -8.0      5.036      6.563
REMARK  Name = 
REMARK  4 active torsions:
REMARK  status: ('A' for Active; 'I' for Inactive)
REMARK    1  A    between atoms: N_2  and  C_4
REMARK    2  A    between atoms: C_7  and  O_8
REMARK    3  A    between atoms: C_9  and  C_10
REMARK    4  A    between atoms: N_11  and  N_12
REMARK                            x       y       z     vdW  Elec       q    Type
REMARK                         _______ _______ _______ _____ _____    ______ ____
ROOT
ATOM      1  C   UNL     1       3.455   7.780  17.690  0.00  0.00    +0.000 C 
ATOM      2  N   UNL     1       2.198   8.079  17.763  0.00  0.00    +0.000 NA
ENDROOT
BRANCH   2   3
ATOM      3  N   UNL     1       1.887   9.366  18.066  0.00  0.00    +0.000 N 
ATOM      4  C   UNL     1       1.282   9.564  19.328  0.00  0.00    +0.000 A 
ATOM      5  C   UNL     1       1.610   8.754  20.415  0.00  0.00    +0.000 A 
ATOM      6  N   UNL     1       1.054   8.873  21.644  0.00  0.00    +0.000 NA
ATOM      7  C   UNL     1       0.136   9.840  21.774  0.00  0.00    +0.000 A 
ATOM      8  C   UNL     1      -0.497   9.995  22.998  0.00  0.00    +0.000 A 
ATOM      9  C   UNL     1      -1.463  10.981  23.194  0.00  0.00    +0.000 A 
ATOM     10  C   UNL     1      -1.792  11.830  22.145  0.00  0.00    +0.000 A 
ATOM     11  C   UNL     1      -1.159  11.681  20.907  0.00  0.00    +0.000 A 
ATOM     12  C   UNL     1      -0.199  10.694  20.690  0.00  0.00    +0.000 A 
ATOM     13  N   UNL     1       0.379  10.561  19.473  0.00  0.00    +0.000 NA
ATOM     14  H   UNL     1       1.419   9.956  17.378  0.00  0.00    +0.000 HD
ENDBRANCH   2   3
BRANCH   1  19
ATOM     15  C   UNL     1       5.310   4.897  16.115  0.00  0.00    +0.000 A 
ATOM     16  C   UNL     1       4.666   3.792  16.686  0.00  0.00    +0.000 A 
ATOM     17  C   UNL     1       3.611   3.992  17.583  0.00  0.00    +0.000 A 
ATOM     18  C   UNL     1       3.208   5.291  17.909  0.00  0.00    +0.000 A 
ATOM     19  C   UNL     1       3.854   6.395  17.342  0.00  0.00    +0.000 A 
ATOM     20  C   UNL     1       4.908   6.197  16.437  0.00  0.00    +0.000 A 
BRANCH  15  22
ATOM     21  O   UNL     1       7.404   5.440  15.280  0.00  0.00    +0.000 OA
ATOM     22  N   UNL     1       6.423   4.691  15.178  0.00  0.00    +0.000 N 
ATOM     23  O   UNL     1       6.315   3.785  14.342  0.00  0.00    +0.000 OA
ENDBRANCH  15  22
BRANCH  18  24
ATOM     24  O   UNL     1       2.180   5.479  18.788  0.00  0.00    +0.000 OA
ATOM     25  H   UNL     1       1.754   4.625  18.979  0.00  0.00    +0.000 HD
ENDBRANCH  18  24
ENDBRANCH   1  19
TORSDOF 4
ENDMDL
MODEL 5
REMARK VINA RESULT:      -8.0      6.609      8.907
REMARK  Name = 
REMARK  4 active torsions:
REMARK  status: ('A' for Active; 'I' for Inactive)
REMARK    1  A    between atoms: N_2  and  C_4
REMARK    2  A    between atoms: C_7  and  O_8
REMARK    3  A    between atoms: C_9  and  C_10
REMARK    4  A    between atoms: N_11  and  N_12
REMARK                            x       y       z     vdW  Elec       q    Type
REMARK                         _______ _______ _______ _____ _____    ______ ____
ROOT
ATOM      1  C   UNL     1       0.311   9.228  20.585  0.00  0.00    +0.000 C 
ATOM      2  N   UNL     1       1.455   8.727  20.250  0.00  0.00    +0.000 NA
ENDROOT
BRANCH   2   3
ATOM      3  N   UNL     1       1.836   7.583  20.876  0.00  0.00    +0.000 N 
ATOM      4  C   UNL     1       2.115   6.489  20.026  0.00  0.00    +0.000 A 
ATOM      5  C   UNL     1       2.660   6.688  18.758  0.00  0.00    +0.000 A 
ATOM      6  N   UNL     1       2.932   5.690  17.884  0.00  0.00    +0.000 NA
ATOM      7  C   UNL     1       2.640   4.453  18.309  0.00  0.00    +0.000 A 
ATOM      8  C   UNL     1       2.863   3.385  17.451  0.00  0.00    +0.000 A 
ATOM      9  C   UNL     1       2.577   2.077  17.834  0.00  0.00    +0.000 A 
ATOM     10  C   UNL     1       2.066   1.835  19.103  0.00  0.00    +0.000 A 
ATOM     11  C   UNL     1       1.837   2.904  19.974  0.00  0.00    +0.000 A 
ATOM     12  C   UNL     1       2.107   4.220  19.604  0.00  0.00    +0.000 A 
ATOM     13  N   UNL     1       1.854   5.236  20.463  0.00  0.00    +0.000 NA
ATOM     14  H   UNL     1       1.318   7.248  21.689  0.00  0.00    +0.000 HD
ENDBRANCH   2   3
BRANCH   1  19
ATOM     15  C   UNL     1      -1.648  11.530  18.327  0.00  0.00    +0.000 A 
ATOM     16  C   UNL     1      -1.121  12.784  18.665  0.00  0.00    +0.000 A 
ATOM     17  C   UNL     1      -0.112  12.873  19.630  0.00  0.00    +0.000 A 
ATOM     18  C   UNL     1       0.362  11.716  20.255  0.00  0.00    +0.000 A 
ATOM     19  C   UNL     1      -0.166  10.464  19.921  0.00  0.00    +0.000 A 
ATOM     20  C   UNL     1      -1.173  10.370  18.948  0.00  0.00    +0.000 A 
BRANCH  15  22
ATOM     21  O   UNL     1      -3.877  11.629  17.695  0.00  0.00    +0.000 OA
ATOM     22  N   UNL     1      -2.712  11.432  17.319  0.00  0.00    +0.000 N 
ATOM     23  O   UNL     1      -2.386  11.159  16.158  0.00  0.00    +0.000 OA
ENDBRANCH  15  22
BRANCH  18  24
ATOM     24  O   UNL     1       1.345  11.812  21.199  0.00  0.00    +0.000 OA
ATOM     25  H   UNL     1       1.570  12.748  21.341  0.00  0.00    +0.000 HD
ENDBRANCH  18  24
ENDBRANCH   1  19
TORSDOF 4
ENDMDL
MODEL 6
REMARK VINA RESULT:      -7.9      5.360      6.855
REMARK  Name = 
REMARK  4 active torsions:
REMARK  status: ('A' for Active; 'I' for Inactive)
REMARK    1  A    between atoms: N_2  and  C_4
REMARK    2  A    between atoms: C_7  and  O_8
REMARK    3  A    between atoms: C_9  and  C_10
REMARK    4  A    between atoms: N_11  and  N_12
REMARK                            x       y       z     vdW  Elec       q    Type
REMARK                         _______ _______ _______ _____ _____    ______ ____
ROOT
ATOM      1  C   UNL     1       3.329   7.668  17.768  0.00  0.00    +0.000 C 
ATOM      2  N   UNL     1       2.092   8.003  17.945  0.00  0.00    +0.000 NA
ENDROOT
BRANCH   2   3
ATOM      3  N   UNL     1       1.839   9.311  18.216  0.00  0.00    +0.000 N 
ATOM      4  C   UNL     1       1.198   9.563  19.450  0.00  0.00    +0.000 A 
ATOM      5  C   UNL     1       1.441   8.756  20.561  0.00  0.00    +0.000 A 
ATOM      6  N   UNL     1       0.846   8.925  21.766  0.00  0.00    +0.000 NA
ATOM      7  C   UNL     1      -0.022   9.943  21.845  0.00  0.00    +0.000 A 
ATOM      8  C   UNL     1      -0.693  10.153  23.041  0.00  0.00    +0.000 A 
ATOM      9  C   UNL     1      -1.610  11.192  23.184  0.00  0.00    +0.000 A 
ATOM     10  C   UNL     1      -1.852  12.039  22.110  0.00  0.00    +0.000 A 
ATOM     11  C   UNL     1      -1.182  11.834  20.900  0.00  0.00    +0.000 A 
ATOM     12  C   UNL     1      -0.270  10.794  20.736  0.00  0.00    +0.000 A 
ATOM     13  N   UNL     1       0.346  10.609  19.545  0.00  0.00    +0.000 NA
ATOM     14  H   UNL     1       1.430   9.912  17.501  0.00  0.00    +0.000 HD
ENDBRANCH   2   3
BRANCH   1  19
ATOM     15  C   UNL     1       3.113   3.905  17.608  0.00  0.00    +0.000 A 
ATOM     16  C   UNL     1       4.238   3.583  16.837  0.00  0.00    +0.000 A 
ATOM     17  C   UNL     1       5.077   4.604  16.378  0.00  0.00    +0.000 A 
ATOM     18  C   UNL     1       4.788   5.937  16.683  0.00  0.00    +0.000 A 
ATOM     19  C   UNL     1       3.662   6.259  17.449  0.00  0.00    +0.000 A 
ATOM     20  C   UNL     1       2.823   5.237  17.918  0.00  0.00    +0.000 A 
BRANCH  15  22
ATOM     21  O   UNL     1       2.756   1.800  18.513  0.00  0.00    +0.000 OA
ATOM     22  N   UNL     1       2.226   2.837  18.087  0.00  0.00    +0.000 N 
ATOM     23  O   UNL     1       1.005   3.032  18.039  0.00  0.00    +0.000 OA
ENDBRANCH  15  22
BRANCH  18  24
ATOM     24  O   UNL     1       5.610   6.929  16.228  0.00  0.00    +0.000 OA
ATOM     25  H   UNL     1       5.549   7.699  16.819  0.00  0.00    +0.000 HD
ENDBRANCH  18  24
ENDBRANCH   1  19
TORSDOF 4
ENDMDL
MODEL 7
REMARK VINA RESULT:      -7.8      5.681      7.470
REMARK  Name = 
REMARK  4 active torsions:
REMARK  status: ('A' for Active; 'I' for Inactive)
REMARK    1  A    between atoms: N_2  and  C_4
REMARK    2  A    between atoms: C_7  and  O_8
REMARK    3  A    between atoms: C_9  and  C_10
REMARK    4  A    between atoms: N_11  and  N_12
REMARK                            x       y       z     vdW  Elec       q    Type
REMARK                         _______ _______ _______ _____ _____    ______ ____
ROOT
ATOM      1  C   UNL     1       2.684   7.093  17.965  0.00  0.00    +0.000 C 
ATOM      2  N   UNL     1       2.058   7.593  18.980  0.00  0.00    +0.000 NA
ENDROOT
BRANCH   2   3
ATOM      3  N   UNL     1       1.842   8.935  18.973  0.00  0.00    +0.000 N 
ATOM      4  C   UNL     1       1.072   9.432  20.049  0.00  0.00    +0.000 A 
ATOM      5  C   UNL     1       1.138   8.842  21.311  0.00  0.00    +0.000 A 
ATOM      6  N   UNL     1       0.413   9.252  22.378  0.00  0.00    +0.000 NA
ATOM      7  C   UNL     1      -0.405  10.290  22.159  0.00  0.00    +0.000 A 
ATOM      8  C   UNL     1      -1.202  10.741  23.201  0.00  0.00    +0.000 A 
ATOM      9  C   UNL     1      -2.075  11.814  23.033  0.00  0.00    +0.000 A 
ATOM     10  C   UNL     1      -2.143  12.450  21.800  0.00  0.00    +0.000 A 
ATOM     11  C   UNL     1      -1.344  12.003  20.744  0.00  0.00    +0.000 A 
ATOM     12  C   UNL     1      -0.474  10.924  20.890  0.00  0.00    +0.000 A 
ATOM     13  N   UNL     1       0.270  10.502  19.841  0.00  0.00    +0.000 NA
ATOM     14  H   UNL     1       1.553   9.402  18.114  0.00  0.00    +0.000 HD
ENDBRANCH   2   3
BRANCH   1  19
ATOM     15  C   UNL     1       2.234   3.383  18.480  0.00  0.00    +0.000 A 
ATOM     16  C   UNL     1       3.337   2.859  17.794  0.00  0.00    +0.000 A 
ATOM     17  C   UNL     1       4.239   3.727  17.169  0.00  0.00    +0.000 A 
ATOM     18  C   UNL     1       4.034   5.109  17.227  0.00  0.00    +0.000 A 
ATOM     19  C   UNL     1       2.930   5.632  17.908  0.00  0.00    +0.000 A 
ATOM     20  C   UNL     1       2.027   4.765  18.543  0.00  0.00    +0.000 A 
BRANCH  15  22
ATOM     21  O   UNL     1       0.318   2.076  18.462  0.00  0.00    +0.000 OA
ATOM     22  N   UNL     1       1.281   2.475  19.133  0.00  0.00    +0.000 N 
ATOM     23  O   UNL     1       1.493   2.162  20.311  0.00  0.00    +0.000 OA
ENDBRANCH  15  22
BRANCH  18  24
ATOM     24  O   UNL     1       4.916   5.950  16.610  0.00  0.00    +0.000 OA
ATOM     25  H   UNL     1       5.192   5.566  15.760  0.00  0.00    +0.000 HD
ENDBRANCH  18  24
ENDBRANCH   1  19
TORSDOF 4
ENDMDL
MODEL 8
REMARK VINA RESULT:      -7.8      3.908      8.095
REMARK  Name = 
REMARK  4 active torsions:
REMARK  status: ('A' for Active; 'I' for Inactive)
REMARK    1  A    between atoms: N_2  and  C_4
REMARK    2  A    between atoms: C_7  and  O_8
REMARK    3  A    between atoms: C_9  and  C_10
REMARK    4  A    between atoms: N_11  and  N_12
REMARK                            x       y       z     vdW  Elec       q    Type
REMARK                         _______ _______ _______ _____ _____    ______ ____
ROOT
ATOM      1  C   UNL     1       2.992   5.265  17.894  0.00  0.00    +0.000 C 
ATOM      2  N   UNL     1       4.095   4.670  18.216  0.00  0.00    +0.000 NA
ENDROOT
BRANCH   2   3
ATOM      3  N   UNL     1       4.542   3.701  17.374  0.00  0.00    +0.000 N 
ATOM      4  C   UNL     1       5.394   4.142  16.337  0.00  0.00    +0.000 A 
ATOM      5  C   UNL     1       6.265   5.214  16.532  0.00  0.00    +0.000 A 
ATOM      6  N   UNL     1       7.091   5.703  15.578  0.00  0.00    +0.000 NA
ATOM      7  C   UNL     1       7.033   5.087  14.390  0.00  0.00    +0.000 A 
ATOM      8  C   UNL     1       7.830   5.558  13.356  0.00  0.00    +0.000 A 
ATOM      9  C   UNL     1       7.810   4.961  12.097  0.00  0.00    +0.000 A 
ATOM     10  C   UNL     1       6.982   3.869  11.874  0.00  0.00    +0.000 A 
ATOM     11  C   UNL     1       6.174   3.388  12.909  0.00  0.00    +0.000 A 
ATOM     12  C   UNL     1       6.172   3.979  14.171  0.00  0.00    +0.000 A 
ATOM     13  N   UNL     1       5.363   3.502  15.146  0.00  0.00    +0.000 NA
ATOM     14  H   UNL     1       3.892   3.011  16.999  0.00  0.00    +0.000 HD
ENDBRANCH   2   3
BRANCH   1  19
ATOM     15  C   UNL     1       1.769   8.650  19.025  0.00  0.00    +0.000 A 
ATOM     16  C   UNL     1       1.442   8.407  20.366  0.00  0.00    +0.000 A 
ATOM     17  C   UNL     1       1.635   7.131  20.904  0.00  0.00    +0.000 A 
ATOM     18  C   UNL     1       2.146   6.104  20.104  0.00  0.00    +0.000 A 
ATOM     19  C   UNL     1       2.468   6.345  18.764  0.00  0.00    +0.000 A 
ATOM     20  C   UNL     1       2.283   7.627  18.223  0.00  0.00    +0.000 A 
BRANCH  15  22
ATOM     21  O   UNL     1       2.265  10.311  17.484  0.00  0.00    +0.000 OA
ATOM     22  N   UNL     1       1.563   9.988  18.453  0.00  0.00    +0.000 N 
ATOM     23  O   UNL     1       0.704  10.713  18.971  0.00  0.00    +0.000 OA
ENDBRANCH  15  22
BRANCH  18  24
ATOM     24  O   UNL     1       2.327   4.859  20.636  0.00  0.00    +0.000 OA
ATOM     25  H   UNL     1       2.305   4.195  19.925  0.00  0.00    +0.000 HD
ENDBRANCH  18  24
ENDBRANCH   1  19
TORSDOF 4
ENDMDL
MODEL 9
REMARK VINA RESULT:      -7.7      6.061      8.201
REMARK  Name = 
REMARK  4 active torsions:
REMARK  status: ('A' for Active; 'I' for Inactive)
REMARK    1  A    between atoms: N_2  and  C_4
REMARK    2  A    between atoms: C_7  and  O_8
REMARK    3  A    between atoms: C_9  and  C_10
REMARK    4  A    between atoms: N_11  and  N_12
REMARK                            x       y       z     vdW  Elec       q    Type
REMARK                         _______ _______ _______ _____ _____    ______ ____
ROOT
ATOM      1  C   UNL     1       2.685   7.141  18.571  0.00  0.00    +0.000 C 
ATOM      2  N   UNL     1       1.977   7.755  19.464  0.00  0.00    +0.000 NA
ENDROOT
BRANCH   2   3
ATOM      3  N   UNL     1       1.624   9.040  19.194  0.00  0.00    +0.000 N 
ATOM      4  C   UNL     1       0.849   9.678  20.189  0.00  0.00    +0.000 A 
ATOM      5  C   UNL     1       1.026   9.375  21.539  0.00  0.00    +0.000 A 
ATOM      6  N   UNL     1       0.304   9.931  22.541  0.00  0.00    +0.000 NA
ATOM      7  C   UNL     1      -0.625  10.819  22.163  0.00  0.00    +0.000 A 
ATOM      8  C   UNL     1      -1.423  11.402  23.137  0.00  0.00    +0.000 A 
ATOM      9  C   UNL     1      -2.408  12.330  22.805  0.00  0.00    +0.000 A 
ATOM     10  C   UNL     1      -2.590  12.683  21.474  0.00  0.00    +0.000 A 
ATOM     11  C   UNL     1      -1.792  12.100  20.486  0.00  0.00    +0.000 A 
ATOM     12  C   UNL     1      -0.809  11.163  20.797  0.00  0.00    +0.000 A 
ATOM     13  N   UNL     1      -0.067  10.600  19.815  0.00  0.00    +0.000 NA
ATOM     14  H   UNL     1       1.254   9.287  18.276  0.00  0.00    +0.000 HD
ENDBRANCH   2   3
BRANCH   1  19
ATOM     15  C   UNL     1       2.837   3.682  20.070  0.00  0.00    +0.000 A 
ATOM     16  C   UNL     1       3.780   3.052  19.248  0.00  0.00    +0.000 A 
ATOM     17  C   UNL     1       4.377   3.768  18.205  0.00  0.00    +0.000 A 
ATOM     18  C   UNL     1       4.028   5.103  17.983  0.00  0.00    +0.000 A 
ATOM     19  C   UNL     1       3.082   5.732  18.801  0.00  0.00    +0.000 A 
ATOM     20  C   UNL     1       2.487   5.019  19.853  0.00  0.00    +0.000 A 
BRANCH  15  22
ATOM     21  O   UNL     1       2.946   2.414  22.009  0.00  0.00    +0.000 OA
ATOM     22  N   UNL     1       2.202   2.933  21.163  0.00  0.00    +0.000 N 
ATOM     23  O   UNL     1       0.968   2.862  21.176  0.00  0.00    +0.000 OA
ENDBRANCH  15  22
BRANCH  18  24
ATOM     24  O   UNL     1       4.612   5.794  16.960  0.00  0.00    +0.000 OA
ATOM     25  H   UNL     1       5.549   5.955  17.169  0.00  0.00    +0.000 HD
ENDBRANCH  18  24
ENDBRANCH   1  19
TORSDOF 4
ENDMDL
