MODEL 1
REMARK VINA RESULT:      -7.1      0.000      0.000
REMARK  Name = 
REMARK  5 active torsions:
REMARK  status: ('A' for Active; 'I' for Inactive)
REMARK    1  A    between atoms: C_1  and  O_2
REMARK    2  A    between atoms: O_2  and  C_3
REMARK    3  A    between atoms: C_6  and  C_7
REMARK    4  A    between atoms: C_11  and  C_12
REMARK    5  A    between atoms: C_12  and  N_13
REMARK                            x       y       z     vdW  Elec       q    Type
REMARK                         _______ _______ _______ _____ _____    ______ ____
ROOT
ATOM      1  C   UNL     1       2.695   4.796  18.414  0.00  0.00    +0.000 A 
ATOM      2  N   UNL     1       1.804   4.076  17.648  0.00  0.00    +0.000 N 
ATOM      3  N   UNL     1       2.235   2.864  17.279  0.00  0.00    +0.000 NA
ATOM      4  C   UNL     1       3.463   2.808  17.789  0.00  0.00    +0.000 A 
ATOM      5  C   UNL     1       3.821   3.974  18.515  0.00  0.00    +0.000 A 
ATOM      6  H   UNL     1       0.879   4.367  17.350  0.00  0.00    +0.000 HD
ENDROOT
BRANCH   1  10
ATOM      7  C   UNL     1       1.545   8.710  19.774  0.00  0.00    +0.000 A 
ATOM      8  C   UNL     1       2.004   8.522  18.472  0.00  0.00    +0.000 A 
ATOM      9  C   UNL     1       2.418   7.255  18.043  0.00  0.00    +0.000 A 
ATOM     10  C   UNL     1       2.367   6.146  18.894  0.00  0.00    +0.000 A 
ATOM     11  C   UNL     1       1.972   6.376  20.222  0.00  0.00    +0.000 A 
ATOM     12  F   UNL     1       1.974   5.370  21.113  0.00  0.00    +0.000 F 
ATOM     13  C   UNL     1       1.566   7.636  20.661  0.00  0.00    +0.000 A 
BRANCH   7  15
ATOM     14  C   UNL     1      -0.026  10.476  19.591  0.00  0.00    +0.000 C 
ATOM     15  O   UNL     1       1.065   9.883  20.288  0.00  0.00    +0.000 OA
ENDBRANCH   7  15
ENDBRANCH   1  10
BRANCH   5  16
ATOM     16  C   UNL     1       5.127   4.142  19.234  0.00  0.00    +0.000 C 
BRANCH  16  17
ATOM     17  N   UNL     1       5.872   5.372  18.943  0.00  0.00    +0.000 NA
ATOM     18  C   UNL     1       6.074   5.676  17.534  0.00  0.00    +0.000 C 
ATOM     19  C   UNL     1       7.286   6.585  17.543  0.00  0.00    +0.000 C 
ATOM     20  C   UNL     1       7.942   6.341  18.884  0.00  0.00    +0.000 C 
ATOM     21  O   UNL     1       7.220   5.261  19.479  0.00  0.00    +0.000 OA
ENDBRANCH  16  17
ENDBRANCH   5  16
TORSDOF 4
ENDMDL
MODEL 2
REMARK VINA RESULT:      -7.1      3.284      4.720
REMARK  Name = 
REMARK  5 active torsions:
REMARK  status: ('A' for Active; 'I' for Inactive)
REMARK    1  A    between atoms: C_1  and  O_2
REMARK    2  A    between atoms: O_2  and  C_3
REMARK    3  A    between atoms: C_6  and  C_7
REMARK    4  A    between atoms: C_11  and  C_12
REMARK    5  A    between atoms: C_12  and  N_13
REMARK                            x       y       z     vdW  Elec       q    Type
REMARK                         _______ _______ _______ _____ _____    ______ ____
ROOT
ATOM      1  C   UNL     1       5.867   5.415  19.026  0.00  0.00    +0.000 A 
ATOM      2  N   UNL     1       6.912   5.108  19.871  0.00  0.00    +0.000 N 
ATOM      3  N   UNL     1       8.092   5.627  19.513  0.00  0.00    +0.000 NA
ATOM      4  C   UNL     1       7.815   6.262  18.377  0.00  0.00    +0.000 A 
ATOM      5  C   UNL     1       6.446   6.179  18.009  0.00  0.00    +0.000 A 
ATOM      6  H   UNL     1       6.871   4.546  20.714  0.00  0.00    +0.000 HD
ENDROOT
BRANCH   1  10
ATOM      7  C   UNL     1       1.856   3.969  19.584  0.00  0.00    +0.000 A 
ATOM      8  C   UNL     1       2.152   5.317  19.768  0.00  0.00    +0.000 A 
ATOM      9  C   UNL     1       3.466   5.780  19.627  0.00  0.00    +0.000 A 
ATOM     10  C   UNL     1       4.509   4.914  19.283  0.00  0.00    +0.000 A 
ATOM     11  C   UNL     1       4.198   3.549  19.176  0.00  0.00    +0.000 A 
ATOM     12  F   UNL     1       5.167   2.652  18.923  0.00  0.00    +0.000 F 
ATOM     13  C   UNL     1       2.894   3.077  19.323  0.00  0.00    +0.000 A 
BRANCH   7  15
ATOM     14  C   UNL     1       0.449   2.157  18.985  0.00  0.00    +0.000 C 
ATOM     15  O   UNL     1       0.608   3.411  19.641  0.00  0.00    +0.000 OA
ENDBRANCH   7  15
ENDBRANCH   1  10
BRANCH   5  16
ATOM     16  C   UNL     1       5.863   6.852  16.802  0.00  0.00    +0.000 C 
BRANCH  16  17
ATOM     17  N   UNL     1       5.892   6.082  15.554  0.00  0.00    +0.000 NA
ATOM     18  C   UNL     1       5.265   4.770  15.601  0.00  0.00    +0.000 C 
ATOM     19  C   UNL     1       5.924   4.025  14.458  0.00  0.00    +0.000 C 
ATOM     20  C   UNL     1       7.187   4.807  14.167  0.00  0.00    +0.000 C 
ATOM     21  O   UNL     1       7.273   5.802  15.187  0.00  0.00    +0.000 OA
ENDBRANCH  16  17
ENDBRANCH   5  16
TORSDOF 4
ENDMDL
MODEL 3
REMARK VINA RESULT:      -7.0      2.731      5.634
REMARK  Name = 
REMARK  5 active torsions:
REMARK  status: ('A' for Active; 'I' for Inactive)
REMARK    1  A    between atoms: C_1  and  O_2
REMARK    2  A    between atoms: O_2  and  C_3
REMARK    3  A    between atoms: C_6  and  C_7
REMARK    4  A    between atoms: C_11  and  C_12
REMARK    5  A    between atoms: C_12  and  N_13
REMARK                            x       y       z     vdW  Elec       q    Type
REMARK                         _______ _______ _______ _____ _____    ______ ____
ROOT
ATOM      1  C   UNL     1       4.494   3.444  19.290  0.00  0.00    +0.000 A 
ATOM      2  N   UNL     1       5.025   2.406  20.024  0.00  0.00    +0.000 N 
ATOM      3  N   UNL     1       4.233   1.947  21.000  0.00  0.00    +0.000 NA
ATOM      4  C   UNL     1       3.164   2.737  20.923  0.00  0.00    +0.000 A 
ATOM      5  C   UNL     1       3.251   3.694  19.878  0.00  0.00    +0.000 A 
ATOM      6  H   UNL     1       5.932   1.968  19.897  0.00  0.00    +0.000 HD
ENDROOT
BRANCH   1  10
ATOM      7  C   UNL     1       6.778   5.063  16.026  0.00  0.00    +0.000 A 
ATOM      8  C   UNL     1       7.254   5.151  17.332  0.00  0.00    +0.000 A 
ATOM      9  C   UNL     1       6.490   4.661  18.399  0.00  0.00    +0.000 A 
ATOM     10  C   UNL     1       5.246   4.058  18.187  0.00  0.00    +0.000 A 
ATOM     11  C   UNL     1       4.755   4.050  16.871  0.00  0.00    +0.000 A 
ATOM     12  F   UNL     1       3.534   3.555  16.606  0.00  0.00    +0.000 F 
ATOM     13  C   UNL     1       5.505   4.543  15.802  0.00  0.00    +0.000 A 
BRANCH   7  15
ATOM     14  C   UNL     1       7.079   4.815  13.688  0.00  0.00    +0.000 C 
ATOM     15  O   UNL     1       7.453   5.455  14.904  0.00  0.00    +0.000 OA
ENDBRANCH   7  15
ENDBRANCH   1  10
BRANCH   5  16
ATOM     16  C   UNL     1       2.159   4.667  19.544  0.00  0.00    +0.000 C 
BRANCH  16  17
ATOM     17  N   UNL     1       2.566   6.066  19.380  0.00  0.00    +0.000 NA
ATOM     18  C   UNL     1       1.802   7.045  20.139  0.00  0.00    +0.000 C 
ATOM     19  C   UNL     1       2.023   8.333  19.373  0.00  0.00    +0.000 C 
ATOM     20  C   UNL     1       2.494   7.891  18.004  0.00  0.00    +0.000 C 
ATOM     21  O   UNL     1       2.378   6.468  17.994  0.00  0.00    +0.000 OA
ENDBRANCH  16  17
ENDBRANCH   5  16
TORSDOF 4
ENDMDL
MODEL 4
REMARK VINA RESULT:      -7.0      2.122      3.473
REMARK  Name = 
REMARK  5 active torsions:
REMARK  status: ('A' for Active; 'I' for Inactive)
REMARK    1  A    between atoms: C_1  and  O_2
REMARK    2  A    between atoms: O_2  and  C_3
REMARK    3  A    between atoms: C_6  and  C_7
REMARK    4  A    between atoms: C_11  and  C_12
REMARK    5  A    between atoms: C_12  and  N_13
REMARK                            x       y       z     vdW  Elec       q    Type
REMARK                         _______ _______ _______ _____ _____    ______ ____
ROOT
ATOM      1  C   UNL     1       3.527   5.952  17.794  0.00  0.00    +0.000 A 
ATOM      2  N   UNL     1       4.830   6.101  17.369  0.00  0.00    +0.000 N 
ATOM      3  N   UNL     1       5.376   4.999  16.842  0.00  0.00    +0.000 NA
ATOM      4  C   UNL     1       4.410   4.092  16.961  0.00  0.00    +0.000 A 
ATOM      5  C   UNL     1       3.223   4.611  17.542  0.00  0.00    +0.000 A 
ATOM      6  H   UNL     1       5.396   6.942  17.415  0.00  0.00    +0.000 HD
ENDROOT
BRANCH   1  10
ATOM      7  C   UNL     1       1.206   9.137  19.514  0.00  0.00    +0.000 A 
ATOM      8  C   UNL     1       1.679   9.235  18.207  0.00  0.00    +0.000 A 
ATOM      9  C   UNL     1       2.469   8.216  17.662  0.00  0.00    +0.000 A 
ATOM     10  C   UNL     1       2.792   7.072  18.399  0.00  0.00    +0.000 A 
ATOM     11  C   UNL     1       2.367   7.032  19.737  0.00  0.00    +0.000 A 
ATOM     12  F   UNL     1       2.707   5.997  20.525  0.00  0.00    +0.000 F 
ATOM     13  C   UNL     1       1.586   8.046  20.292  0.00  0.00    +0.000 A 
BRANCH   7  15
ATOM     14  C   UNL     1      -0.742  10.482  19.385  0.00  0.00    +0.000 C 
ATOM     15  O   UNL     1       0.385  10.039  20.134  0.00  0.00    +0.000 OA
ENDBRANCH   7  15
ENDBRANCH   1  10
BRANCH   5  16
ATOM     16  C   UNL     1       1.969   3.811  17.738  0.00  0.00    +0.000 C 
BRANCH  16  17
ATOM     17  N   UNL     1       1.880   3.042  18.984  0.00  0.00    +0.000 NA
ATOM     18  C   UNL     1       0.861   3.474  19.927  0.00  0.00    +0.000 C 
ATOM     19  C   UNL     1       1.361   2.939  21.254  0.00  0.00    +0.000 C 
ATOM     20  C   UNL     1       2.833   2.667  21.028  0.00  0.00    +0.000 C 
ATOM     21  O   UNL     1       3.127   3.171  19.724  0.00  0.00    +0.000 OA
ENDBRANCH  16  17
ENDBRANCH   5  16
TORSDOF 4
ENDMDL
MODEL 5
REMARK VINA RESULT:      -7.0      3.380      4.770
REMARK  Name = 
REMARK  5 active torsions:
REMARK  status: ('A' for Active; 'I' for Inactive)
REMARK    1  A    between atoms: C_1  and  O_2
REMARK    2  A    between atoms: O_2  and  C_3
REMARK    3  A    between atoms: C_6  and  C_7
REMARK    4  A    between atoms: C_11  and  C_12
REMARK    5  A    between atoms: C_12  and  N_13
REMARK                            x       y       z     vdW  Elec       q    Type
REMARK                         _______ _______ _______ _____ _____    ______ ____
ROOT
ATOM      1  C   UNL     1       6.030   5.299  18.845  0.00  0.00    +0.000 A 
ATOM      2  N   UNL     1       6.694   4.918  19.992  0.00  0.00    +0.000 N 
ATOM      3  N   UNL     1       7.898   5.479  20.153  0.00  0.00    +0.000 NA
ATOM      4  C   UNL     1       8.039   6.221  19.058  0.00  0.00    +0.000 A 
ATOM      5  C   UNL     1       6.914   6.164  18.194  0.00  0.00    +0.000 A 
ATOM      6  H   UNL     1       6.365   4.275  20.704  0.00  0.00    +0.000 HD
ENDROOT
BRANCH   1  10
ATOM      7  C   UNL     1       2.142   3.630  18.077  0.00  0.00    +0.000 A 
ATOM      8  C   UNL     1       3.280   3.058  17.513  0.00  0.00    +0.000 A 
ATOM      9  C   UNL     1       4.541   3.626  17.729  0.00  0.00    +0.000 A 
ATOM     10  C   UNL     1       4.698   4.765  18.525  0.00  0.00    +0.000 A 
ATOM     11  C   UNL     1       3.529   5.367  19.020  0.00  0.00    +0.000 A 
ATOM     12  F   UNL     1       3.602   6.507  19.729  0.00  0.00    +0.000 F 
ATOM     13  C   UNL     1       2.268   4.812  18.803  0.00  0.00    +0.000 A 
BRANCH   7  15
ATOM     14  C   UNL     1       0.510   2.136  18.929  0.00  0.00    +0.000 C 
ATOM     15  O   UNL     1       0.870   3.137  17.981  0.00  0.00    +0.000 OA
ENDBRANCH   7  15
ENDBRANCH   1  10
BRANCH   5  16
ATOM     16  C   UNL     1       6.797   6.949  16.921  0.00  0.00    +0.000 C 
BRANCH  16  17
ATOM     17  N   UNL     1       6.692   6.166  15.685  0.00  0.00    +0.000 NA
ATOM     18  C   UNL     1       5.341   5.856  15.241  0.00  0.00    +0.000 C 
ATOM     19  C   UNL     1       5.531   4.635  14.365  0.00  0.00    +0.000 C 
ATOM     20  C   UNL     1       6.883   4.082  14.763  0.00  0.00    +0.000 C 
ATOM     21  O   UNL     1       7.308   4.862  15.882  0.00  0.00    +0.000 OA
ENDBRANCH  16  17
ENDBRANCH   5  16
TORSDOF 4
ENDMDL
MODEL 6
REMARK VINA RESULT:      -6.9      2.315      4.952
REMARK  Name = 
REMARK  5 active torsions:
REMARK  status: ('A' for Active; 'I' for Inactive)
REMARK    1  A    between atoms: C_1  and  O_2
REMARK    2  A    between atoms: O_2  and  C_3
REMARK    3  A    between atoms: C_6  and  C_7
REMARK    4  A    between atoms: C_11  and  C_12
REMARK    5  A    between atoms: C_12  and  N_13
REMARK                            x       y       z     vdW  Elec       q    Type
REMARK                         _______ _______ _______ _____ _____    ______ ____
ROOT
ATOM      1  C   UNL     1       4.007   3.230  17.877  0.00  0.00    +0.000 A 
ATOM      2  N   UNL     1       4.312   1.963  18.327  0.00  0.00    +0.000 N 
ATOM      3  N   UNL     1       3.250   1.196  18.602  0.00  0.00    +0.000 NA
ATOM      4  C   UNL     1       2.220   2.002  18.357  0.00  0.00    +0.000 A 
ATOM      5  C   UNL     1       2.611   3.287  17.897  0.00  0.00    +0.000 A 
ATOM      6  H   UNL     1       5.237   1.568  18.464  0.00  0.00    +0.000 HD
ENDROOT
BRANCH   1  10
ATOM      7  C   UNL     1       6.964   6.181  16.857  0.00  0.00    +0.000 A 
ATOM      8  C   UNL     1       6.468   5.314  15.886  0.00  0.00    +0.000 A 
ATOM      9  C   UNL     1       5.537   4.325  16.227  0.00  0.00    +0.000 A 
ATOM     10  C   UNL     1       5.066   4.191  17.537  0.00  0.00    +0.000 A 
ATOM     11  C   UNL     1       5.636   5.027  18.512  0.00  0.00    +0.000 A 
ATOM     12  F   UNL     1       5.286   4.900  19.803  0.00  0.00    +0.000 F 
ATOM     13  C   UNL     1       6.571   6.009  18.183  0.00  0.00    +0.000 A 
BRANCH   7  15
ATOM     14  C   UNL     1       7.830   8.257  17.606  0.00  0.00    +0.000 C 
ATOM     15  O   UNL     1       7.831   7.214  16.635  0.00  0.00    +0.000 OA
ENDBRANCH   7  15
ENDBRANCH   1  10
BRANCH   5  16
ATOM     16  C   UNL     1       1.643   4.362  17.501  0.00  0.00    +0.000 C 
BRANCH  16  17
ATOM     17  N   UNL     1       1.495   5.478  18.441  0.00  0.00    +0.000 NA
ATOM     18  C   UNL     1       2.416   6.590  18.259  0.00  0.00    +0.000 C 
ATOM     19  C   UNL     1       2.436   7.255  19.620  0.00  0.00    +0.000 C 
ATOM     20  C   UNL     1       1.903   6.204  20.570  0.00  0.00    +0.000 C 
ATOM     21  O   UNL     1       1.763   5.013  19.794  0.00  0.00    +0.000 OA
ENDBRANCH  16  17
ENDBRANCH   5  16
TORSDOF 4
ENDMDL
MODEL 7
REMARK VINA RESULT:      -6.9      3.905      4.628
REMARK  Name = 
REMARK  5 active torsions:
REMARK  status: ('A' for Active; 'I' for Inactive)
REMARK    1  A    between atoms: C_1  and  O_2
REMARK    2  A    between atoms: O_2  and  C_3
REMARK    3  A    between atoms: C_6  and  C_7
REMARK    4  A    between atoms: C_11  and  C_12
REMARK    5  A    between atoms: C_12  and  N_13
REMARK                            x       y       z     vdW  Elec       q    Type
REMARK                         _______ _______ _______ _____ _____    ______ ____
ROOT
ATOM      1  C   UNL     1       5.162   4.061  16.354  0.00  0.00    +0.000 A 
ATOM      2  N   UNL     1       5.602   3.156  15.412  0.00  0.00    +0.000 N 
ATOM      3  N   UNL     1       6.464   3.655  14.517  0.00  0.00    +0.000 NA
ATOM      4  C   UNL     1       6.559   4.936  14.866  0.00  0.00    +0.000 A 
ATOM      5  C   UNL     1       5.779   5.265  16.006  0.00  0.00    +0.000 A 
ATOM      6  H   UNL     1       5.346   2.178  15.336  0.00  0.00    +0.000 HD
ENDROOT
BRANCH   1  10
ATOM      7  C   UNL     1       2.446   2.714  19.404  0.00  0.00    +0.000 A 
ATOM      8  C   UNL     1       2.037   2.780  18.074  0.00  0.00    +0.000 A 
ATOM      9  C   UNL     1       2.908   3.258  17.087  0.00  0.00    +0.000 A 
ATOM     10  C   UNL     1       4.209   3.664  17.401  0.00  0.00    +0.000 A 
ATOM     11  C   UNL     1       4.572   3.660  18.758  0.00  0.00    +0.000 A 
ATOM     12  F   UNL     1       5.780   4.109  19.138  0.00  0.00    +0.000 F 
ATOM     13  C   UNL     1       3.708   3.193  19.749  0.00  0.00    +0.000 A 
BRANCH   7  15
ATOM     14  C   UNL     1       1.637   3.029  21.610  0.00  0.00    +0.000 C 
ATOM     15  O   UNL     1       1.706   2.218  20.441  0.00  0.00    +0.000 OA
ENDBRANCH   7  15
ENDBRANCH   1  10
BRANCH   5  16
ATOM     16  C   UNL     1       5.751   6.627  16.634  0.00  0.00    +0.000 C 
BRANCH  16  17
ATOM     17  N   UNL     1       7.049   7.184  17.029  0.00  0.00    +0.000 NA
ATOM     18  C   UNL     1       7.585   6.710  18.297  0.00  0.00    +0.000 C 
ATOM     19  C   UNL     1       8.545   7.810  18.704  0.00  0.00    +0.000 C 
ATOM     20  C   UNL     1       8.123   9.011  17.886  0.00  0.00    +0.000 C 
ATOM     21  O   UNL     1       6.926   8.622  17.212  0.00  0.00    +0.000 OA
ENDBRANCH  16  17
ENDBRANCH   5  16
TORSDOF 4
ENDMDL
MODEL 8
REMARK VINA RESULT:      -6.8      2.376      3.809
REMARK  Name = 
REMARK  5 active torsions:
REMARK  status: ('A' for Active; 'I' for Inactive)
REMARK    1  A    between atoms: C_1  and  O_2
REMARK    2  A    between atoms: O_2  and  C_3
REMARK    3  A    between atoms: C_6  and  C_7
REMARK    4  A    between atoms: C_11  and  C_12
REMARK    5  A    between atoms: C_12  and  N_13
REMARK                            x       y       z     vdW  Elec       q    Type
REMARK                         _______ _______ _______ _____ _____    ______ ____
ROOT
ATOM      1  C   UNL     1       3.379   6.048  18.018  0.00  0.00    +0.000 A 
ATOM      2  N   UNL     1       4.635   6.395  17.568  0.00  0.00    +0.000 N 
ATOM      3  N   UNL     1       5.264   5.439  16.873  0.00  0.00    +0.000 NA
ATOM      4  C   UNL     1       4.405   4.424  16.903  0.00  0.00    +0.000 A 
ATOM      5  C   UNL     1       3.203   4.728  17.595  0.00  0.00    +0.000 A 
ATOM      6  H   UNL     1       5.112   7.279  17.708  0.00  0.00    +0.000 HD
ENDROOT
BRANCH   1  10
ATOM      7  C   UNL     1       1.166   8.888  20.368  0.00  0.00    +0.000 A 
ATOM      8  C   UNL     1       1.470   7.630  20.884  0.00  0.00    +0.000 A 
ATOM      9  C   UNL     1       2.154   6.690  20.103  0.00  0.00    +0.000 A 
ATOM     10  C   UNL     1       2.564   6.990  18.800  0.00  0.00    +0.000 A 
ATOM     11  C   UNL     1       2.181   8.235  18.277  0.00  0.00    +0.000 A 
ATOM     12  F   UNL     1       2.476   8.557  17.006  0.00  0.00    +0.000 F 
ATOM     13  C   UNL     1       1.492   9.175  19.045  0.00  0.00    +0.000 A 
BRANCH   7  15
ATOM     14  C   UNL     1       0.644  11.198  20.469  0.00  0.00    +0.000 C 
ATOM     15  O   UNL     1       0.552   9.902  21.051  0.00  0.00    +0.000 OA
ENDBRANCH   7  15
ENDBRANCH   1  10
BRANCH   5  16
ATOM     16  C   UNL     1       2.051   3.775  17.727  0.00  0.00    +0.000 C 
BRANCH  16  17
ATOM     17  N   UNL     1       1.987   3.005  18.973  0.00  0.00    +0.000 NA
ATOM     18  C   UNL     1       0.860   3.298  19.846  0.00  0.00    +0.000 C 
ATOM     19  C   UNL     1       1.342   2.841  21.207  0.00  0.00    +0.000 C 
ATOM     20  C   UNL     1       2.848   2.769  21.078  0.00  0.00    +0.000 C 
ATOM     21  O   UNL     1       3.155   3.304  19.790  0.00  0.00    +0.000 OA
ENDBRANCH  16  17
ENDBRANCH   5  16
TORSDOF 4
ENDMDL
MODEL 9
REMARK VINA RESULT:      -6.8      0.900      1.048
REMARK  Name = 
REMARK  5 active torsions:
REMARK  status: ('A' for Active; 'I' for Inactive)
REMARK    1  A    between atoms: C_1  and  O_2
REMARK    2  A    between atoms: O_2  and  C_3
REMARK    3  A    between atoms: C_6  and  C_7
REMARK    4  A    between atoms: C_11  and  C_12
REMARK    5  A    between atoms: C_12  and  N_13
REMARK                            x       y       z     vdW  Elec       q    Type
REMARK                         _______ _______ _______ _____ _____    ______ ____
ROOT
ATOM      1  C   UNL     1       2.724   4.465  18.451  0.00  0.00    +0.000 A 
ATOM      2  N   UNL     1       1.811   3.746  17.710  0.00  0.00    +0.000 N 
ATOM      3  N   UNL     1       2.194   2.500  17.406  0.00  0.00    +0.000 NA
ATOM      4  C   UNL     1       3.412   2.417  17.934  0.00  0.00    +0.000 A 
ATOM      5  C   UNL     1       3.812   3.602  18.607  0.00  0.00    +0.000 A 
ATOM      6  H   UNL     1       0.903   4.061  17.385  0.00  0.00    +0.000 HD
ENDROOT
BRANCH   1  10
ATOM      7  C   UNL     1       1.728   8.488  19.597  0.00  0.00    +0.000 A 
ATOM      8  C   UNL     1       2.220   8.219  18.322  0.00  0.00    +0.000 A 
ATOM      9  C   UNL     1       2.584   6.915  17.964  0.00  0.00    +0.000 A 
ATOM     10  C   UNL     1       2.449   5.850  18.860  0.00  0.00    +0.000 A 
ATOM     11  C   UNL     1       2.021   6.159  20.162  0.00  0.00    +0.000 A 
ATOM     12  F   UNL     1       1.942   5.195  21.095  0.00  0.00    +0.000 F 
ATOM     13  C   UNL     1       1.665   7.456  20.531  0.00  0.00    +0.000 A 
BRANCH   7  15
ATOM     14  C   UNL     1       0.960  10.660  19.039  0.00  0.00    +0.000 C 
ATOM     15  O   UNL     1       1.292   9.705  20.043  0.00  0.00    +0.000 OA
ENDBRANCH   7  15
ENDBRANCH   1  10
BRANCH   5  16
ATOM     16  C   UNL     1       5.116   3.750  19.333  0.00  0.00    +0.000 C 
BRANCH  16  17
ATOM     17  N   UNL     1       6.203   4.394  18.587  0.00  0.00    +0.000 NA
ATOM     18  C   UNL     1       6.355   5.826  18.793  0.00  0.00    +0.000 C 
ATOM     19  C   UNL     1       7.088   6.283  17.548  0.00  0.00    +0.000 C 
ATOM     20  C   UNL     1       6.871   5.171  16.544  0.00  0.00    +0.000 C 
ATOM     21  O   UNL     1       5.955   4.264  17.159  0.00  0.00    +0.000 OA
ENDBRANCH  16  17
ENDBRANCH   5  16
TORSDOF 4
ENDMDL
