MODEL 1
REMARK VINA RESULT:      -7.3      0.000      0.000
REMARK  Name = 
REMARK  7 active torsions:
REMARK  status: ('A' for Active; 'I' for Inactive)
REMARK    1  A    between atoms: C_1  and  O_2
REMARK    2  A    between atoms: O_2  and  C_3
REMARK    3  A    between atoms: C_9  and  C_10
REMARK    4  A    between atoms: C_10  and  C_11
REMARK    5  A    between atoms: C_19  and  C_20
REMARK    6  A    between atoms: N_21  and  C_22
REMARK    7  A    between atoms: C_22  and  C_23
REMARK                            x       y       z     vdW  Elec       q    Type
REMARK                         _______ _______ _______ _____ _____    ______ ____
ROOT
ATOM      1  C   UNL     1      -0.611  10.357  22.844  0.00  0.00    +0.000 A 
ATOM      2  C   UNL     1       0.362   9.461  23.273  0.00  0.00    +0.000 A 
ATOM      3  C   UNL     1       1.211   8.833  22.357  0.00  0.00    +0.000 A 
ATOM      4  C   UNL     1       1.049   9.113  20.989  0.00  0.00    +0.000 A 
ATOM      5  C   UNL     1       0.088  10.008  20.527  0.00  0.00    +0.000 A 
ATOM      6  C   UNL     1      -0.747  10.638  21.480  0.00  0.00    +0.000 A 
ATOM      7  C   UNL     1       0.194  10.074  19.093  0.00  0.00    +0.000 A 
ATOM      8  C   UNL     1       1.198   9.185  18.723  0.00  0.00    +0.000 A 
ATOM      9  C   UNL     1       1.732   8.835  17.373  0.00  0.00    +0.000 C 
ATOM     10  N   UNL     1       1.701   8.613  19.879  0.00  0.00    +0.000 N 
ENDROOT
BRANCH   1  12
ATOM     11  C   UNL     1      -2.331  11.963  23.026  0.00  0.00    +0.000 C 
ATOM     12  O   UNL     1      -1.521  10.978  23.657  0.00  0.00    +0.000 OA
ENDBRANCH   1  12
BRANCH   7  13
ATOM     13  C   UNL     1      -0.585  11.011  18.212  0.00  0.00    +0.000 C 
BRANCH  13  14
ATOM     14  C   UNL     1      -1.876  10.482  17.595  0.00  0.00    +0.000 C 
ATOM     15  O   UNL     1      -1.843   9.589  16.743  0.00  0.00    +0.000 OA
ATOM     16  N   UNL     1      -3.060  11.155  17.894  0.00  0.00    +0.000 N 
ATOM     17  C   UNL     1      -4.251  10.834  17.106  0.00  0.00    +0.000 C 
ATOM     18  C   UNL     1      -5.279  11.969  17.172  0.00  0.00    +0.000 C 
ATOM     19  O   UNL     1      -5.607  12.293  18.533  0.00  0.00    +0.000 OA
ATOM     20  C   UNL     1      -4.434  12.719  19.239  0.00  0.00    +0.000 C 
ATOM     21  C   UNL     1      -3.360  11.630  19.243  0.00  0.00    +0.000 C 
ENDBRANCH  13  14
ENDBRANCH   7  13
BRANCH  10  22
ATOM     22  C   UNL     1       2.746   7.584  19.931  0.00  0.00    +0.000 C 
BRANCH  22  23
ATOM     23  C   UNL     1       2.226   6.170  19.742  0.00  0.00    +0.000 A 
ATOM     24  C   UNL     1       1.332   5.577  20.658  0.00  0.00    +0.000 A 
ATOM     25  C   UNL     1       0.798   4.307  20.438  0.00  0.00    +0.000 A 
ATOM     26  C   UNL     1       1.159   3.591  19.301  0.00  0.00    +0.000 A 
ATOM     27  C   UNL     1       2.080   4.132  18.403  0.00  0.00    +0.000 A 
ATOM     28 CL   UNL     1       2.494   3.170  17.023  0.00  0.00    +0.000 Cl
ATOM     29  C   UNL     1       2.626   5.410  18.621  0.00  0.00    +0.000 A 
ATOM     30 CL   UNL     1       3.804   6.061  17.521  0.00  0.00    +0.000 Cl
ENDBRANCH  22  23
ENDBRANCH  10  22
TORSDOF 5
ENDMDL
MODEL 2
REMARK VINA RESULT:      -7.0      2.202      4.652
REMARK  Name = 
REMARK  7 active torsions:
REMARK  status: ('A' for Active; 'I' for Inactive)
REMARK    1  A    between atoms: C_1  and  O_2
REMARK    2  A    between atoms: O_2  and  C_3
REMARK    3  A    between atoms: C_9  and  C_10
REMARK    4  A    between atoms: C_10  and  C_11
REMARK    5  A    between atoms: C_19  and  C_20
REMARK    6  A    between atoms: N_21  and  C_22
REMARK    7  A    between atoms: C_22  and  C_23
REMARK                            x       y       z     vdW  Elec       q    Type
REMARK                         _______ _______ _______ _____ _____    ______ ____
ROOT
ATOM      1  C   UNL     1      -3.763  10.898  17.652  0.00  0.00    +0.000 A 
ATOM      2  C   UNL     1      -2.988   9.816  17.252  0.00  0.00    +0.000 A 
ATOM      3  C   UNL     1      -1.619   9.772  17.536  0.00  0.00    +0.000 A 
ATOM      4  C   UNL     1      -1.040  10.854  18.220  0.00  0.00    +0.000 A 
ATOM      5  C   UNL     1      -1.790  11.950  18.639  0.00  0.00    +0.000 A 
ATOM      6  C   UNL     1      -3.174  11.959  18.349  0.00  0.00    +0.000 A 
ATOM      7  C   UNL     1      -0.904  12.865  19.311  0.00  0.00    +0.000 A 
ATOM      8  C   UNL     1       0.369  12.309  19.249  0.00  0.00    +0.000 A 
ATOM      9  C   UNL     1       1.674  12.817  19.770  0.00  0.00    +0.000 C 
ATOM     10  N   UNL     1       0.270  11.098  18.585  0.00  0.00    +0.000 N 
ENDROOT
BRANCH   1  12
ATOM     11  C   UNL     1      -5.823  11.852  18.304  0.00  0.00    +0.000 C 
ATOM     12  O   UNL     1      -5.095  11.056  17.374  0.00  0.00    +0.000 OA
ENDBRANCH   1  12
BRANCH   7  13
ATOM     13  C   UNL     1      -1.333  14.121  20.017  0.00  0.00    +0.000 C 
BRANCH  13  14
ATOM     14  C   UNL     1      -1.413  14.076  21.540  0.00  0.00    +0.000 C 
ATOM     15  O   UNL     1      -0.427  14.360  22.226  0.00  0.00    +0.000 OA
ATOM     16  N   UNL     1      -2.565  13.540  22.113  0.00  0.00    +0.000 N 
ATOM     17  C   UNL     1      -2.544  13.241  23.546  0.00  0.00    +0.000 C 
ATOM     18  C   UNL     1      -3.621  12.213  23.911  0.00  0.00    +0.000 C 
ATOM     19  O   UNL     1      -4.919  12.643  23.470  0.00  0.00    +0.000 OA
ATOM     20  C   UNL     1      -4.932  12.807  22.046  0.00  0.00    +0.000 C 
ATOM     21  C   UNL     1      -3.898  13.841  21.596  0.00  0.00    +0.000 C 
ENDBRANCH  13  14
ENDBRANCH   7  13
BRANCH  10  22
ATOM     22  C   UNL     1       1.392  10.210  18.266  0.00  0.00    +0.000 C 
BRANCH  22  23
ATOM     23  C   UNL     1       1.529   9.028  19.209  0.00  0.00    +0.000 A 
ATOM     24  C   UNL     1       0.909   9.012  20.476  0.00  0.00    +0.000 A 
ATOM     25  C   UNL     1       0.974   7.892  21.305  0.00  0.00    +0.000 A 
ATOM     26  C   UNL     1       1.676   6.764  20.893  0.00  0.00    +0.000 A 
ATOM     27  C   UNL     1       2.341   6.770  19.667  0.00  0.00    +0.000 A 
ATOM     28 CL   UNL     1       3.210   5.335  19.234  0.00  0.00    +0.000 Cl
ATOM     29  C   UNL     1       2.283   7.897  18.826  0.00  0.00    +0.000 A 
ATOM     30 CL   UNL     1       3.148   7.914  17.318  0.00  0.00    +0.000 Cl
ENDBRANCH  22  23
ENDBRANCH  10  22
TORSDOF 5
ENDMDL
MODEL 3
REMARK VINA RESULT:      -6.8      0.985      1.323
REMARK  Name = 
REMARK  7 active torsions:
REMARK  status: ('A' for Active; 'I' for Inactive)
REMARK    1  A    between atoms: C_1  and  O_2
REMARK    2  A    between atoms: O_2  and  C_3
REMARK    3  A    between atoms: C_9  and  C_10
REMARK    4  A    between atoms: C_10  and  C_11
REMARK    5  A    between atoms: C_19  and  C_20
REMARK    6  A    between atoms: N_21  and  C_22
REMARK    7  A    between atoms: C_22  and  C_23
REMARK                            x       y       z     vdW  Elec       q    Type
REMARK                         _______ _______ _______ _____ _____    ______ ____
ROOT
ATOM      1  C   UNL     1      -0.758  10.301  22.769  0.00  0.00    +0.000 A 
ATOM      2  C   UNL     1       0.257   9.464  23.220  0.00  0.00    +0.000 A 
ATOM      3  C   UNL     1       1.129   8.846  22.319  0.00  0.00    +0.000 A 
ATOM      4  C   UNL     1       0.948   9.075  20.944  0.00  0.00    +0.000 A 
ATOM      5  C   UNL     1      -0.055   9.911  20.460  0.00  0.00    +0.000 A 
ATOM      6  C   UNL     1      -0.913  10.533  21.398  0.00  0.00    +0.000 A 
ATOM      7  C   UNL     1       0.040   9.935  19.024  0.00  0.00    +0.000 A 
ATOM      8  C   UNL     1       1.082   9.082  18.676  0.00  0.00    +0.000 A 
ATOM      9  C   UNL     1       1.625   8.713  17.335  0.00  0.00    +0.000 C 
ATOM     10  N   UNL     1       1.616   8.570  19.846  0.00  0.00    +0.000 N 
ENDROOT
BRANCH   1  12
ATOM     11  C   UNL     1      -2.326  12.050  23.007  0.00  0.00    +0.000 C 
ATOM     12  O   UNL     1      -1.691  10.906  23.568  0.00  0.00    +0.000 OA
ENDBRANCH   1  12
BRANCH   7  13
ATOM     13  C   UNL     1      -0.784  10.808  18.119  0.00  0.00    +0.000 C 
BRANCH  13  14
ATOM     14  C   UNL     1      -1.490  12.003  18.751  0.00  0.00    +0.000 C 
ATOM     15  O   UNL     1      -0.837  12.917  19.264  0.00  0.00    +0.000 OA
ATOM     16  N   UNL     1      -2.876  11.941  18.885  0.00  0.00    +0.000 N 
ATOM     17  C   UNL     1      -3.532  12.945  19.725  0.00  0.00    +0.000 C 
ATOM     18  C   UNL     1      -4.909  12.459  20.193  0.00  0.00    +0.000 C 
ATOM     19  O   UNL     1      -5.729  12.073  19.078  0.00  0.00    +0.000 OA
ATOM     20  C   UNL     1      -5.108  11.004  18.351  0.00  0.00    +0.000 C 
ATOM     21  C   UNL     1      -3.733  11.415  17.824  0.00  0.00    +0.000 C 
ENDBRANCH  13  14
ENDBRANCH   7  13
BRANCH  10  22
ATOM     22  C   UNL     1       2.707   7.592  19.924  0.00  0.00    +0.000 C 
BRANCH  22  23
ATOM     23  C   UNL     1       2.256   6.153  19.741  0.00  0.00    +0.000 A 
ATOM     24  C   UNL     1       1.384   5.525  20.653  0.00  0.00    +0.000 A 
ATOM     25  C   UNL     1       0.913   4.229  20.437  0.00  0.00    +0.000 A 
ATOM     26  C   UNL     1       1.318   3.524  19.309  0.00  0.00    +0.000 A 
ATOM     27  C   UNL     1       2.220   4.101  18.416  0.00  0.00    +0.000 A 
ATOM     28 CL   UNL     1       2.693   3.151  17.047  0.00  0.00    +0.000 Cl
ATOM     29  C   UNL     1       2.703   5.406  18.629  0.00  0.00    +0.000 A 
ATOM     30 CL   UNL     1       3.859   6.105  17.534  0.00  0.00    +0.000 Cl
ENDBRANCH  22  23
ENDBRANCH  10  22
TORSDOF 5
ENDMDL
MODEL 4
REMARK VINA RESULT:      -6.8      4.188      8.378
REMARK  Name = 
REMARK  7 active torsions:
REMARK  status: ('A' for Active; 'I' for Inactive)
REMARK    1  A    between atoms: C_1  and  O_2
REMARK    2  A    between atoms: O_2  and  C_3
REMARK    3  A    between atoms: C_9  and  C_10
REMARK    4  A    between atoms: C_10  and  C_11
REMARK    5  A    between atoms: C_19  and  C_20
REMARK    6  A    between atoms: N_21  and  C_22
REMARK    7  A    between atoms: C_22  and  C_23
REMARK                            x       y       z     vdW  Elec       q    Type
REMARK                         _______ _______ _______ _____ _____    ______ ____
ROOT
ATOM      1  C   UNL     1      -2.691  10.432  17.234  0.00  0.00    +0.000 A 
ATOM      2  C   UNL     1      -3.693  11.363  17.483  0.00  0.00    +0.000 A 
ATOM      3  C   UNL     1      -3.607  12.232  18.575  0.00  0.00    +0.000 A 
ATOM      4  C   UNL     1      -2.495  12.133  19.427  0.00  0.00    +0.000 A 
ATOM      5  C   UNL     1      -1.471  11.215  19.203  0.00  0.00    +0.000 A 
ATOM      6  C   UNL     1      -1.580  10.359  18.082  0.00  0.00    +0.000 A 
ATOM      7  C   UNL     1      -0.489  11.380  20.243  0.00  0.00    +0.000 A 
ATOM      8  C   UNL     1      -0.965  12.374  21.090  0.00  0.00    +0.000 A 
ATOM      9  C   UNL     1      -0.372  12.953  22.333  0.00  0.00    +0.000 C 
ATOM     10  N   UNL     1      -2.176  12.816  20.585  0.00  0.00    +0.000 N 
ENDROOT
BRANCH   1  12
ATOM     11  C   UNL     1      -3.138   9.994  14.957  0.00  0.00    +0.000 C 
ATOM     12  O   UNL     1      -2.711   9.507  16.225  0.00  0.00    +0.000 OA
ENDBRANCH   1  12
BRANCH   7  13
ATOM     13  C   UNL     1       0.830  10.662  20.305  0.00  0.00    +0.000 C 
BRANCH  13  14
ATOM     14  C   UNL     1       0.797   9.156  20.543  0.00  0.00    +0.000 C 
ATOM     15  O   UNL     1       0.194   8.688  21.513  0.00  0.00    +0.000 OA
ATOM     16  N   UNL     1       1.608   8.356  19.739  0.00  0.00    +0.000 N 
ATOM     17  C   UNL     1       1.794   6.956  20.128  0.00  0.00    +0.000 C 
ATOM     18  C   UNL     1       3.066   6.374  19.502  0.00  0.00    +0.000 C 
ATOM     19  O   UNL     1       3.063   6.539  18.074  0.00  0.00    +0.000 OA
ATOM     20  C   UNL     1       3.002   7.931  17.734  0.00  0.00    +0.000 C 
ATOM     21  C   UNL     1       1.743   8.587  18.303  0.00  0.00    +0.000 C 
ENDBRANCH  13  14
ENDBRANCH   7  13
BRANCH  10  22
ATOM     22  C   UNL     1      -3.036  13.830  21.205  0.00  0.00    +0.000 C 
BRANCH  22  23
ATOM     23  C   UNL     1      -3.945  13.284  22.292  0.00  0.00    +0.000 A 
ATOM     24  C   UNL     1      -3.434  12.787  23.509  0.00  0.00    +0.000 A 
ATOM     25  C   UNL     1      -4.278  12.359  24.534  0.00  0.00    +0.000 A 
ATOM     26  C   UNL     1      -5.657  12.404  24.360  0.00  0.00    +0.000 A 
ATOM     27  C   UNL     1      -6.190  12.843  23.148  0.00  0.00    +0.000 A 
ATOM     28 CL   UNL     1      -7.916  12.849  23.000  0.00  0.00    +0.000 Cl
ATOM     29  C   UNL     1      -5.345  13.273  22.107  0.00  0.00    +0.000 A 
ATOM     30 CL   UNL     1      -6.013  13.780  20.585  0.00  0.00    +0.000 Cl
ENDBRANCH  22  23
ENDBRANCH  10  22
TORSDOF 5
ENDMDL
MODEL 5
REMARK VINA RESULT:      -6.7      2.225      2.931
REMARK  Name = 
REMARK  7 active torsions:
REMARK  status: ('A' for Active; 'I' for Inactive)
REMARK    1  A    between atoms: C_1  and  O_2
REMARK    2  A    between atoms: O_2  and  C_3
REMARK    3  A    between atoms: C_9  and  C_10
REMARK    4  A    between atoms: C_10  and  C_11
REMARK    5  A    between atoms: C_19  and  C_20
REMARK    6  A    between atoms: N_21  and  C_22
REMARK    7  A    between atoms: C_22  and  C_23
REMARK                            x       y       z     vdW  Elec       q    Type
REMARK                         _______ _______ _______ _____ _____    ______ ____
ROOT
ATOM      1  C   UNL     1      -0.658  10.247  22.692  0.00  0.00    +0.000 A 
ATOM      2  C   UNL     1       0.275   9.336  23.171  0.00  0.00    +0.000 A 
ATOM      3  C   UNL     1       1.163   8.695  22.301  0.00  0.00    +0.000 A 
ATOM      4  C   UNL     1       1.080   8.980  20.928  0.00  0.00    +0.000 A 
ATOM      5  C   UNL     1       0.160   9.892  20.416  0.00  0.00    +0.000 A 
ATOM      6  C   UNL     1      -0.715  10.534  21.324  0.00  0.00    +0.000 A 
ATOM      7  C   UNL     1       0.345   9.958  18.990  0.00  0.00    +0.000 A 
ATOM      8  C   UNL     1       1.353   9.054  18.673  0.00  0.00    +0.000 A 
ATOM      9  C   UNL     1       1.954   8.697  17.353  0.00  0.00    +0.000 C 
ATOM     10  N   UNL     1       1.783   8.471  19.853  0.00  0.00    +0.000 N 
ENDROOT
BRANCH   1  12
ATOM     11  C   UNL     1      -1.914  12.213  23.059  0.00  0.00    +0.000 C 
ATOM     12  O   UNL     1      -1.601  10.882  23.456  0.00  0.00    +0.000 OA
ENDBRANCH   1  12
BRANCH   7  13
ATOM     13  C   UNL     1      -0.369  10.909  18.071  0.00  0.00    +0.000 C 
BRANCH  13  14
ATOM     14  C   UNL     1      -0.839  12.234  18.662  0.00  0.00    +0.000 C 
ATOM     15  O   UNL     1      -2.033  12.415  18.922  0.00  0.00    +0.000 OA
ATOM     16  N   UNL     1       0.083  13.277  18.729  0.00  0.00    +0.000 N 
ATOM     17  C   UNL     1      -0.417  14.619  19.035  0.00  0.00    +0.000 C 
ATOM     18  C   UNL     1       0.569  15.695  18.568  0.00  0.00    +0.000 C 
ATOM     19  O   UNL     1       1.878  15.472  19.116  0.00  0.00    +0.000 OA
ATOM     20  C   UNL     1       2.384  14.199  18.693  0.00  0.00    +0.000 C 
ATOM     21  C   UNL     1       1.468  13.060  19.143  0.00  0.00    +0.000 C 
ENDBRANCH  13  14
ENDBRANCH   7  13
BRANCH  10  22
ATOM     22  C   UNL     1       2.807   7.426  19.960  0.00  0.00    +0.000 C 
BRANCH  22  23
ATOM     23  C   UNL     1       2.271   6.018  19.761  0.00  0.00    +0.000 A 
ATOM     24  C   UNL     1       1.372   5.429  20.674  0.00  0.00    +0.000 A 
ATOM     25  C   UNL     1       0.823   4.167  20.446  0.00  0.00    +0.000 A 
ATOM     26  C   UNL     1       1.175   3.455  19.304  0.00  0.00    +0.000 A 
ATOM     27  C   UNL     1       2.101   3.991  18.409  0.00  0.00    +0.000 A 
ATOM     28 CL   UNL     1       2.503   3.034  17.023  0.00  0.00    +0.000 Cl
ATOM     29  C   UNL     1       2.662   5.262  18.635  0.00  0.00    +0.000 A 
ATOM     30 CL   UNL     1       3.846   5.907  17.538  0.00  0.00    +0.000 Cl
ENDBRANCH  22  23
ENDBRANCH  10  22
TORSDOF 5
ENDMDL
MODEL 6
REMARK VINA RESULT:      -6.7      2.350      4.824
REMARK  Name = 
REMARK  7 active torsions:
REMARK  status: ('A' for Active; 'I' for Inactive)
REMARK    1  A    between atoms: C_1  and  O_2
REMARK    2  A    between atoms: O_2  and  C_3
REMARK    3  A    between atoms: C_9  and  C_10
REMARK    4  A    between atoms: C_10  and  C_11
REMARK    5  A    between atoms: C_19  and  C_20
REMARK    6  A    between atoms: N_21  and  C_22
REMARK    7  A    between atoms: C_22  and  C_23
REMARK                            x       y       z     vdW  Elec       q    Type
REMARK                         _______ _______ _______ _____ _____    ______ ____
ROOT
ATOM      1  C   UNL     1      -4.424  10.984  17.943  0.00  0.00    +0.000 A 
ATOM      2  C   UNL     1      -3.466  10.161  17.363  0.00  0.00    +0.000 A 
ATOM      3  C   UNL     1      -2.130  10.218  17.772  0.00  0.00    +0.000 A 
ATOM      4  C   UNL     1      -1.772  11.139  18.771  0.00  0.00    +0.000 A 
ATOM      5  C   UNL     1      -2.708  11.974  19.376  0.00  0.00    +0.000 A 
ATOM      6  C   UNL     1      -4.054  11.883  18.950  0.00  0.00    +0.000 A 
ATOM      7  C   UNL     1      -2.021  12.778  20.353  0.00  0.00    +0.000 A 
ATOM      8  C   UNL     1      -0.677  12.428  20.287  0.00  0.00    +0.000 A 
ATOM      9  C   UNL     1       0.495  12.939  21.060  0.00  0.00    +0.000 C 
ATOM     10  N   UNL     1      -0.544  11.441  19.327  0.00  0.00    +0.000 N 
ENDROOT
BRANCH   1  12
ATOM     11  C   UNL     1      -6.673  10.646  18.576  0.00  0.00    +0.000 C 
ATOM     12  O   UNL     1      -5.741  11.039  17.574  0.00  0.00    +0.000 OA
ENDBRANCH   1  12
BRANCH   7  13
ATOM     13  C   UNL     1      -2.686  13.729  21.309  0.00  0.00    +0.000 C 
BRANCH  13  14
ATOM     14  C   UNL     1      -3.772  13.162  22.219  0.00  0.00    +0.000 C 
ATOM     15  O   UNL     1      -3.480  12.387  23.134  0.00  0.00    +0.000 OA
ATOM     16  N   UNL     1      -5.100  13.408  21.873  0.00  0.00    +0.000 N 
ATOM     17  C   UNL     1      -6.142  12.653  22.571  0.00  0.00    +0.000 C 
ATOM     18  C   UNL     1      -7.442  12.628  21.759  0.00  0.00    +0.000 C 
ATOM     19  O   UNL     1      -7.873  13.959  21.428  0.00  0.00    +0.000 OA
ATOM     20  C   UNL     1      -6.874  14.623  20.642  0.00  0.00    +0.000 C 
ATOM     21  C   UNL     1      -5.545  14.714  21.392  0.00  0.00    +0.000 C 
ENDBRANCH  13  14
ENDBRANCH   7  13
BRANCH  10  22
ATOM     22  C   UNL     1       0.721  10.825  18.911  0.00  0.00    +0.000 C 
BRANCH  22  23
ATOM     23  C   UNL     1       1.034   9.522  19.627  0.00  0.00    +0.000 A 
ATOM     24  C   UNL     1       0.542   9.246  20.919  0.00  0.00    +0.000 A 
ATOM     25  C   UNL     1       0.769   8.017  21.539  0.00  0.00    +0.000 A 
ATOM     26  C   UNL     1       1.510   7.038  20.886  0.00  0.00    +0.000 A 
ATOM     27  C   UNL     1       2.053   7.302  19.628  0.00  0.00    +0.000 A 
ATOM     28 CL   UNL     1       2.982   6.040  18.889  0.00  0.00    +0.000 Cl
ATOM     29  C   UNL     1       1.832   8.541  18.998  0.00  0.00    +0.000 A 
ATOM     30 CL   UNL     1       2.545   8.879  17.450  0.00  0.00    +0.000 Cl
ENDBRANCH  22  23
ENDBRANCH  10  22
TORSDOF 5
ENDMDL
MODEL 7
REMARK VINA RESULT:      -6.6      1.941      4.357
REMARK  Name = 
REMARK  7 active torsions:
REMARK  status: ('A' for Active; 'I' for Inactive)
REMARK    1  A    between atoms: C_1  and  O_2
REMARK    2  A    between atoms: O_2  and  C_3
REMARK    3  A    between atoms: C_9  and  C_10
REMARK    4  A    between atoms: C_10  and  C_11
REMARK    5  A    between atoms: C_19  and  C_20
REMARK    6  A    between atoms: N_21  and  C_22
REMARK    7  A    between atoms: C_22  and  C_23
REMARK                            x       y       z     vdW  Elec       q    Type
REMARK                         _______ _______ _______ _____ _____    ______ ____
ROOT
ATOM      1  C   UNL     1      -2.073  10.876  18.026  0.00  0.00    +0.000 A 
ATOM      2  C   UNL     1      -1.176  10.137  17.265  0.00  0.00    +0.000 A 
ATOM      3  C   UNL     1      -0.072   9.517  17.859  0.00  0.00    +0.000 A 
ATOM      4  C   UNL     1       0.122   9.672  19.242  0.00  0.00    +0.000 A 
ATOM      5  C   UNL     1      -0.761  10.402  20.034  0.00  0.00    +0.000 A 
ATOM      6  C   UNL     1      -1.876  11.005  19.406  0.00  0.00    +0.000 A 
ATOM      7  C   UNL     1      -0.283  10.355  21.392  0.00  0.00    +0.000 A 
ATOM      8  C   UNL     1       0.899   9.623  21.376  0.00  0.00    +0.000 A 
ATOM      9  C   UNL     1       1.828   9.261  22.488  0.00  0.00    +0.000 C 
ATOM     10  N   UNL     1       1.129   9.221  20.072  0.00  0.00    +0.000 N 
ENDROOT
BRANCH   1  12
ATOM     11  C   UNL     1      -3.797  10.955  16.416  0.00  0.00    +0.000 C 
ATOM     12  O   UNL     1      -3.149  11.561  17.529  0.00  0.00    +0.000 OA
ENDBRANCH   1  12
BRANCH   7  13
ATOM     13  C   UNL     1      -1.009  10.919  22.581  0.00  0.00    +0.000 C 
BRANCH  13  14
ATOM     14  C   UNL     1      -1.052  12.437  22.721  0.00  0.00    +0.000 C 
ATOM     15  O   UNL     1      -0.050  13.117  22.475  0.00  0.00    +0.000 OA
ATOM     16  N   UNL     1      -2.188  13.003  23.297  0.00  0.00    +0.000 N 
ATOM     17  C   UNL     1      -2.132  14.415  23.684  0.00  0.00    +0.000 C 
ATOM     18  C   UNL     1      -3.196  14.740  24.738  0.00  0.00    +0.000 C 
ATOM     19  O   UNL     1      -4.506  14.358  24.288  0.00  0.00    +0.000 OA
ATOM     20  C   UNL     1      -4.553  12.947  24.036  0.00  0.00    +0.000 C 
ATOM     21  C   UNL     1      -3.534  12.538  22.971  0.00  0.00    +0.000 C 
ENDBRANCH  13  14
ENDBRANCH   7  13
BRANCH  10  22
ATOM     22  C   UNL     1       2.298   8.464  19.611  0.00  0.00    +0.000 C 
BRANCH  22  23
ATOM     23  C   UNL     1       2.093   6.959  19.607  0.00  0.00    +0.000 A 
ATOM     24  C   UNL     1       1.386   6.302  20.636  0.00  0.00    +0.000 A 
ATOM     25  C   UNL     1       1.135   4.931  20.587  0.00  0.00    +0.000 A 
ATOM     26  C   UNL     1       1.600   4.179  19.513  0.00  0.00    +0.000 A 
ATOM     27  C   UNL     1       2.346   4.793  18.507  0.00  0.00    +0.000 A 
ATOM     28 CL   UNL     1       2.907   3.785  17.214  0.00  0.00    +0.000 Cl
ATOM     29  C   UNL     1       2.607   6.175  18.551  0.00  0.00    +0.000 A 
ATOM     30 CL   UNL     1       3.572   6.927  17.316  0.00  0.00    +0.000 Cl
ENDBRANCH  22  23
ENDBRANCH  10  22
TORSDOF 5
ENDMDL
MODEL 8
REMARK VINA RESULT:      -6.4      1.458      1.858
REMARK  Name = 
REMARK  7 active torsions:
REMARK  status: ('A' for Active; 'I' for Inactive)
REMARK    1  A    between atoms: C_1  and  O_2
REMARK    2  A    between atoms: O_2  and  C_3
REMARK    3  A    between atoms: C_9  and  C_10
REMARK    4  A    between atoms: C_10  and  C_11
REMARK    5  A    between atoms: C_19  and  C_20
REMARK    6  A    between atoms: N_21  and  C_22
REMARK    7  A    between atoms: C_22  and  C_23
REMARK                            x       y       z     vdW  Elec       q    Type
REMARK                         _______ _______ _______ _____ _____    ______ ____
ROOT
ATOM      1  C   UNL     1      -0.520  10.170  22.884  0.00  0.00    +0.000 A 
ATOM      2  C   UNL     1       0.483   9.295  23.283  0.00  0.00    +0.000 A 
ATOM      3  C   UNL     1       1.316   8.682  22.341  0.00  0.00    +0.000 A 
ATOM      4  C   UNL     1       1.104   8.956  20.979  0.00  0.00    +0.000 A 
ATOM      5  C   UNL     1       0.111   9.831  20.547  0.00  0.00    +0.000 A 
ATOM      6  C   UNL     1      -0.705  10.446  21.525  0.00  0.00    +0.000 A 
ATOM      7  C   UNL     1       0.169   9.896  19.109  0.00  0.00    +0.000 A 
ATOM      8  C   UNL     1       1.178   9.027  18.709  0.00  0.00    +0.000 A 
ATOM      9  C   UNL     1       1.676   8.684  17.343  0.00  0.00    +0.000 C 
ATOM     10  N   UNL     1       1.729   8.467  19.849  0.00  0.00    +0.000 N 
ENDROOT
BRANCH   1  12
ATOM     11  C   UNL     1      -2.127  11.876  23.170  0.00  0.00    +0.000 C 
ATOM     12  O   UNL     1      -1.416  10.775  23.725  0.00  0.00    +0.000 OA
ENDBRANCH   1  12
BRANCH   7  13
ATOM     13  C   UNL     1      -0.656  10.815  18.253  0.00  0.00    +0.000 C 
BRANCH  13  14
ATOM     14  C   UNL     1      -0.586  12.308  18.559  0.00  0.00    +0.000 C 
ATOM     15  O   UNL     1       0.425  12.958  18.278  0.00  0.00    +0.000 OA
ATOM     16  N   UNL     1      -1.617  12.863  19.316  0.00  0.00    +0.000 N 
ATOM     17  C   UNL     1      -1.430  14.216  19.844  0.00  0.00    +0.000 C 
ATOM     18  C   UNL     1      -2.355  14.474  21.040  0.00  0.00    +0.000 C 
ATOM     19  O   UNL     1      -3.727  14.214  20.699  0.00  0.00    +0.000 OA
ATOM     20  C   UNL     1      -3.890  12.846  20.303  0.00  0.00    +0.000 C 
ATOM     21  C   UNL     1      -3.017  12.509  19.094  0.00  0.00    +0.000 C 
ENDBRANCH  13  14
ENDBRANCH   7  13
BRANCH  10  22
ATOM     22  C   UNL     1       2.796   7.459  19.869  0.00  0.00    +0.000 C 
BRANCH  22  23
ATOM     23  C   UNL     1       2.297   6.034  19.705  0.00  0.00    +0.000 A 
ATOM     24  C   UNL     1       1.430   5.436  20.642  0.00  0.00    +0.000 A 
ATOM     25  C   UNL     1       0.914   4.155  20.445  0.00  0.00    +0.000 A 
ATOM     26  C   UNL     1       1.269   3.432  19.311  0.00  0.00    +0.000 A 
ATOM     27  C   UNL     1       2.166   3.978  18.392  0.00  0.00    +0.000 A 
ATOM     28 CL   UNL     1       2.574   3.007  17.017  0.00  0.00    +0.000 Cl
ATOM     29  C   UNL     1       2.693   5.268  18.586  0.00  0.00    +0.000 A 
ATOM     30 CL   UNL     1       3.841   5.926  17.459  0.00  0.00    +0.000 Cl
ENDBRANCH  22  23
ENDBRANCH  10  22
TORSDOF 5
ENDMDL
MODEL 9
REMARK VINA RESULT:      -6.4      2.932      5.516
REMARK  Name = 
REMARK  7 active torsions:
REMARK  status: ('A' for Active; 'I' for Inactive)
REMARK    1  A    between atoms: C_1  and  O_2
REMARK    2  A    between atoms: O_2  and  C_3
REMARK    3  A    between atoms: C_9  and  C_10
REMARK    4  A    between atoms: C_10  and  C_11
REMARK    5  A    between atoms: C_19  and  C_20
REMARK    6  A    between atoms: N_21  and  C_22
REMARK    7  A    between atoms: C_22  and  C_23
REMARK                            x       y       z     vdW  Elec       q    Type
REMARK                         _______ _______ _______ _____ _____    ______ ____
ROOT
ATOM      1  C   UNL     1      -3.395  10.783  16.930  0.00  0.00    +0.000 A 
ATOM      2  C   UNL     1      -2.119  10.243  16.823  0.00  0.00    +0.000 A 
ATOM      3  C   UNL     1      -1.141  10.519  17.783  0.00  0.00    +0.000 A 
ATOM      4  C   UNL     1      -1.470  11.371  18.851  0.00  0.00    +0.000 A 
ATOM      5  C   UNL     1      -2.740  11.924  18.991  0.00  0.00    +0.000 A 
ATOM      6  C   UNL     1      -3.712  11.614  18.010  0.00  0.00    +0.000 A 
ATOM      7  C   UNL     1      -2.747  12.730  20.184  0.00  0.00    +0.000 A 
ATOM      8  C   UNL     1      -1.464  12.668  20.716  0.00  0.00    +0.000 A 
ATOM      9  C   UNL     1      -0.890  13.311  21.936  0.00  0.00    +0.000 C 
ATOM     10  N   UNL     1      -0.707  11.847  19.899  0.00  0.00    +0.000 N 
ENDROOT
BRANCH   1  12
ATOM     11  C   UNL     1      -3.978  10.238  14.708  0.00  0.00    +0.000 C 
ATOM     12  O   UNL     1      -4.399  10.614  16.015  0.00  0.00    +0.000 OA
ENDBRANCH   1  12
BRANCH   7  13
ATOM     13  C   UNL     1      -3.957  13.409  20.760  0.00  0.00    +0.000 C 
BRANCH  13  14
ATOM     14  C   UNL     1      -4.399  12.987  22.158  0.00  0.00    +0.000 C 
ATOM     15  O   UNL     1      -3.834  12.055  22.737  0.00  0.00    +0.000 OA
ATOM     16  N   UNL     1      -5.558  13.565  22.673  0.00  0.00    +0.000 N 
ATOM     17  C   UNL     1      -6.139  12.978  23.882  0.00  0.00    +0.000 C 
ATOM     18  C   UNL     1      -7.621  13.348  24.018  0.00  0.00    +0.000 C 
ATOM     19  O   UNL     1      -7.806  14.773  23.969  0.00  0.00    +0.000 OA
ATOM     20  C   UNL     1      -7.335  15.293  22.718  0.00  0.00    +0.000 C 
ATOM     21  C   UNL     1      -5.850  14.988  22.514  0.00  0.00    +0.000 C 
ENDBRANCH  13  14
ENDBRANCH   7  13
BRANCH  10  22
ATOM     22  C   UNL     1       0.719  11.551  20.079  0.00  0.00    +0.000 C 
BRANCH  22  23
ATOM     23  C   UNL     1       1.014  10.084  20.343  0.00  0.00    +0.000 A 
ATOM     24  C   UNL     1       0.659   9.461  21.557  0.00  0.00    +0.000 A 
ATOM     25  C   UNL     1       0.863   8.096  21.763  0.00  0.00    +0.000 A 
ATOM     26  C   UNL     1       1.442   7.324  20.762  0.00  0.00    +0.000 A 
ATOM     27  C   UNL     1       1.850   7.923  19.570  0.00  0.00    +0.000 A 
ATOM     28 CL   UNL     1       2.583   6.898  18.382  0.00  0.00    +0.000 Cl
ATOM     29  C   UNL     1       1.651   9.300  19.357  0.00  0.00    +0.000 A 
ATOM     30 CL   UNL     1       2.199  10.049  17.887  0.00  0.00    +0.000 Cl
ENDBRANCH  22  23
ENDBRANCH  10  22
TORSDOF 5
ENDMDL
