MODEL 1
REMARK VINA RESULT:      -7.4      0.000      0.000
REMARK  Name = 
REMARK  6 active torsions:
REMARK  status: ('A' for Active; 'I' for Inactive)
REMARK    1  A    between atoms: C_1  and  N_2
REMARK    2  A    between atoms: C_4  and  C_5
REMARK    3  A    between atoms: C_6  and  C_7
REMARK    4  A    between atoms: C_6  and  C_9
REMARK    5  A    between atoms: N_11  and  C_12
REMARK    6  A    between atoms: C_17  and  O_18
REMARK                            x       y       z     vdW  Elec       q    Type
REMARK                         _______ _______ _______ _____ _____    ______ ____
ROOT
ATOM      1  C   UNL     1       1.828   8.997  17.895  0.00  0.00    +0.000 C 
ATOM      2  C   UNL     1       2.191   7.921  18.648  0.00  0.00    +0.000 C 
ENDROOT
BRANCH   1   6
ATOM      3  C   UNL     1       0.613  13.481  19.671  0.00  0.00    +0.000 C 
ATOM      4  N   UNL     1       0.474  12.152  19.117  0.00  0.00    +0.000 N 
ATOM      5  C   UNL     1       1.494  11.246  19.001  0.00  0.00    +0.000 A 
ATOM      6  C   UNL     1       1.035  10.142  18.305  0.00  0.00    +0.000 A 
ATOM      7  C   UNL     1      -0.374  10.347  18.113  0.00  0.00    +0.000 A 
ATOM      8  C   UNL     1      -1.419   9.586  17.539  0.00  0.00    +0.000 A 
ATOM      9  C   UNL     1      -2.723  10.099  17.519  0.00  0.00    +0.000 A 
ATOM     10  C   UNL     1      -3.006  11.355  18.042  0.00  0.00    +0.000 A 
ATOM     11  C   UNL     1      -1.994  12.136  18.601  0.00  0.00    +0.000 A 
ATOM     12  C   UNL     1      -0.695  11.611  18.631  0.00  0.00    +0.000 A 
ENDBRANCH   1   6
BRANCH   2  13
ATOM     13  C   UNL     1       2.986   6.836  18.020  0.00  0.00    +0.000 C 
ATOM     14  O   UNL     1       2.470   5.722  17.925  0.00  0.00    +0.000 OA
ATOM     15  N   UNL     1       4.273   7.142  17.632  0.00  0.00    +0.000 N 
ATOM     16  H   UNL     1       4.702   8.028  17.886  0.00  0.00    +0.000 HD
BRANCH  15  17
ATOM     17  C   UNL     1       5.170   6.240  16.998  0.00  0.00    +0.000 A 
ATOM     18  C   UNL     1       5.227   6.061  15.613  0.00  0.00    +0.000 A 
ATOM     19  C   UNL     1       6.114   5.145  15.044  0.00  0.00    +0.000 A 
ATOM     20  C   UNL     1       6.962   4.398  15.854  0.00  0.00    +0.000 A 
ATOM     21  C   UNL     1       6.934   4.572  17.239  0.00  0.00    +0.000 A 
ATOM     22  C   UNL     1       6.047   5.495  17.801  0.00  0.00    +0.000 A 
BRANCH  22  23
ATOM     23  O   UNL     1       6.010   5.676  19.160  0.00  0.00    +0.000 OA
ATOM     24  H   UNL     1       5.961   4.800  19.582  0.00  0.00    +0.000 HD
ENDBRANCH  22  23
ENDBRANCH  15  17
ENDBRANCH   2  13
BRANCH   2  25
ATOM     25  C   UNL     1       1.728   7.952  20.095  0.00  0.00    +0.000 C 
ATOM     26  N   UNL     1       1.343   7.977  21.296  0.00  0.00    +0.000 NA
ENDBRANCH   2  25
TORSDOF 5
ENDMDL
MODEL 2
REMARK VINA RESULT:      -7.3      2.384      2.824
REMARK  Name = 
REMARK  6 active torsions:
REMARK  status: ('A' for Active; 'I' for Inactive)
REMARK    1  A    between atoms: C_1  and  N_2
REMARK    2  A    between atoms: C_4  and  C_5
REMARK    3  A    between atoms: C_6  and  C_7
REMARK    4  A    between atoms: C_6  and  C_9
REMARK    5  A    between atoms: N_11  and  C_12
REMARK    6  A    between atoms: C_17  and  O_18
REMARK                            x       y       z     vdW  Elec       q    Type
REMARK                         _______ _______ _______ _____ _____    ______ ____
ROOT
ATOM      1  C   UNL     1       1.709   8.830  18.232  0.00  0.00    +0.000 C 
ATOM      2  C   UNL     1       1.985   7.905  19.193  0.00  0.00    +0.000 C 
ENDROOT
BRANCH   1   6
ATOM      3  C   UNL     1       0.991  13.703  18.923  0.00  0.00    +0.000 C 
ATOM      4  N   UNL     1       0.705  12.299  18.720  0.00  0.00    +0.000 N 
ATOM      5  C   UNL     1       1.639  11.299  18.771  0.00  0.00    +0.000 A 
ATOM      6  C   UNL     1       1.043  10.109  18.393  0.00  0.00    +0.000 A 
ATOM      7  C   UNL     1      -0.357  10.396  18.236  0.00  0.00    +0.000 A 
ATOM      8  C   UNL     1      -1.499   9.622  17.926  0.00  0.00    +0.000 A 
ATOM      9  C   UNL     1      -2.757  10.236  17.854  0.00  0.00    +0.000 A 
ATOM     10  C   UNL     1      -2.899  11.602  18.069  0.00  0.00    +0.000 A 
ATOM     11  C   UNL     1      -1.789  12.395  18.363  0.00  0.00    +0.000 A 
ATOM     12  C   UNL     1      -0.536  11.771  18.447  0.00  0.00    +0.000 A 
ENDBRANCH   1   6
BRANCH   2  13
ATOM     13  C   UNL     1       2.654   6.638  18.806  0.00  0.00    +0.000 C 
ATOM     14  O   UNL     1       3.618   6.704  18.043  0.00  0.00    +0.000 OA
ATOM     15  N   UNL     1       2.112   5.466  19.289  0.00  0.00    +0.000 N 
ATOM     16  H   UNL     1       1.220   5.461  19.777  0.00  0.00    +0.000 HD
BRANCH  15  17
ATOM     17  C   UNL     1       2.629   4.166  19.041  0.00  0.00    +0.000 A 
ATOM     18  C   UNL     1       3.649   3.587  19.802  0.00  0.00    +0.000 A 
ATOM     19  C   UNL     1       4.133   2.313  19.502  0.00  0.00    +0.000 A 
ATOM     20  C   UNL     1       3.599   1.595  18.436  0.00  0.00    +0.000 A 
ATOM     21  C   UNL     1       2.569   2.147  17.674  0.00  0.00    +0.000 A 
ATOM     22  C   UNL     1       2.085   3.421  17.984  0.00  0.00    +0.000 A 
BRANCH  22  23
ATOM     23  O   UNL     1       1.072   3.973  17.242  0.00  0.00    +0.000 OA
ATOM     24  H   UNL     1       1.174   3.677  16.320  0.00  0.00    +0.000 HD
ENDBRANCH  22  23
ENDBRANCH  15  17
ENDBRANCH   2  13
BRANCH   2  25
ATOM     25  C   UNL     1       1.563   8.285  20.603  0.00  0.00    +0.000 C 
ATOM     26  N   UNL     1       1.214   8.601  21.773  0.00  0.00    +0.000 NA
ENDBRANCH   2  25
TORSDOF 5
ENDMDL
MODEL 3
REMARK VINA RESULT:      -7.2      5.261      7.933
REMARK  Name = 
REMARK  6 active torsions:
REMARK  status: ('A' for Active; 'I' for Inactive)
REMARK    1  A    between atoms: C_1  and  N_2
REMARK    2  A    between atoms: C_4  and  C_5
REMARK    3  A    between atoms: C_6  and  C_7
REMARK    4  A    between atoms: C_6  and  C_9
REMARK    5  A    between atoms: N_11  and  C_12
REMARK    6  A    between atoms: C_17  and  O_18
REMARK                            x       y       z     vdW  Elec       q    Type
REMARK                         _______ _______ _______ _____ _____    ______ ____
ROOT
ATOM      1  C   UNL     1       6.671   7.617  17.040  0.00  0.00    +0.000 C 
ATOM      2  C   UNL     1       7.620   7.820  17.997  0.00  0.00    +0.000 C 
ENDROOT
BRANCH   1   6
ATOM      3  C   UNL     1       5.775   3.132  15.087  0.00  0.00    +0.000 C 
ATOM      4  N   UNL     1       5.574   4.364  15.818  0.00  0.00    +0.000 N 
ATOM      5  C   UNL     1       6.425   5.436  15.786  0.00  0.00    +0.000 A 
ATOM      6  C   UNL     1       5.996   6.376  16.706  0.00  0.00    +0.000 A 
ATOM      7  C   UNL     1       4.745   5.892  17.219  0.00  0.00    +0.000 A 
ATOM      8  C   UNL     1       3.783   6.394  18.126  0.00  0.00    +0.000 A 
ATOM      9  C   UNL     1       2.635   5.642  18.411  0.00  0.00    +0.000 A 
ATOM     10  C   UNL     1       2.432   4.399  17.825  0.00  0.00    +0.000 A 
ATOM     11  C   UNL     1       3.368   3.869  16.937  0.00  0.00    +0.000 A 
ATOM     12  C   UNL     1       4.507   4.634  16.646  0.00  0.00    +0.000 A 
ENDBRANCH   1   6
BRANCH   2  13
ATOM     13  C   UNL     1       8.207   9.174  18.156  0.00  0.00    +0.000 C 
ATOM     14  O   UNL     1       7.846  10.055  17.375  0.00  0.00    +0.000 OA
ATOM     15  N   UNL     1       9.159   9.336  19.139  0.00  0.00    +0.000 N 
ATOM     16  H   UNL     1       9.537   8.537  19.641  0.00  0.00    +0.000 HD
BRANCH  15  17
ATOM     17  C   UNL     1       9.811  10.560  19.448  0.00  0.00    +0.000 A 
ATOM     18  C   UNL     1      10.574  11.279  18.523  0.00  0.00    +0.000 A 
ATOM     19  C   UNL     1      11.211  12.467  18.887  0.00  0.00    +0.000 A 
ATOM     20  C   UNL     1      11.089  12.957  20.182  0.00  0.00    +0.000 A 
ATOM     21  C   UNL     1      10.318  12.265  21.118  0.00  0.00    +0.000 A 
ATOM     22  C   UNL     1       9.679  11.080  20.745  0.00  0.00    +0.000 A 
BRANCH  22  23
ATOM     23  O   UNL     1       8.918  10.390  21.655  0.00  0.00    +0.000 OA
ATOM     24  H   UNL     1       9.514   9.844  22.197  0.00  0.00    +0.000 HD
ENDBRANCH  22  23
ENDBRANCH  15  17
ENDBRANCH   2  13
BRANCH   2  25
ATOM     25  C   UNL     1       7.983   6.598  18.823  0.00  0.00    +0.000 C 
ATOM     26  N   UNL     1       8.286   5.583  19.509  0.00  0.00    +0.000 NA
ENDBRANCH   2  25
TORSDOF 5
ENDMDL
MODEL 4
REMARK VINA RESULT:      -7.0      2.598      7.974
REMARK  Name = 
REMARK  6 active torsions:
REMARK  status: ('A' for Active; 'I' for Inactive)
REMARK    1  A    between atoms: C_1  and  N_2
REMARK    2  A    between atoms: C_4  and  C_5
REMARK    3  A    between atoms: C_6  and  C_7
REMARK    4  A    between atoms: C_6  and  C_9
REMARK    5  A    between atoms: N_11  and  C_12
REMARK    6  A    between atoms: C_17  and  O_18
REMARK                            x       y       z     vdW  Elec       q    Type
REMARK                         _______ _______ _______ _____ _____    ______ ____
ROOT
ATOM      1  C   UNL     1       2.879   7.707  17.818  0.00  0.00    +0.000 C 
ATOM      2  C   UNL     1       2.091   8.098  18.859  0.00  0.00    +0.000 C 
ENDROOT
BRANCH   1   6
ATOM      3  C   UNL     1       6.763   4.618  17.494  0.00  0.00    +0.000 C 
ATOM      4  N   UNL     1       5.394   5.086  17.534  0.00  0.00    +0.000 N 
ATOM      5  C   UNL     1       5.021   6.404  17.501  0.00  0.00    +0.000 A 
ATOM      6  C   UNL     1       3.654   6.486  17.698  0.00  0.00    +0.000 A 
ATOM      7  C   UNL     1       3.170   5.134  17.717  0.00  0.00    +0.000 A 
ATOM      8  C   UNL     1       1.891   4.539  17.821  0.00  0.00    +0.000 A 
ATOM      9  C   UNL     1       1.769   3.143  17.802  0.00  0.00    +0.000 A 
ATOM     10  C   UNL     1       2.890   2.329  17.697  0.00  0.00    +0.000 A 
ATOM     11  C   UNL     1       4.167   2.885  17.607  0.00  0.00    +0.000 A 
ATOM     12  C   UNL     1       4.280   4.283  17.612  0.00  0.00    +0.000 A 
ENDBRANCH   1   6
BRANCH   2  13
ATOM     13  C   UNL     1       1.402   9.410  18.791  0.00  0.00    +0.000 C 
ATOM     14  O   UNL     1       1.730  10.189  17.895  0.00  0.00    +0.000 OA
ATOM     15  N   UNL     1       0.475   9.688  19.773  0.00  0.00    +0.000 N 
ATOM     16  H   UNL     1       0.367   9.079  20.580  0.00  0.00    +0.000 HD
BRANCH  15  17
ATOM     17  C   UNL     1      -0.293  10.880  19.855  0.00  0.00    +0.000 A 
ATOM     18  C   UNL     1      -1.482  11.078  19.147  0.00  0.00    +0.000 A 
ATOM     19  C   UNL     1      -2.187  12.279  19.250  0.00  0.00    +0.000 A 
ATOM     20  C   UNL     1      -1.715  13.298  20.069  0.00  0.00    +0.000 A 
ATOM     21  C   UNL     1      -0.540  13.116  20.799  0.00  0.00    +0.000 A 
ATOM     22  C   UNL     1       0.158  11.909  20.696  0.00  0.00    +0.000 A 
BRANCH  22  23
ATOM     23  O   UNL     1       1.314  11.718  21.408  0.00  0.00    +0.000 OA
ATOM     24  H   UNL     1       1.202  10.927  21.964  0.00  0.00    +0.000 HD
ENDBRANCH  22  23
ENDBRANCH  15  17
ENDBRANCH   2  13
BRANCH   2  25
ATOM     25  C   UNL     1       2.001   7.112  20.012  0.00  0.00    +0.000 C 
ATOM     26  N   UNL     1       1.926   6.294  20.969  0.00  0.00    +0.000 NA
ENDBRANCH   2  25
TORSDOF 5
ENDMDL
MODEL 5
REMARK VINA RESULT:      -7.0      3.957      5.978
REMARK  Name = 
REMARK  6 active torsions:
REMARK  status: ('A' for Active; 'I' for Inactive)
REMARK    1  A    between atoms: C_1  and  N_2
REMARK    2  A    between atoms: C_4  and  C_5
REMARK    3  A    between atoms: C_6  and  C_7
REMARK    4  A    between atoms: C_6  and  C_9
REMARK    5  A    between atoms: N_11  and  C_12
REMARK    6  A    between atoms: C_17  and  O_18
REMARK                            x       y       z     vdW  Elec       q    Type
REMARK                         _______ _______ _______ _____ _____    ______ ____
ROOT
ATOM      1  C   UNL     1       4.375   4.313  17.621  0.00  0.00    +0.000 C 
ATOM      2  C   UNL     1       5.719   4.517  17.535  0.00  0.00    +0.000 C 
ENDROOT
BRANCH   1   6
ATOM      3  C   UNL     1       1.968   3.350  21.866  0.00  0.00    +0.000 C 
ATOM      4  N   UNL     1       2.419   4.054  20.685  0.00  0.00    +0.000 N 
ATOM      5  C   UNL     1       3.149   3.490  19.673  0.00  0.00    +0.000 A 
ATOM      6  C   UNL     1       3.521   4.481  18.783  0.00  0.00    +0.000 A 
ATOM      7  C   UNL     1       2.863   5.680  19.221  0.00  0.00    +0.000 A 
ATOM      8  C   UNL     1       2.781   7.004  18.730  0.00  0.00    +0.000 A 
ATOM      9  C   UNL     1       2.024   7.958  19.424  0.00  0.00    +0.000 A 
ATOM     10  C   UNL     1       1.362   7.629  20.600  0.00  0.00    +0.000 A 
ATOM     11  C   UNL     1       1.435   6.335  21.118  0.00  0.00    +0.000 A 
ATOM     12  C   UNL     1       2.182   5.382  20.411  0.00  0.00    +0.000 A 
ENDBRANCH   1   6
BRANCH   2  13
ATOM     13  C   UNL     1       6.409   4.255  16.248  0.00  0.00    +0.000 C 
ATOM     14  O   UNL     1       7.619   4.030  16.275  0.00  0.00    +0.000 OA
ATOM     15  N   UNL     1       5.650   4.334  15.100  0.00  0.00    +0.000 N 
ATOM     16  H   UNL     1       4.696   4.686  15.123  0.00  0.00    +0.000 HD
BRANCH  15  17
ATOM     17  C   UNL     1       6.133   4.094  13.785  0.00  0.00    +0.000 A 
ATOM     18  C   UNL     1       5.567   3.155  12.917  0.00  0.00    +0.000 A 
ATOM     19  C   UNL     1       6.095   2.946  11.642  0.00  0.00    +0.000 A 
ATOM     20  C   UNL     1       7.196   3.679  11.213  0.00  0.00    +0.000 A 
ATOM     21  C   UNL     1       7.767   4.633  12.056  0.00  0.00    +0.000 A 
ATOM     22  C   UNL     1       7.230   4.842  13.329  0.00  0.00    +0.000 A 
BRANCH  22  23
ATOM     23  O   UNL     1       7.782   5.778  14.166  0.00  0.00    +0.000 OA
ATOM     24  H   UNL     1       8.537   5.368  14.624  0.00  0.00    +0.000 HD
ENDBRANCH  22  23
ENDBRANCH  15  17
ENDBRANCH   2  13
BRANCH   2  25
ATOM     25  C   UNL     1       6.386   5.008  18.810  0.00  0.00    +0.000 C 
ATOM     26  N   UNL     1       6.938   5.414  19.868  0.00  0.00    +0.000 NA
ENDBRANCH   2  25
TORSDOF 5
ENDMDL
MODEL 6
REMARK VINA RESULT:      -7.0      2.501      3.579
REMARK  Name = 
REMARK  6 active torsions:
REMARK  status: ('A' for Active; 'I' for Inactive)
REMARK    1  A    between atoms: C_1  and  N_2
REMARK    2  A    between atoms: C_4  and  C_5
REMARK    3  A    between atoms: C_6  and  C_7
REMARK    4  A    between atoms: C_6  and  C_9
REMARK    5  A    between atoms: N_11  and  C_12
REMARK    6  A    between atoms: C_17  and  O_18
REMARK                            x       y       z     vdW  Elec       q    Type
REMARK                         _______ _______ _______ _____ _____    ______ ____
ROOT
ATOM      1  C   UNL     1       1.446   9.030  18.330  0.00  0.00    +0.000 C 
ATOM      2  C   UNL     1       1.842   8.116  19.260  0.00  0.00    +0.000 C 
ENDROOT
BRANCH   1   6
ATOM      3  C   UNL     1      -2.180  12.229  19.494  0.00  0.00    +0.000 C 
ATOM      4  N   UNL     1      -0.895  11.726  19.059  0.00  0.00    +0.000 N 
ATOM      5  C   UNL     1      -0.618  10.407  18.813  0.00  0.00    +0.000 A 
ATOM      6  C   UNL     1       0.734  10.275  18.553  0.00  0.00    +0.000 A 
ATOM      7  C   UNL     1       1.266  11.609  18.512  0.00  0.00    +0.000 A 
ATOM      8  C   UNL     1       2.539  12.162  18.241  0.00  0.00    +0.000 A 
ATOM      9  C   UNL     1       2.718  13.551  18.284  0.00  0.00    +0.000 A 
ATOM     10  C   UNL     1       1.664  14.398  18.603  0.00  0.00    +0.000 A 
ATOM     11  C   UNL     1       0.399  13.883  18.889  0.00  0.00    +0.000 A 
ATOM     12  C   UNL     1       0.224  12.493  18.831  0.00  0.00    +0.000 A 
ENDBRANCH   1   6
BRANCH   2  13
ATOM     13  C   UNL     1       2.537   6.884  18.811  0.00  0.00    +0.000 C 
ATOM     14  O   UNL     1       3.462   7.003  18.006  0.00  0.00    +0.000 OA
ATOM     15  N   UNL     1       2.061   5.682  19.289  0.00  0.00    +0.000 N 
ATOM     16  H   UNL     1       1.194   5.633  19.817  0.00  0.00    +0.000 HD
BRANCH  15  17
ATOM     17  C   UNL     1       2.612   4.408  18.986  0.00  0.00    +0.000 A 
ATOM     18  C   UNL     1       3.683   3.846  19.688  0.00  0.00    +0.000 A 
ATOM     19  C   UNL     1       4.199   2.599  19.334  0.00  0.00    +0.000 A 
ATOM     20  C   UNL     1       3.645   1.890  18.273  0.00  0.00    +0.000 A 
ATOM     21  C   UNL     1       2.565   2.423  17.568  0.00  0.00    +0.000 A 
ATOM     22  C   UNL     1       2.050   3.670  17.932  0.00  0.00    +0.000 A 
BRANCH  22  23
ATOM     23  O   UNL     1       0.989   4.205  17.248  0.00  0.00    +0.000 OA
ATOM     24  H   UNL     1       0.250   4.317  17.872  0.00  0.00    +0.000 HD
ENDBRANCH  22  23
ENDBRANCH  15  17
ENDBRANCH   2  13
BRANCH   2  25
ATOM     25  C   UNL     1       1.518   8.471  20.701  0.00  0.00    +0.000 C 
ATOM     26  N   UNL     1       1.250   8.766  21.898  0.00  0.00    +0.000 NA
ENDBRANCH   2  25
TORSDOF 5
ENDMDL
MODEL 7
REMARK VINA RESULT:      -7.0      0.855      2.311
REMARK  Name = 
REMARK  6 active torsions:
REMARK  status: ('A' for Active; 'I' for Inactive)
REMARK    1  A    between atoms: C_1  and  N_2
REMARK    2  A    between atoms: C_4  and  C_5
REMARK    3  A    between atoms: C_6  and  C_7
REMARK    4  A    between atoms: C_6  and  C_9
REMARK    5  A    between atoms: N_11  and  C_12
REMARK    6  A    between atoms: C_17  and  O_18
REMARK                            x       y       z     vdW  Elec       q    Type
REMARK                         _______ _______ _______ _____ _____    ______ ____
ROOT
ATOM      1  C   UNL     1       1.781   9.002  17.889  0.00  0.00    +0.000 C 
ATOM      2  C   UNL     1       2.164   7.978  18.703  0.00  0.00    +0.000 C 
ENDROOT
BRANCH   1   6
ATOM      3  C   UNL     1      -2.087  11.776  19.331  0.00  0.00    +0.000 C 
ATOM      4  N   UNL     1      -0.764  11.420  18.865  0.00  0.00    +0.000 N 
ATOM      5  C   UNL     1      -0.385  10.161  18.484  0.00  0.00    +0.000 A 
ATOM      6  C   UNL     1       0.975  10.159  18.234  0.00  0.00    +0.000 A 
ATOM      7  C   UNL     1       1.404  11.525  18.345  0.00  0.00    +0.000 A 
ATOM      8  C   UNL     1       2.634  12.198  18.156  0.00  0.00    +0.000 A 
ATOM      9  C   UNL     1       2.706  13.584  18.351  0.00  0.00    +0.000 A 
ATOM     10  C   UNL     1       1.588  14.310  18.743  0.00  0.00    +0.000 A 
ATOM     11  C   UNL     1       0.364  13.674  18.951  0.00  0.00    +0.000 A 
ATOM     12  C   UNL     1       0.296  12.289  18.740  0.00  0.00    +0.000 A 
ENDBRANCH   1   6
BRANCH   2  13
ATOM     13  C   UNL     1       2.970   6.868  18.137  0.00  0.00    +0.000 C 
ATOM     14  O   UNL     1       2.535   5.722  18.249  0.00  0.00    +0.000 OA
ATOM     15  N   UNL     1       4.181   7.197  17.567  0.00  0.00    +0.000 N 
ATOM     16  H   UNL     1       4.564   8.135  17.650  0.00  0.00    +0.000 HD
BRANCH  15  17
ATOM     17  C   UNL     1       5.073   6.273  16.959  0.00  0.00    +0.000 A 
ATOM     18  C   UNL     1       5.215   6.139  15.574  0.00  0.00    +0.000 A 
ATOM     19  C   UNL     1       6.093   5.200  15.029  0.00  0.00    +0.000 A 
ATOM     20  C   UNL     1       6.847   4.383  15.864  0.00  0.00    +0.000 A 
ATOM     21  C   UNL     1       6.734   4.510  17.249  0.00  0.00    +0.000 A 
ATOM     22  C   UNL     1       5.858   5.457  17.787  0.00  0.00    +0.000 A 
BRANCH  22  23
ATOM     23  O   UNL     1       5.738   5.591  19.147  0.00  0.00    +0.000 OA
ATOM     24  H   UNL     1       4.933   6.105  19.332  0.00  0.00    +0.000 HD
ENDBRANCH  22  23
ENDBRANCH  15  17
ENDBRANCH   2  13
BRANCH   2  25
ATOM     25  C   UNL     1       1.708   8.090  20.148  0.00  0.00    +0.000 C 
ATOM     26  N   UNL     1       1.330   8.184  21.348  0.00  0.00    +0.000 NA
ENDBRANCH   2  25
TORSDOF 5
ENDMDL
MODEL 8
REMARK VINA RESULT:      -6.9      3.534      8.400
REMARK  Name = 
REMARK  6 active torsions:
REMARK  status: ('A' for Active; 'I' for Inactive)
REMARK    1  A    between atoms: C_1  and  N_2
REMARK    2  A    between atoms: C_4  and  C_5
REMARK    3  A    between atoms: C_6  and  C_7
REMARK    4  A    between atoms: C_6  and  C_9
REMARK    5  A    between atoms: N_11  and  C_12
REMARK    6  A    between atoms: C_17  and  O_18
REMARK                            x       y       z     vdW  Elec       q    Type
REMARK                         _______ _______ _______ _____ _____    ______ ____
ROOT
ATOM      1  C   UNL     1       1.946   7.322  20.462  0.00  0.00    +0.000 C 
ATOM      2  C   UNL     1       1.593   8.591  20.114  0.00  0.00    +0.000 C 
ENDROOT
BRANCH   1   6
ATOM      3  C   UNL     1       4.641   4.838  17.100  0.00  0.00    +0.000 C 
ATOM      4  N   UNL     1       3.606   5.134  18.068  0.00  0.00    +0.000 N 
ATOM      5  C   UNL     1       3.375   6.372  18.606  0.00  0.00    +0.000 A 
ATOM      6  C   UNL     1       2.411   6.258  19.592  0.00  0.00    +0.000 A 
ATOM      7  C   UNL     1       1.949   4.898  19.544  0.00  0.00    +0.000 A 
ATOM      8  C   UNL     1       0.955   4.163  20.232  0.00  0.00    +0.000 A 
ATOM      9  C   UNL     1       0.756   2.809  19.928  0.00  0.00    +0.000 A 
ATOM     10  C   UNL     1       1.532   2.170  18.969  0.00  0.00    +0.000 A 
ATOM     11  C   UNL     1       2.530   2.864  18.284  0.00  0.00    +0.000 A 
ATOM     12  C   UNL     1       2.714   4.221  18.583  0.00  0.00    +0.000 A 
ENDBRANCH   1   6
BRANCH   2  13
ATOM     13  C   UNL     1       1.111   9.521  21.165  0.00  0.00    +0.000 C 
ATOM     14  O   UNL     1       1.503   9.342  22.319  0.00  0.00    +0.000 OA
ATOM     15  N   UNL     1       0.213  10.494  20.783  0.00  0.00    +0.000 N 
ATOM     16  H   UNL     1      -0.203  10.490  19.855  0.00  0.00    +0.000 HD
BRANCH  15  17
ATOM     17  C   UNL     1      -0.337  11.480  21.645  0.00  0.00    +0.000 A 
ATOM     18  C   UNL     1      -1.323  11.205  22.598  0.00  0.00    +0.000 A 
ATOM     19  C   UNL     1      -1.844  12.217  23.406  0.00  0.00    +0.000 A 
ATOM     20  C   UNL     1      -1.380  13.522  23.277  0.00  0.00    +0.000 A 
ATOM     21  C   UNL     1      -0.384  13.817  22.344  0.00  0.00    +0.000 A 
ATOM     22  C   UNL     1       0.136  12.797  21.543  0.00  0.00    +0.000 A 
BRANCH  22  23
ATOM     23  O   UNL     1       1.115  13.075  20.623  0.00  0.00    +0.000 OA
ATOM     24  H   UNL     1       1.238  14.040  20.591  0.00  0.00    +0.000 HD
ENDBRANCH  22  23
ENDBRANCH  15  17
ENDBRANCH   2  13
BRANCH   2  25
ATOM     25  C   UNL     1       1.736   8.925  18.638  0.00  0.00    +0.000 C 
ATOM     26  N   UNL     1       1.854   9.203  17.414  0.00  0.00    +0.000 NA
ENDBRANCH   2  25
TORSDOF 5
ENDMDL
MODEL 9
REMARK VINA RESULT:      -6.8      2.459      8.010
REMARK  Name = 
REMARK  6 active torsions:
REMARK  status: ('A' for Active; 'I' for Inactive)
REMARK    1  A    between atoms: C_1  and  N_2
REMARK    2  A    between atoms: C_4  and  C_5
REMARK    3  A    between atoms: C_6  and  C_7
REMARK    4  A    between atoms: C_6  and  C_9
REMARK    5  A    between atoms: N_11  and  C_12
REMARK    6  A    between atoms: C_17  and  O_18
REMARK                            x       y       z     vdW  Elec       q    Type
REMARK                         _______ _______ _______ _____ _____    ______ ____
ROOT
ATOM      1  C   UNL     1       3.040   7.676  17.715  0.00  0.00    +0.000 C 
ATOM      2  C   UNL     1       2.237   8.136  18.715  0.00  0.00    +0.000 C 
ENDROOT
BRANCH   1   6
ATOM      3  C   UNL     1       6.792   4.413  17.635  0.00  0.00    +0.000 C 
ATOM      4  N   UNL     1       5.445   4.941  17.608  0.00  0.00    +0.000 N 
ATOM      5  C   UNL     1       5.132   6.271  17.521  0.00  0.00    +0.000 A 
ATOM      6  C   UNL     1       3.764   6.419  17.662  0.00  0.00    +0.000 A 
ATOM      7  C   UNL     1       3.220   5.091  17.703  0.00  0.00    +0.000 A 
ATOM      8  C   UNL     1       1.913   4.555  17.776  0.00  0.00    +0.000 A 
ATOM      9  C   UNL     1       1.730   3.166  17.795  0.00  0.00    +0.000 A 
ATOM     10  C   UNL     1       2.817   2.301  17.758  0.00  0.00    +0.000 A 
ATOM     11  C   UNL     1       4.120   2.798  17.700  0.00  0.00    +0.000 A 
ATOM     12  C   UNL     1       4.294   4.189  17.668  0.00  0.00    +0.000 A 
ENDBRANCH   1   6
BRANCH   2  13
ATOM     13  C   UNL     1       1.610   9.474  18.580  0.00  0.00    +0.000 C 
ATOM     14  O   UNL     1       1.826  10.113  17.549  0.00  0.00    +0.000 OA
ATOM     15  N   UNL     1       0.866   9.932  19.646  0.00  0.00    +0.000 N 
ATOM     16  H   UNL     1       0.859   9.436  20.533  0.00  0.00    +0.000 HD
BRANCH  15  17
ATOM     17  C   UNL     1       0.177  11.175  19.686  0.00  0.00    +0.000 A 
ATOM     18  C   UNL     1       0.736  12.346  20.207  0.00  0.00    +0.000 A 
ATOM     19  C   UNL     1       0.007  13.536  20.241  0.00  0.00    +0.000 A 
ATOM     20  C   UNL     1      -1.293  13.573  19.748  0.00  0.00    +0.000 A 
ATOM     21  C   UNL     1      -1.865  12.420  19.208  0.00  0.00    +0.000 A 
ATOM     22  C   UNL     1      -1.127  11.234  19.172  0.00  0.00    +0.000 A 
BRANCH  22  23
ATOM     23  O   UNL     1      -1.678  10.094  18.644  0.00  0.00    +0.000 OA
ATOM     24  H   UNL     1      -0.980   9.613  18.165  0.00  0.00    +0.000 HD
ENDBRANCH  22  23
ENDBRANCH  15  17
ENDBRANCH   2  13
BRANCH   2  25
ATOM     25  C   UNL     1       2.068   7.198  19.898  0.00  0.00    +0.000 C 
ATOM     26  N   UNL     1       1.928   6.418  20.879  0.00  0.00    +0.000 NA
ENDBRANCH   2  25
TORSDOF 5
ENDMDL
