MODEL 1
REMARK VINA RESULT:      -6.9      0.000      0.000
REMARK  Name = 
REMARK  6 active torsions:
REMARK  status: ('A' for Active; 'I' for Inactive)
REMARK    1  A    between atoms: C_1  and  C_2
REMARK    2  A    between atoms: C_2  and  C_3
REMARK    3  A    between atoms: C_2  and  C_4
REMARK    4  A    between atoms: C_2  and  C_5
REMARK    5  A    between atoms: C_5  and  C_6
REMARK    6  A    between atoms: C_14  and  C_15
REMARK                            x       y       z     vdW  Elec       q    Type
REMARK                         _______ _______ _______ _____ _____    ______ ____
ROOT
ATOM      1  C   UNL     1       2.675   6.174  19.653  0.00  0.00    +0.000 C 
ATOM      2  O   UNL     1       2.237   5.619  20.655  0.00  0.00    +0.000 OA
ATOM      3  N   UNL     1       2.341   7.435  19.205  0.00  0.00    +0.000 N 
ATOM      4  C   UNL     1       1.568   8.266  19.975  0.00  0.00    +0.000 A 
ATOM      5  N   UNL     1       1.254   8.128  21.233  0.00  0.00    +0.000 NA
ATOM      6  C   UNL     1       0.444   9.165  21.633  0.00  0.00    +0.000 A 
ATOM      7  C   UNL     1      -0.091   9.331  22.923  0.00  0.00    +0.000 A 
ATOM      8  C   UNL     1      -0.928  10.417  23.197  0.00  0.00    +0.000 A 
ATOM      9  C   UNL     1      -1.246  11.347  22.201  0.00  0.00    +0.000 A 
ATOM     10  C   UNL     1      -0.703  11.202  20.906  0.00  0.00    +0.000 A 
ATOM     11  C   UNL     1       0.144  10.107  20.646  0.00  0.00    +0.000 A 
ATOM     12  S   UNL     1       0.973   9.660  19.194  0.00  0.00    +0.000 S 
ATOM     13  H   UNL     1       2.572   7.743  18.274  0.00  0.00    +0.000 HD
ENDROOT
BRANCH   9  14
ATOM     14  C   UNL     1      -2.169  12.507  22.505  0.00  0.00    +0.000 C 
ATOM     15  F   UNL     1      -2.794  12.405  23.711  0.00  0.00    +0.000 F 
ATOM     16  F   UNL     1      -1.515  13.701  22.523  0.00  0.00    +0.000 F 
ATOM     17  F   UNL     1      -3.161  12.636  21.582  0.00  0.00    +0.000 F 
ENDBRANCH   9  14
BRANCH   1  18
ATOM     18  C   UNL     1       3.681   5.450  18.773  0.00  0.00    +0.000 C 
BRANCH  18  20
ATOM     19  C   UNL     1       1.678   4.331  17.645  0.00  0.00    +0.000 C 
ATOM     20  C   UNL     1       3.137   4.164  18.106  0.00  0.00    +0.000 C 
ATOM     21  C   UNL     1       3.228   2.969  19.068  0.00  0.00    +0.000 C 
ATOM     22  C   UNL     1       3.995   3.865  16.860  0.00  0.00    +0.000 C 
ENDBRANCH  18  20
ENDBRANCH   1  18
TORSDOF 3
ENDMDL
MODEL 2
REMARK VINA RESULT:      -6.9      0.378      1.329
REMARK  Name = 
REMARK  6 active torsions:
REMARK  status: ('A' for Active; 'I' for Inactive)
REMARK    1  A    between atoms: C_1  and  C_2
REMARK    2  A    between atoms: C_2  and  C_3
REMARK    3  A    between atoms: C_2  and  C_4
REMARK    4  A    between atoms: C_2  and  C_5
REMARK    5  A    between atoms: C_5  and  C_6
REMARK    6  A    between atoms: C_14  and  C_15
REMARK                            x       y       z     vdW  Elec       q    Type
REMARK                         _______ _______ _______ _____ _____    ______ ____
ROOT
ATOM      1  C   UNL     1       2.657   6.071  19.720  0.00  0.00    +0.000 C 
ATOM      2  O   UNL     1       2.178   5.518  20.705  0.00  0.00    +0.000 OA
ATOM      3  N   UNL     1       2.371   7.347  19.282  0.00  0.00    +0.000 N 
ATOM      4  C   UNL     1       1.606   8.192  20.044  0.00  0.00    +0.000 A 
ATOM      5  N   UNL     1       1.259   8.048  21.293  0.00  0.00    +0.000 NA
ATOM      6  C   UNL     1       0.471   9.105  21.687  0.00  0.00    +0.000 A 
ATOM      7  C   UNL     1      -0.088   9.271  22.967  0.00  0.00    +0.000 A 
ATOM      8  C   UNL     1      -0.898  10.379  23.236  0.00  0.00    +0.000 A 
ATOM      9  C   UNL     1      -1.164  11.330  22.245  0.00  0.00    +0.000 A 
ATOM     10  C   UNL     1      -0.596  11.185  20.961  0.00  0.00    +0.000 A 
ATOM     11  C   UNL     1       0.223  10.068  20.707  0.00  0.00    +0.000 A 
ATOM     12  S   UNL     1       1.073   9.613  19.268  0.00  0.00    +0.000 S 
ATOM     13  H   UNL     1       2.634   7.659  18.360  0.00  0.00    +0.000 HD
ENDROOT
BRANCH   9  14
ATOM     14  C   UNL     1      -2.059  12.514  22.543  0.00  0.00    +0.000 C 
ATOM     15  F   UNL     1      -2.350  13.268  21.447  0.00  0.00    +0.000 F 
ATOM     16  F   UNL     1      -3.258  12.139  23.068  0.00  0.00    +0.000 F 
ATOM     17  F   UNL     1      -1.505  13.368  23.446  0.00  0.00    +0.000 F 
ENDBRANCH   9  14
BRANCH   1  18
ATOM     18  C   UNL     1       3.661   5.328  18.854  0.00  0.00    +0.000 C 
BRANCH  18  20
ATOM     19  C   UNL     1       3.028   2.859  19.061  0.00  0.00    +0.000 C 
ATOM     20  C   UNL     1       3.085   4.086  18.133  0.00  0.00    +0.000 C 
ATOM     21  C   UNL     1       3.921   3.739  16.891  0.00  0.00    +0.000 C 
ATOM     22  C   UNL     1       1.645   4.409  17.688  0.00  0.00    +0.000 C 
ENDBRANCH  18  20
ENDBRANCH   1  18
TORSDOF 3
ENDMDL
MODEL 3
REMARK VINA RESULT:      -6.8      0.367      1.191
REMARK  Name = 
REMARK  6 active torsions:
REMARK  status: ('A' for Active; 'I' for Inactive)
REMARK    1  A    between atoms: C_1  and  C_2
REMARK    2  A    between atoms: C_2  and  C_3
REMARK    3  A    between atoms: C_2  and  C_4
REMARK    4  A    between atoms: C_2  and  C_5
REMARK    5  A    between atoms: C_5  and  C_6
REMARK    6  A    between atoms: C_14  and  C_15
REMARK                            x       y       z     vdW  Elec       q    Type
REMARK                         _______ _______ _______ _____ _____    ______ ____
ROOT
ATOM      1  C   UNL     1       2.639   5.868  19.887  0.00  0.00    +0.000 C 
ATOM      2  O   UNL     1       2.118   5.359  20.875  0.00  0.00    +0.000 OA
ATOM      3  N   UNL     1       2.400   7.137  19.402  0.00  0.00    +0.000 N 
ATOM      4  C   UNL     1       1.637   8.025  20.115  0.00  0.00    +0.000 A 
ATOM      5  N   UNL     1       1.252   7.930  21.357  0.00  0.00    +0.000 NA
ATOM      6  C   UNL     1       0.482   9.019  21.696  0.00  0.00    +0.000 A 
ATOM      7  C   UNL     1      -0.108   9.240  22.954  0.00  0.00    +0.000 A 
ATOM      8  C   UNL     1      -0.895  10.375  23.165  0.00  0.00    +0.000 A 
ATOM      9  C   UNL     1      -1.108  11.302  22.138  0.00  0.00    +0.000 A 
ATOM     10  C   UNL     1      -0.508  11.102  20.876  0.00  0.00    +0.000 A 
ATOM     11  C   UNL     1       0.288   9.956  20.680  0.00  0.00    +0.000 A 
ATOM     12  S   UNL     1       1.164   9.435  19.281  0.00  0.00    +0.000 S 
ATOM     13  H   UNL     1       2.697   7.413  18.478  0.00  0.00    +0.000 HD
ENDROOT
BRANCH   9  14
ATOM     14  C   UNL     1      -1.978  12.518  22.374  0.00  0.00    +0.000 C 
ATOM     15  F   UNL     1      -1.329  13.542  22.993  0.00  0.00    +0.000 F 
ATOM     16  F   UNL     1      -2.473  13.034  21.215  0.00  0.00    +0.000 F 
ATOM     17  F   UNL     1      -3.060  12.237  23.151  0.00  0.00    +0.000 F 
ENDBRANCH   9  14
BRANCH   1  18
ATOM     18  C   UNL     1       3.647   5.073  19.074  0.00  0.00    +0.000 C 
BRANCH  18  20
ATOM     19  C   UNL     1       3.868   3.778  16.880  0.00  0.00    +0.000 C 
ATOM     20  C   UNL     1       3.017   4.011  18.141  0.00  0.00    +0.000 C 
ATOM     21  C   UNL     1       1.597   4.425  17.721  0.00  0.00    +0.000 C 
ATOM     22  C   UNL     1       2.937   2.677  18.911  0.00  0.00    +0.000 C 
ENDBRANCH  18  20
ENDBRANCH   1  18
TORSDOF 3
ENDMDL
MODEL 4
REMARK VINA RESULT:      -6.7      7.689      9.678
REMARK  Name = 
REMARK  6 active torsions:
REMARK  status: ('A' for Active; 'I' for Inactive)
REMARK    1  A    between atoms: C_1  and  C_2
REMARK    2  A    between atoms: C_2  and  C_3
REMARK    3  A    between atoms: C_2  and  C_4
REMARK    4  A    between atoms: C_2  and  C_5
REMARK    5  A    between atoms: C_5  and  C_6
REMARK    6  A    between atoms: C_14  and  C_15
REMARK                            x       y       z     vdW  Elec       q    Type
REMARK                         _______ _______ _______ _____ _____    ______ ____
ROOT
ATOM      1  C   UNL     1       8.758   9.620  18.317  0.00  0.00    +0.000 C 
ATOM      2  O   UNL     1       7.814  10.176  17.763  0.00  0.00    +0.000 OA
ATOM      3  N   UNL     1       8.799   8.306  18.734  0.00  0.00    +0.000 N 
ATOM      4  C   UNL     1       7.792   7.437  18.403  0.00  0.00    +0.000 A 
ATOM      5  N   UNL     1       6.845   7.608  17.523  0.00  0.00    +0.000 NA
ATOM      6  C   UNL     1       6.018   6.509  17.501  0.00  0.00    +0.000 A 
ATOM      7  C   UNL     1       4.888   6.355  16.677  0.00  0.00    +0.000 A 
ATOM      8  C   UNL     1       4.109   5.199  16.770  0.00  0.00    +0.000 A 
ATOM      9  C   UNL     1       4.437   4.184  17.677  0.00  0.00    +0.000 A 
ATOM     10  C   UNL     1       5.577   4.317  18.497  0.00  0.00    +0.000 A 
ATOM     11  C   UNL     1       6.356   5.485  18.388  0.00  0.00    +0.000 A 
ATOM     12  S   UNL     1       7.803   5.942  19.224  0.00  0.00    +0.000 S 
ATOM     13  H   UNL     1       9.514   7.975  19.363  0.00  0.00    +0.000 HD
ENDROOT
BRANCH   9  14
ATOM     14  C   UNL     1       3.573   2.945  17.782  0.00  0.00    +0.000 C 
ATOM     15  F   UNL     1       4.229   1.795  17.464  0.00  0.00    +0.000 F 
ATOM     16  F   UNL     1       3.081   2.761  19.038  0.00  0.00    +0.000 F 
ATOM     17  F   UNL     1       2.491   2.997  16.959  0.00  0.00    +0.000 F 
ENDBRANCH   9  14
BRANCH   1  18
ATOM     18  C   UNL     1      10.028  10.403  18.606  0.00  0.00    +0.000 C 
BRANCH  18  20
ATOM     19  C   UNL     1       9.127  10.962  20.933  0.00  0.00    +0.000 C 
ATOM     20  C   UNL     1       9.872  11.492  19.695  0.00  0.00    +0.000 C 
ATOM     21  C   UNL     1       9.122  12.714  19.141  0.00  0.00    +0.000 C 
ATOM     22  C   UNL     1      11.280  11.933  20.143  0.00  0.00    +0.000 C 
ENDBRANCH  18  20
ENDBRANCH   1  18
TORSDOF 3
ENDMDL
MODEL 5
REMARK VINA RESULT:      -6.6      0.831      1.473
REMARK  Name = 
REMARK  6 active torsions:
REMARK  status: ('A' for Active; 'I' for Inactive)
REMARK    1  A    between atoms: C_1  and  C_2
REMARK    2  A    between atoms: C_2  and  C_3
REMARK    3  A    between atoms: C_2  and  C_4
REMARK    4  A    between atoms: C_2  and  C_5
REMARK    5  A    between atoms: C_5  and  C_6
REMARK    6  A    between atoms: C_14  and  C_15
REMARK                            x       y       z     vdW  Elec       q    Type
REMARK                         _______ _______ _______ _____ _____    ______ ____
ROOT
ATOM      1  C   UNL     1       2.907   6.642  18.758  0.00  0.00    +0.000 C 
ATOM      2  O   UNL     1       2.688   5.963  19.757  0.00  0.00    +0.000 OA
ATOM      3  N   UNL     1       2.380   7.888  18.487  0.00  0.00    +0.000 N 
ATOM      4  C   UNL     1       1.656   8.560  19.437  0.00  0.00    +0.000 A 
ATOM      5  N   UNL     1       1.557   8.289  20.709  0.00  0.00    +0.000 NA
ATOM      6  C   UNL     1       0.718   9.191  21.320  0.00  0.00    +0.000 A 
ATOM      7  C   UNL     1       0.377   9.192  22.684  0.00  0.00    +0.000 A 
ATOM      8  C   UNL     1      -0.514  10.149  23.180  0.00  0.00    +0.000 A 
ATOM      9  C   UNL     1      -1.076  11.112  22.334  0.00  0.00    +0.000 A 
ATOM     10  C   UNL     1      -0.729  11.134  20.967  0.00  0.00    +0.000 A 
ATOM     11  C   UNL     1       0.174  10.167  20.482  0.00  0.00    +0.000 A 
ATOM     12  S   UNL     1       0.808   9.935  18.888  0.00  0.00    +0.000 S 
ATOM     13  H   UNL     1       2.432   8.293  17.565  0.00  0.00    +0.000 HD
ENDROOT
BRANCH   9  14
ATOM     14  C   UNL     1      -2.054  12.130  22.880  0.00  0.00    +0.000 C 
ATOM     15  F   UNL     1      -2.798  12.742  21.917  0.00  0.00    +0.000 F 
ATOM     16  F   UNL     1      -2.946  11.579  23.748  0.00  0.00    +0.000 F 
ATOM     17  F   UNL     1      -1.434  13.130  23.564  0.00  0.00    +0.000 F 
ENDBRANCH   9  14
BRANCH   1  18
ATOM     18  C   UNL     1       3.832   6.111  17.676  0.00  0.00    +0.000 C 
BRANCH  18  20
ATOM     19  C   UNL     1       4.718   4.093  16.379  0.00  0.00    +0.000 C 
ATOM     20  C   UNL     1       3.888   4.567  17.585  0.00  0.00    +0.000 C 
ATOM     21  C   UNL     1       2.473   3.974  17.487  0.00  0.00    +0.000 C 
ATOM     22  C   UNL     1       4.563   4.032  18.864  0.00  0.00    +0.000 C 
ENDBRANCH  18  20
ENDBRANCH   1  18
TORSDOF 3
ENDMDL
MODEL 6
REMARK VINA RESULT:      -6.6      1.698      2.470
REMARK  Name = 
REMARK  6 active torsions:
REMARK  status: ('A' for Active; 'I' for Inactive)
REMARK    1  A    between atoms: C_1  and  C_2
REMARK    2  A    between atoms: C_2  and  C_3
REMARK    3  A    between atoms: C_2  and  C_4
REMARK    4  A    between atoms: C_2  and  C_5
REMARK    5  A    between atoms: C_5  and  C_6
REMARK    6  A    between atoms: C_14  and  C_15
REMARK                            x       y       z     vdW  Elec       q    Type
REMARK                         _______ _______ _______ _____ _____    ______ ____
ROOT
ATOM      1  C   UNL     1       3.505   5.862  17.989  0.00  0.00    +0.000 C 
ATOM      2  O   UNL     1       3.128   5.152  18.915  0.00  0.00    +0.000 OA
ATOM      3  N   UNL     1       3.134   7.170  17.759  0.00  0.00    +0.000 N 
ATOM      4  C   UNL     1       2.395   7.859  18.687  0.00  0.00    +0.000 A 
ATOM      5  N   UNL     1       2.152   7.523  19.924  0.00  0.00    +0.000 NA
ATOM      6  C   UNL     1       1.354   8.472  20.520  0.00  0.00    +0.000 A 
ATOM      7  C   UNL     1       0.889   8.428  21.847  0.00  0.00    +0.000 A 
ATOM      8  C   UNL     1       0.057   9.443  22.329  0.00  0.00    +0.000 A 
ATOM      9  C   UNL     1      -0.325  10.509  21.506  0.00  0.00    +0.000 A 
ATOM     10  C   UNL     1       0.148  10.575  20.178  0.00  0.00    +0.000 A 
ATOM     11  C   UNL     1       0.991   9.548  19.708  0.00  0.00    +0.000 A 
ATOM     12  S   UNL     1       1.745   9.345  18.163  0.00  0.00    +0.000 S 
ATOM     13  H   UNL     1       3.311   7.622  16.876  0.00  0.00    +0.000 HD
ENDROOT
BRANCH   9  14
ATOM     14  C   UNL     1      -1.242  11.591  22.034  0.00  0.00    +0.000 C 
ATOM     15  F   UNL     1      -0.585  12.707  22.452  0.00  0.00    +0.000 F 
ATOM     16  F   UNL     1      -2.138  12.012  21.099  0.00  0.00    +0.000 F 
ATOM     17  F   UNL     1      -1.980  11.171  23.098  0.00  0.00    +0.000 F 
ENDBRANCH   9  14
BRANCH   1  18
ATOM     18  C   UNL     1       4.469   5.301  16.956  0.00  0.00    +0.000 C 
BRANCH  18  20
ATOM     19  C   UNL     1       6.358   7.014  17.146  0.00  0.00    +0.000 C 
ATOM     20  C   UNL     1       5.963   5.533  17.286  0.00  0.00    +0.000 C 
ATOM     21  C   UNL     1       6.863   4.684  16.374  0.00  0.00    +0.000 C 
ATOM     22  C   UNL     1       6.205   5.116  18.751  0.00  0.00    +0.000 C 
ENDBRANCH  18  20
ENDBRANCH   1  18
TORSDOF 3
ENDMDL
MODEL 7
REMARK VINA RESULT:      -6.6      0.823      1.261
REMARK  Name = 
REMARK  6 active torsions:
REMARK  status: ('A' for Active; 'I' for Inactive)
REMARK    1  A    between atoms: C_1  and  C_2
REMARK    2  A    between atoms: C_2  and  C_3
REMARK    3  A    between atoms: C_2  and  C_4
REMARK    4  A    between atoms: C_2  and  C_5
REMARK    5  A    between atoms: C_5  and  C_6
REMARK    6  A    between atoms: C_14  and  C_15
REMARK                            x       y       z     vdW  Elec       q    Type
REMARK                         _______ _______ _______ _____ _____    ______ ____
ROOT
ATOM      1  C   UNL     1       2.870   6.642  18.761  0.00  0.00    +0.000 C 
ATOM      2  O   UNL     1       2.628   5.957  19.749  0.00  0.00    +0.000 OA
ATOM      3  N   UNL     1       2.368   7.900  18.497  0.00  0.00    +0.000 N 
ATOM      4  C   UNL     1       1.645   8.576  19.447  0.00  0.00    +0.000 A 
ATOM      5  N   UNL     1       1.529   8.292  20.714  0.00  0.00    +0.000 NA
ATOM      6  C   UNL     1       0.698   9.203  21.326  0.00  0.00    +0.000 A 
ATOM      7  C   UNL     1       0.343   9.195  22.687  0.00  0.00    +0.000 A 
ATOM      8  C   UNL     1      -0.536  10.163  23.183  0.00  0.00    +0.000 A 
ATOM      9  C   UNL     1      -1.072  11.145  22.342  0.00  0.00    +0.000 A 
ATOM     10  C   UNL     1      -0.710  11.174  20.978  0.00  0.00    +0.000 A 
ATOM     11  C   UNL     1       0.181  10.197  20.493  0.00  0.00    +0.000 A 
ATOM     12  S   UNL     1       0.828   9.971  18.904  0.00  0.00    +0.000 S 
ATOM     13  H   UNL     1       2.436   8.314  17.580  0.00  0.00    +0.000 HD
ENDROOT
BRANCH   9  14
ATOM     14  C   UNL     1      -2.037  12.174  22.888  0.00  0.00    +0.000 C 
ATOM     15  F   UNL     1      -3.012  11.643  23.677  0.00  0.00    +0.000 F 
ATOM     16  F   UNL     1      -1.415  13.118  23.646  0.00  0.00    +0.000 F 
ATOM     17  F   UNL     1      -2.685  12.852  21.901  0.00  0.00    +0.000 F 
ENDBRANCH   9  14
BRANCH   1  18
ATOM     18  C   UNL     1       3.797   6.107  17.682  0.00  0.00    +0.000 C 
BRANCH  18  20
ATOM     19  C   UNL     1       4.554   3.986  18.894  0.00  0.00    +0.000 C 
ATOM     20  C   UNL     1       3.890   4.563  17.630  0.00  0.00    +0.000 C 
ATOM     21  C   UNL     1       4.679   4.104  16.393  0.00  0.00    +0.000 C 
ATOM     22  C   UNL     1       2.460   3.994  17.546  0.00  0.00    +0.000 C 
ENDBRANCH  18  20
ENDBRANCH   1  18
TORSDOF 3
ENDMDL
MODEL 8
REMARK VINA RESULT:      -6.6      1.737      2.526
REMARK  Name = 
REMARK  6 active torsions:
REMARK  status: ('A' for Active; 'I' for Inactive)
REMARK    1  A    between atoms: C_1  and  C_2
REMARK    2  A    between atoms: C_2  and  C_3
REMARK    3  A    between atoms: C_2  and  C_4
REMARK    4  A    between atoms: C_2  and  C_5
REMARK    5  A    between atoms: C_5  and  C_6
REMARK    6  A    between atoms: C_14  and  C_15
REMARK                            x       y       z     vdW  Elec       q    Type
REMARK                         _______ _______ _______ _____ _____    ______ ____
ROOT
ATOM      1  C   UNL     1       3.574   5.882  18.045  0.00  0.00    +0.000 C 
ATOM      2  O   UNL     1       3.108   5.193  18.947  0.00  0.00    +0.000 OA
ATOM      3  N   UNL     1       3.249   7.193  17.768  0.00  0.00    +0.000 N 
ATOM      4  C   UNL     1       2.452   7.910  18.624  0.00  0.00    +0.000 A 
ATOM      5  N   UNL     1       2.102   7.598  19.841  0.00  0.00    +0.000 NA
ATOM      6  C   UNL     1       1.278   8.570  20.358  0.00  0.00    +0.000 A 
ATOM      7  C   UNL     1       0.707   8.555  21.643  0.00  0.00    +0.000 A 
ATOM      8  C   UNL     1      -0.141   9.593  22.042  0.00  0.00    +0.000 A 
ATOM      9  C   UNL     1      -0.433  10.654  21.176  0.00  0.00    +0.000 A 
ATOM     10  C   UNL     1       0.147  10.690  19.890  0.00  0.00    +0.000 A 
ATOM     11  C   UNL     1       1.004   9.641  19.504  0.00  0.00    +0.000 A 
ATOM     12  S   UNL     1       1.876   9.400  18.028  0.00  0.00    +0.000 S 
ATOM     13  H   UNL     1       3.506   7.628  16.896  0.00  0.00    +0.000 HD
ENDROOT
BRANCH   9  14
ATOM     14  C   UNL     1      -1.368  11.761  21.613  0.00  0.00    +0.000 C 
ATOM     15  F   UNL     1      -2.362  12.020  20.718  0.00  0.00    +0.000 F 
ATOM     16  F   UNL     1      -1.990  11.480  22.791  0.00  0.00    +0.000 F 
ATOM     17  F   UNL     1      -0.720  12.942  21.803  0.00  0.00    +0.000 F 
ENDBRANCH   9  14
BRANCH   1  18
ATOM     18  C   UNL     1       4.607   5.287  17.102  0.00  0.00    +0.000 C 
BRANCH  18  20
ATOM     19  C   UNL     1       6.298   5.290  19.020  0.00  0.00    +0.000 C 
ATOM     20  C   UNL     1       6.075   5.546  17.518  0.00  0.00    +0.000 C 
ATOM     21  C   UNL     1       6.491   6.988  17.186  0.00  0.00    +0.000 C 
ATOM     22  C   UNL     1       6.979   4.574  16.733  0.00  0.00    +0.000 C 
ENDBRANCH  18  20
ENDBRANCH   1  18
TORSDOF 3
ENDMDL
MODEL 9
REMARK VINA RESULT:      -6.6      1.695      2.304
REMARK  Name = 
REMARK  6 active torsions:
REMARK  status: ('A' for Active; 'I' for Inactive)
REMARK    1  A    between atoms: C_1  and  C_2
REMARK    2  A    between atoms: C_2  and  C_3
REMARK    3  A    between atoms: C_2  and  C_4
REMARK    4  A    between atoms: C_2  and  C_5
REMARK    5  A    between atoms: C_5  and  C_6
REMARK    6  A    between atoms: C_14  and  C_15
REMARK                            x       y       z     vdW  Elec       q    Type
REMARK                         _______ _______ _______ _____ _____    ______ ____
ROOT
ATOM      1  C   UNL     1       3.539   5.768  18.071  0.00  0.00    +0.000 C 
ATOM      2  O   UNL     1       3.142   5.082  19.008  0.00  0.00    +0.000 OA
ATOM      3  N   UNL     1       3.177   7.072  17.805  0.00  0.00    +0.000 N 
ATOM      4  C   UNL     1       2.427   7.785  18.703  0.00  0.00    +0.000 A 
ATOM      5  N   UNL     1       2.162   7.481  19.943  0.00  0.00    +0.000 NA
ATOM      6  C   UNL     1       1.358   8.447  20.504  0.00  0.00    +0.000 A 
ATOM      7  C   UNL     1       0.871   8.437  21.824  0.00  0.00    +0.000 A 
ATOM      8  C   UNL     1       0.036   9.466  22.267  0.00  0.00    +0.000 A 
ATOM      9  C   UNL     1      -0.326  10.514  21.413  0.00  0.00    +0.000 A 
ATOM     10  C   UNL     1       0.169  10.546  20.091  0.00  0.00    +0.000 A 
ATOM     11  C   UNL     1       1.014   9.505  19.660  0.00  0.00    +0.000 A 
ATOM     12  S   UNL     1       1.792   9.262  18.133  0.00  0.00    +0.000 S 
ATOM     13  H   UNL     1       3.371   7.502  16.913  0.00  0.00    +0.000 HD
ENDROOT
BRANCH   9  14
ATOM     14  C   UNL     1      -1.247  11.612  21.899  0.00  0.00    +0.000 C 
ATOM     15  F   UNL     1      -1.926  11.292  23.035  0.00  0.00    +0.000 F 
ATOM     16  F   UNL     1      -0.579  12.766  22.175  0.00  0.00    +0.000 F 
ATOM     17  F   UNL     1      -2.195  11.939  20.978  0.00  0.00    +0.000 F 
ENDBRANCH   9  14
BRANCH   1  18
ATOM     18  C   UNL     1       4.517   5.178  17.069  0.00  0.00    +0.000 C 
BRANCH  18  20
ATOM     19  C   UNL     1       6.934   4.457  16.647  0.00  0.00    +0.000 C 
ATOM     20  C   UNL     1       6.006   5.415  17.416  0.00  0.00    +0.000 C 
ATOM     21  C   UNL     1       6.249   5.248  18.924  0.00  0.00    +0.000 C 
ATOM     22  C   UNL     1       6.374   6.857  17.010  0.00  0.00    +0.000 C 
ENDBRANCH  18  20
ENDBRANCH   1  18
TORSDOF 3
ENDMDL
