MODEL 1
REMARK VINA RESULT:      -8.2      0.000      0.000
REMARK  Name = 
REMARK  8 active torsions:
REMARK  status: ('A' for Active; 'I' for Inactive)
REMARK    1  A    between atoms: C_1  and  C_2
REMARK    2  A    between atoms: C_2  and  C_3
REMARK    3  A    between atoms: N_5  and  C_6
REMARK    4  A    between atoms: C_8  and  O_9
REMARK    5  A    between atoms: C_10  and  C_11
REMARK    6  A    between atoms: C_11  and  N_12
REMARK    7  A    between atoms: C_13  and  C_15
REMARK    8  A    between atoms: C_15  and  C_16
REMARK                            x       y       z     vdW  Elec       q    Type
REMARK                         _______ _______ _______ _____ _____    ______ ____
ROOT
ATOM      1  C   UNL     1       5.923   4.595  18.303  0.00  0.00    +0.000 C 
ATOM      2  C   UNL     1       5.721   4.994  16.848  0.00  0.00    +0.000 C 
ATOM      3  C   UNL     1       7.100   5.451  16.441  0.00  0.00    +0.000 C 
ATOM      4  C   UNL     1       7.674   6.062  17.723  0.00  0.00    +0.000 C 
ATOM      5  O   UNL     1       6.977   5.429  18.825  0.00  0.00    +0.000 OA
ENDROOT
BRANCH   1   8
ATOM      6  C   UNL     1       2.807   6.067  19.656  0.00  0.00    +0.000 A 
ATOM      7  C   UNL     1       4.017   5.936  19.109  0.00  0.00    +0.000 A 
ATOM      8  N   UNL     1       4.706   4.739  19.092  0.00  0.00    +0.000 N 
ATOM      9  C   UNL     1       4.176   3.594  19.667  0.00  0.00    +0.000 A 
ATOM     10  O   UNL     1       4.688   2.481  19.580  0.00  0.00    +0.000 OA
ATOM     11  N   UNL     1       2.991   3.762  20.336  0.00  0.00    +0.000 N 
ATOM     12  C   UNL     1       2.207   4.882  20.309  0.00  0.00    +0.000 A 
ATOM     13  O   UNL     1       1.076   4.893  20.776  0.00  0.00    +0.000 OA
ATOM     14  H   UNL     1       2.580   2.933  20.738  0.00  0.00    +0.000 HD
BRANCH   6  16
ATOM     15  C   UNL     1       2.283   8.090  18.268  0.00  0.00    +0.000 C 
ATOM     16  C   UNL     1       2.003   7.332  19.557  0.00  0.00    +0.000 C 
ENDBRANCH   6  16
ENDBRANCH   1   8
BRANCH   3  17
ATOM     17  O   UNL     1       7.857   4.323  16.003  0.00  0.00    +0.000 OA
ATOM     18  H   UNL     1       7.613   4.101  15.088  0.00  0.00    +0.000 HD
ENDBRANCH   3  17
BRANCH   4  19
ATOM     19  C   UNL     1       7.432   7.584  17.784  0.00  0.00    +0.000 C 
BRANCH  19  20
ATOM     20  N   UNL     1       8.426   8.298  18.572  0.00  0.00    +0.000 N 
ATOM     21  C   UNL     1       8.592   9.664  18.461  0.00  0.00    +0.000 C 
ATOM     22  O   UNL     1       7.893  10.360  17.732  0.00  0.00    +0.000 OA
ATOM     23  H   UNL     1       9.171   7.763  19.002  0.00  0.00    +0.000 HD
BRANCH  21  24
ATOM     24  C   UNL     1       9.710  10.244  19.312  0.00  0.00    +0.000 C 
BRANCH  24  25
ATOM     25  C   UNL     1      10.131  11.609  18.822  0.00  0.00    +0.000 A 
ATOM     26  C   UNL     1      10.939  11.696  17.673  0.00  0.00    +0.000 A 
ATOM     27  C   UNL     1      11.430  12.926  17.236  0.00  0.00    +0.000 A 
ATOM     28  C   UNL     1      11.125  14.089  17.938  0.00  0.00    +0.000 A 
ATOM     29  C   UNL     1      10.310  14.022  19.068  0.00  0.00    +0.000 A 
ATOM     30  C   UNL     1       9.813  12.792  19.507  0.00  0.00    +0.000 A 
ATOM     31 CL   UNL     1       8.812  12.790  20.918  0.00  0.00    +0.000 Cl
ENDBRANCH  24  25
ENDBRANCH  21  24
ENDBRANCH  19  20
ENDBRANCH   4  19
TORSDOF 7
ENDMDL
MODEL 2
REMARK VINA RESULT:      -8.0      4.065      7.864
REMARK  Name = 
REMARK  8 active torsions:
REMARK  status: ('A' for Active; 'I' for Inactive)
REMARK    1  A    between atoms: C_1  and  C_2
REMARK    2  A    between atoms: C_2  and  C_3
REMARK    3  A    between atoms: N_5  and  C_6
REMARK    4  A    between atoms: C_8  and  O_9
REMARK    5  A    between atoms: C_10  and  C_11
REMARK    6  A    between atoms: C_11  and  N_12
REMARK    7  A    between atoms: C_13  and  C_15
REMARK    8  A    between atoms: C_15  and  C_16
REMARK                            x       y       z     vdW  Elec       q    Type
REMARK                         _______ _______ _______ _____ _____    ______ ____
ROOT
ATOM      1  C   UNL     1       3.005   4.044  19.052  0.00  0.00    +0.000 C 
ATOM      2  C   UNL     1       3.198   3.746  20.533  0.00  0.00    +0.000 C 
ATOM      3  C   UNL     1       1.895   4.215  21.132  0.00  0.00    +0.000 C 
ATOM      4  C   UNL     1       1.494   5.400  20.248  0.00  0.00    +0.000 C 
ATOM      5  O   UNL     1       2.130   5.186  18.963  0.00  0.00    +0.000 OA
ENDROOT
BRANCH   1   8
ATOM      6  C   UNL     1       6.498   5.131  18.486  0.00  0.00    +0.000 A 
ATOM      7  C   UNL     1       5.264   5.029  18.983  0.00  0.00    +0.000 A 
ATOM      8  N   UNL     1       4.266   4.299  18.368  0.00  0.00    +0.000 N 
ATOM      9  C   UNL     1       4.492   3.637  17.171  0.00  0.00    +0.000 A 
ATOM     10  O   UNL     1       3.682   2.881  16.640  0.00  0.00    +0.000 OA
ATOM     11  N   UNL     1       5.720   3.846  16.600  0.00  0.00    +0.000 N 
ATOM     12  C   UNL     1       6.784   4.467  17.194  0.00  0.00    +0.000 A 
ATOM     13  O   UNL     1       7.903   4.452  16.699  0.00  0.00    +0.000 OA
ATOM     14  H   UNL     1       5.908   3.351  15.742  0.00  0.00    +0.000 HD
BRANCH   6  16
ATOM     15  C   UNL     1       8.058   7.095  18.533  0.00  0.00    +0.000 C 
ATOM     16  C   UNL     1       7.616   5.812  19.221  0.00  0.00    +0.000 C 
ENDBRANCH   6  16
ENDBRANCH   1   8
BRANCH   3  17
ATOM     17  O   UNL     1       0.942   3.154  21.066  0.00  0.00    +0.000 OA
ATOM     18  H   UNL     1       1.196   2.530  20.365  0.00  0.00    +0.000 HD
ENDBRANCH   3  17
BRANCH   4  19
ATOM     19  C   UNL     1       1.987   6.738  20.836  0.00  0.00    +0.000 C 
BRANCH  19  20
ATOM     20  N   UNL     1       1.936   7.841  19.887  0.00  0.00    +0.000 N 
ATOM     21  C   UNL     1       1.070   8.903  20.058  0.00  0.00    +0.000 C 
ATOM     22  O   UNL     1       0.328   9.003  21.030  0.00  0.00    +0.000 OA
ATOM     23  H   UNL     1       2.341   7.702  18.969  0.00  0.00    +0.000 HD
BRANCH  21  24
ATOM     24  C   UNL     1       1.103   9.941  18.948  0.00  0.00    +0.000 C 
BRANCH  24  25
ATOM     25  C   UNL     1      -0.278  10.464  18.635  0.00  0.00    +0.000 A 
ATOM     26  C   UNL     1      -1.046   9.804  17.658  0.00  0.00    +0.000 A 
ATOM     27  C   UNL     1      -2.288  10.304  17.266  0.00  0.00    +0.000 A 
ATOM     28  C   UNL     1      -2.784  11.470  17.842  0.00  0.00    +0.000 A 
ATOM     29  C   UNL     1      -2.043  12.126  18.826  0.00  0.00    +0.000 A 
ATOM     30  C   UNL     1      -0.800  11.627  19.222  0.00  0.00    +0.000 A 
ATOM     31 CL   UNL     1       0.059  12.498  20.446  0.00  0.00    +0.000 Cl
ENDBRANCH  24  25
ENDBRANCH  21  24
ENDBRANCH  19  20
ENDBRANCH   4  19
TORSDOF 7
ENDMDL
MODEL 3
REMARK VINA RESULT:      -8.0      4.233      8.280
REMARK  Name = 
REMARK  8 active torsions:
REMARK  status: ('A' for Active; 'I' for Inactive)
REMARK    1  A    between atoms: C_1  and  C_2
REMARK    2  A    between atoms: C_2  and  C_3
REMARK    3  A    between atoms: N_5  and  C_6
REMARK    4  A    between atoms: C_8  and  O_9
REMARK    5  A    between atoms: C_10  and  C_11
REMARK    6  A    between atoms: C_11  and  N_12
REMARK    7  A    between atoms: C_13  and  C_15
REMARK    8  A    between atoms: C_15  and  C_16
REMARK                            x       y       z     vdW  Elec       q    Type
REMARK                         _______ _______ _______ _____ _____    ______ ____
ROOT
ATOM      1  C   UNL     1       2.904   4.732  18.432  0.00  0.00    +0.000 C 
ATOM      2  C   UNL     1       3.109   4.614  19.937  0.00  0.00    +0.000 C 
ATOM      3  C   UNL     1       1.878   5.291  20.487  0.00  0.00    +0.000 C 
ATOM      4  C   UNL     1       1.572   6.384  19.457  0.00  0.00    +0.000 C 
ATOM      5  O   UNL     1       2.147   5.936  18.203  0.00  0.00    +0.000 OA
ENDROOT
BRANCH   1   8
ATOM      6  C   UNL     1       6.200   5.911  17.227  0.00  0.00    +0.000 A 
ATOM      7  C   UNL     1       4.959   5.891  17.716  0.00  0.00    +0.000 A 
ATOM      8  N   UNL     1       4.164   4.762  17.701  0.00  0.00    +0.000 N 
ATOM      9  C   UNL     1       4.615   3.571  17.151  0.00  0.00    +0.000 A 
ATOM     10  O   UNL     1       4.001   2.510  17.213  0.00  0.00    +0.000 OA
ATOM     11  N   UNL     1       5.839   3.628  16.538  0.00  0.00    +0.000 N 
ATOM     12  C   UNL     1       6.720   4.673  16.602  0.00  0.00    +0.000 A 
ATOM     13  O   UNL     1       7.868   4.580  16.188  0.00  0.00    +0.000 OA
ATOM     14  H   UNL     1       6.192   2.764  16.155  0.00  0.00    +0.000 HD
BRANCH   6  16
ATOM     15  C   UNL     1       8.037   6.976  18.564  0.00  0.00    +0.000 C 
ATOM     16  C   UNL     1       7.109   7.097  17.364  0.00  0.00    +0.000 C 
ENDBRANCH   6  16
ENDBRANCH   1   8
BRANCH   3  17
ATOM     17  O   UNL     1       0.821   4.336  20.579  0.00  0.00    +0.000 OA
ATOM     18  H   UNL     1       1.085   3.614  21.176  0.00  0.00    +0.000 HD
ENDBRANCH   3  17
BRANCH   4  19
ATOM     19  C   UNL     1       2.214   7.729  19.851  0.00  0.00    +0.000 C 
BRANCH  19  20
ATOM     20  N   UNL     1       1.729   8.855  19.065  0.00  0.00    +0.000 N 
ATOM     21  C   UNL     1       0.739   9.694  19.537  0.00  0.00    +0.000 C 
ATOM     22  O   UNL     1       0.243   9.572  20.652  0.00  0.00    +0.000 OA
ATOM     23  H   UNL     1       1.925   8.865  18.071  0.00  0.00    +0.000 HD
BRANCH  21  24
ATOM     24  C   UNL     1       0.310  10.785  18.569  0.00  0.00    +0.000 C 
BRANCH  24  25
ATOM     25  C   UNL     1      -1.170  10.717  18.278  0.00  0.00    +0.000 A 
ATOM     26  C   UNL     1      -1.629   9.804  17.311  0.00  0.00    +0.000 A 
ATOM     27  C   UNL     1      -2.973   9.769  16.939  0.00  0.00    +0.000 A 
ATOM     28  C   UNL     1      -3.881  10.646  17.526  0.00  0.00    +0.000 A 
ATOM     29  C   UNL     1      -3.447  11.545  18.500  0.00  0.00    +0.000 A 
ATOM     30  C   UNL     1      -2.102  11.580  18.877  0.00  0.00    +0.000 A 
ATOM     31 CL   UNL     1      -1.639  12.724  20.090  0.00  0.00    +0.000 Cl
ENDBRANCH  24  25
ENDBRANCH  21  24
ENDBRANCH  19  20
ENDBRANCH   4  19
TORSDOF 7
ENDMDL
MODEL 4
REMARK VINA RESULT:      -8.0      6.183      9.996
REMARK  Name = 
REMARK  8 active torsions:
REMARK  status: ('A' for Active; 'I' for Inactive)
REMARK    1  A    between atoms: C_1  and  C_2
REMARK    2  A    between atoms: C_2  and  C_3
REMARK    3  A    between atoms: N_5  and  C_6
REMARK    4  A    between atoms: C_8  and  O_9
REMARK    5  A    between atoms: C_10  and  C_11
REMARK    6  A    between atoms: C_11  and  N_12
REMARK    7  A    between atoms: C_13  and  C_15
REMARK    8  A    between atoms: C_15  and  C_16
REMARK                            x       y       z     vdW  Elec       q    Type
REMARK                         _______ _______ _______ _____ _____    ______ ____
ROOT
ATOM      1  C   UNL     1      -0.705  11.273  19.953  0.00  0.00    +0.000 C 
ATOM      2  C   UNL     1      -0.798  10.031  20.829  0.00  0.00    +0.000 C 
ATOM      3  C   UNL     1       0.653   9.710  21.093  0.00  0.00    +0.000 C 
ATOM      4  C   UNL     1       1.364  10.154  19.810  0.00  0.00    +0.000 C 
ATOM      5  O   UNL     1       0.526  11.174  19.211  0.00  0.00    +0.000 OA
ENDROOT
BRANCH   1   8
ATOM      6  C   UNL     1      -3.038  10.571  17.165  0.00  0.00    +0.000 A 
ATOM      7  C   UNL     1      -1.936  10.629  17.917  0.00  0.00    +0.000 A 
ATOM      8  N   UNL     1      -1.845  11.405  19.055  0.00  0.00    +0.000 N 
ATOM      9  C   UNL     1      -2.906  12.193  19.476  0.00  0.00    +0.000 A 
ATOM     10  O   UNL     1      -2.924  12.809  20.538  0.00  0.00    +0.000 OA
ATOM     11  N   UNL     1      -3.988  12.228  18.637  0.00  0.00    +0.000 N 
ATOM     12  C   UNL     1      -4.190  11.416  17.555  0.00  0.00    +0.000 A 
ATOM     13  O   UNL     1      -5.261  11.376  16.964  0.00  0.00    +0.000 OA
ATOM     14  H   UNL     1      -4.778  12.777  18.942  0.00  0.00    +0.000 HD
BRANCH   6  16
ATOM     15  C   UNL     1      -2.893  10.305  14.675  0.00  0.00    +0.000 C 
ATOM     16  C   UNL     1      -3.182   9.628  16.006  0.00  0.00    +0.000 C 
ENDBRANCH   6  16
ENDBRANCH   1   8
BRANCH   3  17
ATOM     17  O   UNL     1       1.096  10.452  22.230  0.00  0.00    +0.000 OA
ATOM     18  H   UNL     1       0.820  11.380  22.142  0.00  0.00    +0.000 HD
ENDBRANCH   3  17
BRANCH   4  19
ATOM     19  C   UNL     1       1.519   8.985  18.816  0.00  0.00    +0.000 C 
BRANCH  19  20
ATOM     20  N   UNL     1       2.101   7.791  19.412  0.00  0.00    +0.000 N 
ATOM     21  C   UNL     1       2.972   6.982  18.708  0.00  0.00    +0.000 C 
ATOM     22  O   UNL     1       3.339   7.239  17.566  0.00  0.00    +0.000 OA
ATOM     23  H   UNL     1       1.664   7.408  20.242  0.00  0.00    +0.000 HD
BRANCH  21  24
ATOM     24  C   UNL     1       3.443   5.745  19.457  0.00  0.00    +0.000 C 
BRANCH  24  25
ATOM     25  C   UNL     1       2.523   4.571  19.223  0.00  0.00    +0.000 A 
ATOM     26  C   UNL     1       1.499   4.317  20.155  0.00  0.00    +0.000 A 
ATOM     27  C   UNL     1       0.685   3.191  20.034  0.00  0.00    +0.000 A 
ATOM     28  C   UNL     1       0.878   2.301  18.982  0.00  0.00    +0.000 A 
ATOM     29  C   UNL     1       1.876   2.547  18.039  0.00  0.00    +0.000 A 
ATOM     30  C   UNL     1       2.692   3.675  18.156  0.00  0.00    +0.000 A 
ATOM     31 CL   UNL     1       3.909   3.912  16.949  0.00  0.00    +0.000 Cl
ENDBRANCH  24  25
ENDBRANCH  21  24
ENDBRANCH  19  20
ENDBRANCH   4  19
TORSDOF 7
ENDMDL
MODEL 5
REMARK VINA RESULT:      -7.8      5.128      7.777
REMARK  Name = 
REMARK  8 active torsions:
REMARK  status: ('A' for Active; 'I' for Inactive)
REMARK    1  A    between atoms: C_1  and  C_2
REMARK    2  A    between atoms: C_2  and  C_3
REMARK    3  A    between atoms: N_5  and  C_6
REMARK    4  A    between atoms: C_8  and  O_9
REMARK    5  A    between atoms: C_10  and  C_11
REMARK    6  A    between atoms: C_11  and  N_12
REMARK    7  A    between atoms: C_13  and  C_15
REMARK    8  A    between atoms: C_15  and  C_16
REMARK                            x       y       z     vdW  Elec       q    Type
REMARK                         _______ _______ _______ _____ _____    ______ ____
ROOT
ATOM      1  C   UNL     1       4.065   3.727  17.318  0.00  0.00    +0.000 C 
ATOM      2  C   UNL     1       4.434   3.405  18.760  0.00  0.00    +0.000 C 
ATOM      3  C   UNL     1       3.170   3.758  19.506  0.00  0.00    +0.000 C 
ATOM      4  C   UNL     1       2.592   4.932  18.709  0.00  0.00    +0.000 C 
ATOM      5  O   UNL     1       3.104   4.801  17.359  0.00  0.00    +0.000 OA
ENDROOT
BRANCH   1   8
ATOM      6  C   UNL     1       6.288   4.109  14.382  0.00  0.00    +0.000 A 
ATOM      7  C   UNL     1       5.351   3.652  15.217  0.00  0.00    +0.000 A 
ATOM      8  N   UNL     1       5.225   4.096  16.518  0.00  0.00    +0.000 N 
ATOM      9  C   UNL     1       6.091   5.044  17.043  0.00  0.00    +0.000 A 
ATOM     10  O   UNL     1       5.956   5.559  18.149  0.00  0.00    +0.000 OA
ATOM     11  N   UNL     1       7.126   5.417  16.226  0.00  0.00    +0.000 N 
ATOM     12  C   UNL     1       7.256   5.101  14.902  0.00  0.00    +0.000 A 
ATOM     13  O   UNL     1       8.105   5.622  14.191  0.00  0.00    +0.000 OA
ATOM     14  H   UNL     1       7.750   6.125  16.584  0.00  0.00    +0.000 HD
BRANCH   6  16
ATOM     15  C   UNL     1       4.959   3.456  12.358  0.00  0.00    +0.000 C 
ATOM     16  C   UNL     1       6.341   3.725  12.932  0.00  0.00    +0.000 C 
ENDBRANCH   6  16
ENDBRANCH   1   8
BRANCH   3  17
ATOM     17  O   UNL     1       2.295   2.630  19.502  0.00  0.00    +0.000 OA
ATOM     18  H   UNL     1       2.815   1.813  19.597  0.00  0.00    +0.000 HD
ENDBRANCH   3  17
BRANCH   4  19
ATOM     19  C   UNL     1       3.045   6.287  19.289  0.00  0.00    +0.000 C 
BRANCH  19  20
ATOM     20  N   UNL     1       2.669   7.425  18.462  0.00  0.00    +0.000 N 
ATOM     21  C   UNL     1       1.885   8.450  18.955  0.00  0.00    +0.000 C 
ATOM     22  O   UNL     1       1.497   8.487  20.118  0.00  0.00    +0.000 OA
ATOM     23  H   UNL     1       2.757   7.337  17.457  0.00  0.00    +0.000 HD
BRANCH  21  24
ATOM     24  C   UNL     1       1.538   9.532  17.946  0.00  0.00    +0.000 C 
BRANCH  24  25
ATOM     25  C   UNL     1       0.210  10.179  18.259  0.00  0.00    +0.000 A 
ATOM     26  C   UNL     1      -0.956   9.642  17.682  0.00  0.00    +0.000 A 
ATOM     27  C   UNL     1      -2.194  10.260  17.865  0.00  0.00    +0.000 A 
ATOM     28  C   UNL     1      -2.288  11.422  18.625  0.00  0.00    +0.000 A 
ATOM     29  C   UNL     1      -1.144  11.957  19.219  0.00  0.00    +0.000 A 
ATOM     30  C   UNL     1       0.097  11.340  19.040  0.00  0.00    +0.000 A 
ATOM     31 CL   UNL     1       1.469  12.063  19.806  0.00  0.00    +0.000 Cl
ENDBRANCH  24  25
ENDBRANCH  21  24
ENDBRANCH  19  20
ENDBRANCH   4  19
TORSDOF 7
ENDMDL
MODEL 6
REMARK VINA RESULT:      -7.8      5.268      7.629
REMARK  Name = 
REMARK  8 active torsions:
REMARK  status: ('A' for Active; 'I' for Inactive)
REMARK    1  A    between atoms: C_1  and  C_2
REMARK    2  A    between atoms: C_2  and  C_3
REMARK    3  A    between atoms: N_5  and  C_6
REMARK    4  A    between atoms: C_8  and  O_9
REMARK    5  A    between atoms: C_10  and  C_11
REMARK    6  A    between atoms: C_11  and  N_12
REMARK    7  A    between atoms: C_13  and  C_15
REMARK    8  A    between atoms: C_15  and  C_16
REMARK                            x       y       z     vdW  Elec       q    Type
REMARK                         _______ _______ _______ _____ _____    ______ ____
ROOT
ATOM      1  C   UNL     1       2.820   3.334  17.705  0.00  0.00    +0.000 C 
ATOM      2  C   UNL     1       2.619   2.141  18.630  0.00  0.00    +0.000 C 
ATOM      3  C   UNL     1       1.273   2.432  19.248  0.00  0.00    +0.000 C 
ATOM      4  C   UNL     1       1.234   3.961  19.331  0.00  0.00    +0.000 C 
ATOM      5  O   UNL     1       2.130   4.450  18.302  0.00  0.00    +0.000 OA
ENDROOT
BRANCH   1   8
ATOM      6  C   UNL     1       5.940   4.384  16.010  0.00  0.00    +0.000 A 
ATOM      7  C   UNL     1       4.711   3.912  16.233  0.00  0.00    +0.000 A 
ATOM      8  N   UNL     1       4.229   3.644  17.499  0.00  0.00    +0.000 N 
ATOM      9  C   UNL     1       5.015   3.837  18.625  0.00  0.00    +0.000 A 
ATOM     10  O   UNL     1       4.604   3.727  19.777  0.00  0.00    +0.000 OA
ATOM     11  N   UNL     1       6.314   4.200  18.385  0.00  0.00    +0.000 N 
ATOM     12  C   UNL     1       6.831   4.579  17.177  0.00  0.00    +0.000 A 
ATOM     13  O   UNL     1       7.947   5.070  17.073  0.00  0.00    +0.000 OA
ATOM     14  H   UNL     1       6.892   4.369  19.195  0.00  0.00    +0.000 HD
BRANCH   6  16
ATOM     15  C   UNL     1       5.947   3.847  13.560  0.00  0.00    +0.000 C 
ATOM     16  C   UNL     1       6.416   4.800  14.649  0.00  0.00    +0.000 C 
ENDBRANCH   6  16
ENDBRANCH   1   8
BRANCH   3  17
ATOM     17  O   UNL     1       0.247   1.918  18.398  0.00  0.00    +0.000 OA
ATOM     18  H   UNL     1       0.099   2.532  17.658  0.00  0.00    +0.000 HD
ENDBRANCH   3  17
BRANCH   4  19
ATOM     19  C   UNL     1       1.723   4.467  20.704  0.00  0.00    +0.000 C 
BRANCH  19  20
ATOM     20  N   UNL     1       2.208   5.839  20.677  0.00  0.00    +0.000 N 
ATOM     21  C   UNL     1       1.348   6.913  20.807  0.00  0.00    +0.000 C 
ATOM     22  O   UNL     1       0.143   6.778  20.994  0.00  0.00    +0.000 OA
ATOM     23  H   UNL     1       3.131   6.014  20.297  0.00  0.00    +0.000 HD
BRANCH  21  24
ATOM     24  C   UNL     1       2.009   8.278  20.700  0.00  0.00    +0.000 C 
BRANCH  24  25
ATOM     25  C   UNL     1       1.032   9.334  20.244  0.00  0.00    +0.000 A 
ATOM     26  C   UNL     1       0.283  10.027  21.213  0.00  0.00    +0.000 A 
ATOM     27  C   UNL     1      -0.699  10.944  20.838  0.00  0.00    +0.000 A 
ATOM     28  C   UNL     1      -0.950  11.184  19.490  0.00  0.00    +0.000 A 
ATOM     29  C   UNL     1      -0.205  10.519  18.516  0.00  0.00    +0.000 A 
ATOM     30  C   UNL     1       0.781   9.602  18.889  0.00  0.00    +0.000 A 
ATOM     31 CL   UNL     1       1.662   8.815  17.624  0.00  0.00    +0.000 Cl
ENDBRANCH  24  25
ENDBRANCH  21  24
ENDBRANCH  19  20
ENDBRANCH   4  19
TORSDOF 7
ENDMDL
MODEL 7
REMARK VINA RESULT:      -7.7      5.071      8.095
REMARK  Name = 
REMARK  8 active torsions:
REMARK  status: ('A' for Active; 'I' for Inactive)
REMARK    1  A    between atoms: C_1  and  C_2
REMARK    2  A    between atoms: C_2  and  C_3
REMARK    3  A    between atoms: N_5  and  C_6
REMARK    4  A    between atoms: C_8  and  O_9
REMARK    5  A    between atoms: C_10  and  C_11
REMARK    6  A    between atoms: C_11  and  N_12
REMARK    7  A    between atoms: C_13  and  C_15
REMARK    8  A    between atoms: C_15  and  C_16
REMARK                            x       y       z     vdW  Elec       q    Type
REMARK                         _______ _______ _______ _____ _____    ______ ____
ROOT
ATOM      1  C   UNL     1       4.749   4.293  17.343  0.00  0.00    +0.000 C 
ATOM      2  C   UNL     1       5.262   4.785  18.689  0.00  0.00    +0.000 C 
ATOM      3  C   UNL     1       3.987   5.150  19.410  0.00  0.00    +0.000 C 
ATOM      4  C   UNL     1       3.064   5.641  18.290  0.00  0.00    +0.000 C 
ATOM      5  O   UNL     1       3.527   5.008  17.071  0.00  0.00    +0.000 OA
ENDROOT
BRANCH   1   8
ATOM      6  C   UNL     1       6.376   4.029  14.027  0.00  0.00    +0.000 A 
ATOM      7  C   UNL     1       5.639   3.758  15.106  0.00  0.00    +0.000 A 
ATOM      8  N   UNL     1       5.718   4.492  16.273  0.00  0.00    +0.000 N 
ATOM      9  C   UNL     1       6.596   5.559  16.394  0.00  0.00    +0.000 A 
ATOM     10  O   UNL     1       6.627   6.317  17.360  0.00  0.00    +0.000 OA
ATOM     11  N   UNL     1       7.439   5.756  15.332  0.00  0.00    +0.000 N 
ATOM     12  C   UNL     1       7.351   5.140  14.114  0.00  0.00    +0.000 A 
ATOM     13  O   UNL     1       8.019   5.501  13.154  0.00  0.00    +0.000 OA
ATOM     14  H   UNL     1       8.066   6.543  15.394  0.00  0.00    +0.000 HD
BRANCH   6  16
ATOM     15  C   UNL     1       4.812   3.546  12.126  0.00  0.00    +0.000 C 
ATOM     16  C   UNL     1       6.194   3.316  12.719  0.00  0.00    +0.000 C 
ENDBRANCH   6  16
ENDBRANCH   1   8
BRANCH   3  17
ATOM     17  O   UNL     1       3.468   3.989  20.058  0.00  0.00    +0.000 OA
ATOM     18  H   UNL     1       4.192   3.504  20.490  0.00  0.00    +0.000 HD
ENDBRANCH   3  17
BRANCH   4  19
ATOM     19  C   UNL     1       3.143   7.172  18.122  0.00  0.00    +0.000 C 
BRANCH  19  20
ATOM     20  N   UNL     1       2.142   7.893  18.896  0.00  0.00    +0.000 N 
ATOM     21  C   UNL     1       1.701   9.146  18.520  0.00  0.00    +0.000 C 
ATOM     22  O   UNL     1       2.088   9.706  17.499  0.00  0.00    +0.000 OA
ATOM     23  H   UNL     1       1.967   7.594  19.848  0.00  0.00    +0.000 HD
BRANCH  21  24
ATOM     24  C   UNL     1       0.697   9.782  19.467  0.00  0.00    +0.000 C 
BRANCH  24  25
ATOM     25  C   UNL     1      -0.520  10.288  18.730  0.00  0.00    +0.000 A 
ATOM     26  C   UNL     1      -0.996   9.555  17.627  0.00  0.00    +0.000 A 
ATOM     27  C   UNL     1      -2.058  10.030  16.857  0.00  0.00    +0.000 A 
ATOM     28  C   UNL     1      -2.662  11.243  17.175  0.00  0.00    +0.000 A 
ATOM     29  C   UNL     1      -2.214  11.973  18.276  0.00  0.00    +0.000 A 
ATOM     30  C   UNL     1      -1.153  11.499  19.051  0.00  0.00    +0.000 A 
ATOM     31 CL   UNL     1      -0.653  12.461  20.400  0.00  0.00    +0.000 Cl
ENDBRANCH  24  25
ENDBRANCH  21  24
ENDBRANCH  19  20
ENDBRANCH   4  19
TORSDOF 7
ENDMDL
MODEL 8
REMARK VINA RESULT:      -7.7      5.376      7.851
REMARK  Name = 
REMARK  8 active torsions:
REMARK  status: ('A' for Active; 'I' for Inactive)
REMARK    1  A    between atoms: C_1  and  C_2
REMARK    2  A    between atoms: C_2  and  C_3
REMARK    3  A    between atoms: N_5  and  C_6
REMARK    4  A    between atoms: C_8  and  O_9
REMARK    5  A    between atoms: C_10  and  C_11
REMARK    6  A    between atoms: C_11  and  N_12
REMARK    7  A    between atoms: C_13  and  C_15
REMARK    8  A    between atoms: C_15  and  C_16
REMARK                            x       y       z     vdW  Elec       q    Type
REMARK                         _______ _______ _______ _____ _____    ______ ____
ROOT
ATOM      1  C   UNL     1       2.754   3.745  18.334  0.00  0.00    +0.000 C 
ATOM      2  C   UNL     1       2.707   3.052  19.690  0.00  0.00    +0.000 C 
ATOM      3  C   UNL     1       1.459   3.633  20.309  0.00  0.00    +0.000 C 
ATOM      4  C   UNL     1       1.407   5.060  19.752  0.00  0.00    +0.000 C 
ATOM      5  O   UNL     1       2.139   5.037  18.501  0.00  0.00    +0.000 OA
ENDROOT
BRANCH   1   8
ATOM      6  C   UNL     1       5.548   4.492  16.023  0.00  0.00    +0.000 A 
ATOM      7  C   UNL     1       4.342   4.174  16.498  0.00  0.00    +0.000 A 
ATOM      8  N   UNL     1       4.114   3.877  17.827  0.00  0.00    +0.000 N 
ATOM      9  C   UNL     1       5.147   3.875  18.752  0.00  0.00    +0.000 A 
ATOM     10  O   UNL     1       4.986   3.733  19.961  0.00  0.00    +0.000 OA
ATOM     11  N   UNL     1       6.401   4.077  18.239  0.00  0.00    +0.000 N 
ATOM     12  C   UNL     1       6.691   4.476  16.964  0.00  0.00    +0.000 A 
ATOM     13  O   UNL     1       7.818   4.818  16.631  0.00  0.00    +0.000 OA
ATOM     14  H   UNL     1       7.161   4.104  18.903  0.00  0.00    +0.000 HD
BRANCH   6  16
ATOM     15  C   UNL     1       6.000   3.776  13.662  0.00  0.00    +0.000 C 
ATOM     16  C   UNL     1       5.771   4.944  14.609  0.00  0.00    +0.000 C 
ENDBRANCH   6  16
ENDBRANCH   1   8
BRANCH   3  17
ATOM     17  O   UNL     1       0.330   2.861  19.899  0.00  0.00    +0.000 OA
ATOM     18  H   UNL     1      -0.452   3.435  19.833  0.00  0.00    +0.000 HD
ENDBRANCH   3  17
BRANCH   4  19
ATOM     19  C   UNL     1       2.080   6.065  20.708  0.00  0.00    +0.000 C 
BRANCH  19  20
ATOM     20  N   UNL     1       2.107   7.427  20.192  0.00  0.00    +0.000 N 
ATOM     21  C   UNL     1       1.180   8.370  20.589  0.00  0.00    +0.000 C 
ATOM     22  O   UNL     1       0.312   8.135  21.424  0.00  0.00    +0.000 OA
ATOM     23  H   UNL     1       2.636   7.608  19.347  0.00  0.00    +0.000 HD
BRANCH  21  24
ATOM     24  C   UNL     1       1.315   9.724  19.913  0.00  0.00    +0.000 C 
BRANCH  24  25
ATOM     25  C   UNL     1      -0.000  10.192  19.339  0.00  0.00    +0.000 A 
ATOM     26  C   UNL     1      -0.391   9.723  18.071  0.00  0.00    +0.000 A 
ATOM     27  C   UNL     1      -1.550  10.199  17.458  0.00  0.00    +0.000 A 
ATOM     28  C   UNL     1      -2.339  11.150  18.100  0.00  0.00    +0.000 A 
ATOM     29  C   UNL     1      -1.976  11.612  19.365  0.00  0.00    +0.000 A 
ATOM     30  C   UNL     1      -0.817  11.136  19.983  0.00  0.00    +0.000 A 
ATOM     31 CL   UNL     1      -0.431  11.757  21.551  0.00  0.00    +0.000 Cl
ENDBRANCH  24  25
ENDBRANCH  21  24
ENDBRANCH  19  20
ENDBRANCH   4  19
TORSDOF 7
ENDMDL
MODEL 9
REMARK VINA RESULT:      -7.7      5.419      8.544
REMARK  Name = 
REMARK  8 active torsions:
REMARK  status: ('A' for Active; 'I' for Inactive)
REMARK    1  A    between atoms: C_1  and  C_2
REMARK    2  A    between atoms: C_2  and  C_3
REMARK    3  A    between atoms: N_5  and  C_6
REMARK    4  A    between atoms: C_8  and  O_9
REMARK    5  A    between atoms: C_10  and  C_11
REMARK    6  A    between atoms: C_11  and  N_12
REMARK    7  A    between atoms: C_13  and  C_15
REMARK    8  A    between atoms: C_15  and  C_16
REMARK                            x       y       z     vdW  Elec       q    Type
REMARK                         _______ _______ _______ _____ _____    ______ ____
ROOT
ATOM      1  C   UNL     1       0.183  10.299  19.902  0.00  0.00    +0.000 C 
ATOM      2  C   UNL     1      -0.152   9.000  20.623  0.00  0.00    +0.000 C 
ATOM      3  C   UNL     1       1.207   8.370  20.808  0.00  0.00    +0.000 C 
ATOM      4  C   UNL     1       1.989   8.821  19.570  0.00  0.00    +0.000 C 
ATOM      5  O   UNL     1       1.370  10.053  19.121  0.00  0.00    +0.000 OA
ENDROOT
BRANCH   1   8
ATOM      6  C   UNL     1      -2.393  10.316  17.243  0.00  0.00    +0.000 A 
ATOM      7  C   UNL     1      -1.287  10.045  17.940  0.00  0.00    +0.000 A 
ATOM      8  N   UNL     1      -0.910  10.762  19.057  0.00  0.00    +0.000 N 
ATOM      9  C   UNL     1      -1.663  11.834  19.513  0.00  0.00    +0.000 A 
ATOM     10  O   UNL     1      -1.440  12.432  20.563  0.00  0.00    +0.000 OA
ATOM     11  N   UNL     1      -2.726  12.188  18.726  0.00  0.00    +0.000 N 
ATOM     12  C   UNL     1      -3.217  11.470  17.671  0.00  0.00    +0.000 A 
ATOM     13  O   UNL     1      -4.280  11.750  17.133  0.00  0.00    +0.000 OA
ATOM     14  H   UNL     1      -3.299  12.950  19.057  0.00  0.00    +0.000 HD
BRANCH   6  16
ATOM     15  C   UNL     1      -2.827  10.183  14.776  0.00  0.00    +0.000 C 
ATOM     16  C   UNL     1      -2.872   9.455  16.111  0.00  0.00    +0.000 C 
ENDBRANCH   6  16
ENDBRANCH   1   8
BRANCH   3  17
ATOM     17  O   UNL     1       1.790   8.863  22.014  0.00  0.00    +0.000 OA
ATOM     18  H   UNL     1       2.497   8.261  22.305  0.00  0.00    +0.000 HD
ENDBRANCH   3  17
BRANCH   4  19
ATOM     19  C   UNL     1       1.908   7.778  18.437  0.00  0.00    +0.000 C 
BRANCH  19  20
ATOM     20  N   UNL     1       2.887   6.707  18.565  0.00  0.00    +0.000 N 
ATOM     21  C   UNL     1       2.593   5.410  18.191  0.00  0.00    +0.000 C 
ATOM     22  O   UNL     1       1.518   5.091  17.695  0.00  0.00    +0.000 OA
ATOM     23  H   UNL     1       3.684   6.857  19.171  0.00  0.00    +0.000 HD
BRANCH  21  24
ATOM     24  C   UNL     1       3.705   4.405  18.442  0.00  0.00    +0.000 C 
BRANCH  24  25
ATOM     25  C   UNL     1       4.832   4.563  17.449  0.00  0.00    +0.000 A 
ATOM     26  C   UNL     1       4.604   4.211  16.106  0.00  0.00    +0.000 A 
ATOM     27  C   UNL     1       5.638   4.251  15.170  0.00  0.00    +0.000 A 
ATOM     28  C   UNL     1       6.916   4.641  15.560  0.00  0.00    +0.000 A 
ATOM     29  C   UNL     1       7.155   5.011  16.884  0.00  0.00    +0.000 A 
ATOM     30  C   UNL     1       6.121   4.976  17.823  0.00  0.00    +0.000 A 
ATOM     31 CL   UNL     1       6.494   5.447  19.445  0.00  0.00    +0.000 Cl
ENDBRANCH  24  25
ENDBRANCH  21  24
ENDBRANCH  19  20
ENDBRANCH   4  19
TORSDOF 7
ENDMDL
