MODEL 1
REMARK VINA RESULT:      -8.8      0.000      0.000
REMARK  Name = 
REMARK  6 active torsions:
REMARK  status: ('A' for Active; 'I' for Inactive)
REMARK    1  A    between atoms: C_1  and  N_2
REMARK    2  A    between atoms: N_4  and  C_5
REMARK    3  A    between atoms: C_5  and  C_6
REMARK    4  A    between atoms: C_6  and  C_7
REMARK    5  A    between atoms: C_10  and  C_11
REMARK    6  A    between atoms: C_23  and  N_24
REMARK                            x       y       z     vdW  Elec       q    Type
REMARK                         _______ _______ _______ _____ _____    ______ ____
ROOT
ATOM      1  C   UNL     1       0.911   3.475  20.614  0.00  0.00    +0.000 C 
ATOM      2  N   UNL     1       1.882   4.204  19.821  0.00  0.00    +0.000 N 
ATOM      3  C   UNL     1       2.126   5.566  19.947  0.00  0.00    +0.000 A 
ATOM      4  N   UNL     1       1.465   6.328  20.897  0.00  0.00    +0.000 N 
ATOM      5  N   UNL     1       2.981   6.174  19.172  0.00  0.00    +0.000 NA
ATOM      6  C   UNL     1       3.653   5.480  18.164  0.00  0.00    +0.000 A 
ATOM      7  C   UNL     1       4.520   6.179  17.314  0.00  0.00    +0.000 A 
ATOM      8  C   UNL     1       5.185   5.534  16.264  0.00  0.00    +0.000 A 
ATOM      9  C   UNL     1       4.903   4.188  16.020  0.00  0.00    +0.000 A 
ATOM     10  C   UNL     1       4.064   3.472  16.876  0.00  0.00    +0.000 A 
ATOM     11  C   UNL     1       3.452   4.127  17.948  0.00  0.00    +0.000 A 
ATOM     12  C   UNL     1       2.533   3.426  18.854  0.00  0.00    +0.000 A 
ATOM     13  O   UNL     1       2.372   2.216  18.726  0.00  0.00    +0.000 OA
ATOM     14  H   UNL     1       1.138   5.873  21.736  0.00  0.00    +0.000 HD
ENDROOT
BRANCH   8  15
ATOM     15  N   UNL     1       5.922   6.274  15.330  0.00  0.00    +0.000 N 
ATOM     16  H   UNL     1       6.789   6.655  15.697  0.00  0.00    +0.000 HD
ATOM     17  H   UNL     1       6.053   5.807  14.439  0.00  0.00    +0.000 HD
ENDBRANCH   8  15
BRANCH   4  18
ATOM     18  C   UNL     1       1.868   7.725  21.043  0.00  0.00    +0.000 C 
BRANCH  18  19
ATOM     19  C   UNL     1       1.172   8.745  20.133  0.00  0.00    +0.000 C 
BRANCH  19  20
ATOM     20  C   UNL     1       0.297   9.729  20.910  0.00  0.00    +0.000 A 
ATOM     21  C   UNL     1      -0.147  10.934  20.350  0.00  0.00    +0.000 A 
ATOM     22  C   UNL     1      -0.886  11.860  21.089  0.00  0.00    +0.000 A 
ATOM     23  C   UNL     1      -1.241  11.627  22.425  0.00  0.00    +0.000 A 
ATOM     24  C   UNL     1      -0.837  10.394  22.971  0.00  0.00    +0.000 A 
ATOM     25  C   UNL     1      -0.079   9.463  22.232  0.00  0.00    +0.000 A 
BRANCH  23  26
ATOM     26  C   UNL     1      -1.960  12.668  23.204  0.00  0.00    +0.000 A 
ATOM     27  C   UNL     1      -3.285  12.470  23.652  0.00  0.00    +0.000 A 
ATOM     28  C   UNL     1      -4.003  13.482  24.297  0.00  0.00    +0.000 A 
ATOM     29  C   UNL     1      -3.395  14.706  24.530  0.00  0.00    +0.000 A 
ATOM     30  F   UNL     1      -4.081  15.681  25.139  0.00  0.00    +0.000 F 
ATOM     31  C   UNL     1      -2.085  14.931  24.132  0.00  0.00    +0.000 A 
ATOM     32  C   UNL     1      -1.377  13.921  23.471  0.00  0.00    +0.000 A 
ENDBRANCH  23  26
ENDBRANCH  19  20
ENDBRANCH  18  19
ENDBRANCH   4  18
TORSDOF 5
ENDMDL
MODEL 2
REMARK VINA RESULT:      -8.8      0.748      1.136
REMARK  Name = 
REMARK  6 active torsions:
REMARK  status: ('A' for Active; 'I' for Inactive)
REMARK    1  A    between atoms: C_1  and  N_2
REMARK    2  A    between atoms: N_4  and  C_5
REMARK    3  A    between atoms: C_5  and  C_6
REMARK    4  A    between atoms: C_6  and  C_7
REMARK    5  A    between atoms: C_10  and  C_11
REMARK    6  A    between atoms: C_23  and  N_24
REMARK                            x       y       z     vdW  Elec       q    Type
REMARK                         _______ _______ _______ _____ _____    ______ ____
ROOT
ATOM      1  C   UNL     1       0.952   3.175  19.582  0.00  0.00    +0.000 C 
ATOM      2  N   UNL     1       2.118   3.947  19.195  0.00  0.00    +0.000 N 
ATOM      3  C   UNL     1       2.362   5.249  19.611  0.00  0.00    +0.000 A 
ATOM      4  N   UNL     1       1.503   5.897  20.484  0.00  0.00    +0.000 N 
ATOM      5  N   UNL     1       3.408   5.908  19.192  0.00  0.00    +0.000 NA
ATOM      6  C   UNL     1       4.295   5.335  18.280  0.00  0.00    +0.000 A 
ATOM      7  C   UNL     1       5.375   6.094  17.807  0.00  0.00    +0.000 A 
ATOM      8  C   UNL     1       6.268   5.578  16.861  0.00  0.00    +0.000 A 
ATOM      9  C   UNL     1       6.017   4.313  16.325  0.00  0.00    +0.000 A 
ATOM     10  C   UNL     1       4.963   3.534  16.807  0.00  0.00    +0.000 A 
ATOM     11  C   UNL     1       4.115   4.053  17.789  0.00  0.00    +0.000 A 
ATOM     12  C   UNL     1       2.972   3.287  18.302  0.00  0.00    +0.000 A 
ATOM     13  O   UNL     1       2.812   2.127  17.929  0.00  0.00    +0.000 OA
ATOM     14  H   UNL     1       0.955   5.339  21.123  0.00  0.00    +0.000 HD
ENDROOT
BRANCH   8  15
ATOM     15  N   UNL     1       7.244   6.400  16.284  0.00  0.00    +0.000 N 
ATOM     16  H   UNL     1       8.062   6.543  16.869  0.00  0.00    +0.000 HD
ATOM     17  H   UNL     1       7.490   6.149  15.331  0.00  0.00    +0.000 HD
ENDBRANCH   8  15
BRANCH   4  18
ATOM     18  C   UNL     1       1.897   7.219  20.966  0.00  0.00    +0.000 C 
BRANCH  18  19
ATOM     19  C   UNL     1       1.455   8.423  20.125  0.00  0.00    +0.000 C 
BRANCH  19  20
ATOM     20  C   UNL     1       0.717   9.479  20.949  0.00  0.00    +0.000 A 
ATOM     21  C   UNL     1      -0.007   9.153  22.102  0.00  0.00    +0.000 A 
ATOM     22  C   UNL     1      -0.736  10.112  22.809  0.00  0.00    +0.000 A 
ATOM     23  C   UNL     1      -0.769  11.456  22.413  0.00  0.00    +0.000 A 
ATOM     24  C   UNL     1      -0.001  11.792  21.282  0.00  0.00    +0.000 A 
ATOM     25  C   UNL     1       0.726  10.824  20.559  0.00  0.00    +0.000 A 
BRANCH  23  26
ATOM     26  C   UNL     1      -1.618  12.434  23.143  0.00  0.00    +0.000 A 
ATOM     27  C   UNL     1      -2.938  12.118  23.532  0.00  0.00    +0.000 A 
ATOM     28  C   UNL     1      -3.776  13.066  24.128  0.00  0.00    +0.000 A 
ATOM     29  C   UNL     1      -3.297  14.343  24.370  0.00  0.00    +0.000 A 
ATOM     30  F   UNL     1      -4.098  15.257  24.931  0.00  0.00    +0.000 F 
ATOM     31  C   UNL     1      -1.997  14.686  24.028  0.00  0.00    +0.000 A 
ATOM     32  C   UNL     1      -1.167  13.739  23.416  0.00  0.00    +0.000 A 
ENDBRANCH  23  26
ENDBRANCH  19  20
ENDBRANCH  18  19
ENDBRANCH   4  18
TORSDOF 5
ENDMDL
MODEL 3
REMARK VINA RESULT:      -8.8      4.028      6.030
REMARK  Name = 
REMARK  6 active torsions:
REMARK  status: ('A' for Active; 'I' for Inactive)
REMARK    1  A    between atoms: C_1  and  N_2
REMARK    2  A    between atoms: N_4  and  C_5
REMARK    3  A    between atoms: C_5  and  C_6
REMARK    4  A    between atoms: C_6  and  C_7
REMARK    5  A    between atoms: C_10  and  C_11
REMARK    6  A    between atoms: C_23  and  N_24
REMARK                            x       y       z     vdW  Elec       q    Type
REMARK                         _______ _______ _______ _____ _____    ______ ____
ROOT
ATOM      1  C   UNL     1       7.064   5.917  19.136  0.00  0.00    +0.000 C 
ATOM      2  N   UNL     1       6.599   5.247  17.936  0.00  0.00    +0.000 N 
ATOM      3  C   UNL     1       5.738   4.158  17.937  0.00  0.00    +0.000 A 
ATOM      4  N   UNL     1       5.220   3.653  19.119  0.00  0.00    +0.000 N 
ATOM      5  N   UNL     1       5.392   3.569  16.825  0.00  0.00    +0.000 NA
ATOM      6  C   UNL     1       5.907   3.995  15.600  0.00  0.00    +0.000 A 
ATOM      7  C   UNL     1       5.557   3.301  14.433  0.00  0.00    +0.000 A 
ATOM      8  C   UNL     1       6.081   3.665  13.187  0.00  0.00    +0.000 A 
ATOM      9  C   UNL     1       7.032   4.686  13.133  0.00  0.00    +0.000 A 
ATOM     10  C   UNL     1       7.368   5.405  14.282  0.00  0.00    +0.000 A 
ATOM     11  C   UNL     1       6.793   5.055  15.507  0.00  0.00    +0.000 A 
ATOM     12  C   UNL     1       7.141   5.756  16.748  0.00  0.00    +0.000 A 
ATOM     13  O   UNL     1       7.882   6.735  16.697  0.00  0.00    +0.000 OA
ATOM     14  H   UNL     1       5.120   4.278  19.906  0.00  0.00    +0.000 HD
ENDROOT
BRANCH   8  15
ATOM     15  N   UNL     1       5.847   2.868  12.059  0.00  0.00    +0.000 N 
ATOM     16  H   UNL     1       5.050   3.163  11.503  0.00  0.00    +0.000 HD
ATOM     17  H   UNL     1       6.671   2.697  11.492  0.00  0.00    +0.000 HD
ENDBRANCH   8  15
BRANCH   4  18
ATOM     18  C   UNL     1       4.228   2.584  19.021  0.00  0.00    +0.000 C 
BRANCH  18  19
ATOM     19  C   UNL     1       2.840   2.873  19.607  0.00  0.00    +0.000 C 
BRANCH  19  20
ATOM     20  C   UNL     1       2.441   4.344  19.483  0.00  0.00    +0.000 A 
ATOM     21  C   UNL     1       2.429   5.012  18.251  0.00  0.00    +0.000 A 
ATOM     22  C   UNL     1       2.133   6.373  18.156  0.00  0.00    +0.000 A 
ATOM     23  C   UNL     1       1.815   7.143  19.283  0.00  0.00    +0.000 A 
ATOM     24  C   UNL     1       1.780   6.460  20.514  0.00  0.00    +0.000 A 
ATOM     25  C   UNL     1       2.091   5.089  20.616  0.00  0.00    +0.000 A 
BRANCH  23  26
ATOM     26  C   UNL     1       1.582   8.605  19.154  0.00  0.00    +0.000 A 
ATOM     27  C   UNL     1       2.049   9.330  18.035  0.00  0.00    +0.000 A 
ATOM     28  C   UNL     1       1.923  10.720  17.954  0.00  0.00    +0.000 A 
ATOM     29  C   UNL     1       1.301  11.408  18.984  0.00  0.00    +0.000 A 
ATOM     30  F   UNL     1       1.187  12.741  18.916  0.00  0.00    +0.000 F 
ATOM     31  C   UNL     1       0.804  10.731  20.088  0.00  0.00    +0.000 A 
ATOM     32  C   UNL     1       0.948   9.341  20.172  0.00  0.00    +0.000 A 
ENDBRANCH  23  26
ENDBRANCH  19  20
ENDBRANCH  18  19
ENDBRANCH   4  18
TORSDOF 5
ENDMDL
MODEL 4
REMARK VINA RESULT:      -8.7      3.526      5.726
REMARK  Name = 
REMARK  6 active torsions:
REMARK  status: ('A' for Active; 'I' for Inactive)
REMARK    1  A    between atoms: C_1  and  N_2
REMARK    2  A    between atoms: N_4  and  C_5
REMARK    3  A    between atoms: C_5  and  C_6
REMARK    4  A    between atoms: C_6  and  C_7
REMARK    5  A    between atoms: C_10  and  C_11
REMARK    6  A    between atoms: C_23  and  N_24
REMARK                            x       y       z     vdW  Elec       q    Type
REMARK                         _______ _______ _______ _____ _____    ______ ____
ROOT
ATOM      1  C   UNL     1       6.983   5.864  19.149  0.00  0.00    +0.000 C 
ATOM      2  N   UNL     1       6.553   5.204  17.931  0.00  0.00    +0.000 N 
ATOM      3  C   UNL     1       5.701   4.109  17.898  0.00  0.00    +0.000 A 
ATOM      4  N   UNL     1       5.157   3.587  19.061  0.00  0.00    +0.000 N 
ATOM      5  N   UNL     1       5.387   3.530  16.771  0.00  0.00    +0.000 NA
ATOM      6  C   UNL     1       5.930   3.973  15.564  0.00  0.00    +0.000 A 
ATOM      7  C   UNL     1       5.615   3.290  14.381  0.00  0.00    +0.000 A 
ATOM      8  C   UNL     1       6.166   3.672  13.153  0.00  0.00    +0.000 A 
ATOM      9  C   UNL     1       7.111   4.701  13.134  0.00  0.00    +0.000 A 
ATOM     10  C   UNL     1       7.412   5.409  14.299  0.00  0.00    +0.000 A 
ATOM     11  C   UNL     1       6.809   5.041  15.505  0.00  0.00    +0.000 A 
ATOM     12  C   UNL     1       7.121   5.731  16.763  0.00  0.00    +0.000 A 
ATOM     13  O   UNL     1       7.855   6.715  16.741  0.00  0.00    +0.000 OA
ATOM     14  H   UNL     1       5.033   4.202  19.852  0.00  0.00    +0.000 HD
ENDROOT
BRANCH   8  15
ATOM     15  N   UNL     1       5.967   2.885  12.011  0.00  0.00    +0.000 N 
ATOM     16  H   UNL     1       5.624   1.950  12.208  0.00  0.00    +0.000 HD
ATOM     17  H   UNL     1       5.436   3.344  11.277  0.00  0.00    +0.000 HD
ENDBRANCH   8  15
BRANCH   4  18
ATOM     18  C   UNL     1       4.176   2.512  18.927  0.00  0.00    +0.000 C 
BRANCH  18  19
ATOM     19  C   UNL     1       2.728   2.928  18.640  0.00  0.00    +0.000 C 
BRANCH  19  20
ATOM     20  C   UNL     1       2.428   4.361  19.083  0.00  0.00    +0.000 A 
ATOM     21  C   UNL     1       2.097   4.678  20.407  0.00  0.00    +0.000 A 
ATOM     22  C   UNL     1       1.755   5.977  20.788  0.00  0.00    +0.000 A 
ATOM     23  C   UNL     1       1.739   7.038  19.873  0.00  0.00    +0.000 A 
ATOM     24  C   UNL     1       2.118   6.727  18.553  0.00  0.00    +0.000 A 
ATOM     25  C   UNL     1       2.452   5.415  18.161  0.00  0.00    +0.000 A 
BRANCH  23  26
ATOM     26  C   UNL     1       1.294   8.390  20.297  0.00  0.00    +0.000 A 
ATOM     27  C   UNL     1       1.159   9.447  19.369  0.00  0.00    +0.000 A 
ATOM     28  C   UNL     1       0.838  10.747  19.776  0.00  0.00    +0.000 A 
ATOM     29  C   UNL     1       0.620  11.005  21.119  0.00  0.00    +0.000 A 
ATOM     30  F   UNL     1       0.322  12.250  21.515  0.00  0.00    +0.000 F 
ATOM     31  C   UNL     1       0.715   9.990  22.059  0.00  0.00    +0.000 A 
ATOM     32  C   UNL     1       1.053   8.695  21.650  0.00  0.00    +0.000 A 
ENDBRANCH  23  26
ENDBRANCH  19  20
ENDBRANCH  18  19
ENDBRANCH   4  18
TORSDOF 5
ENDMDL
MODEL 5
REMARK VINA RESULT:      -8.7      3.701      5.816
REMARK  Name = 
REMARK  6 active torsions:
REMARK  status: ('A' for Active; 'I' for Inactive)
REMARK    1  A    between atoms: C_1  and  N_2
REMARK    2  A    between atoms: N_4  and  C_5
REMARK    3  A    between atoms: C_5  and  C_6
REMARK    4  A    between atoms: C_6  and  C_7
REMARK    5  A    between atoms: C_10  and  C_11
REMARK    6  A    between atoms: C_23  and  N_24
REMARK                            x       y       z     vdW  Elec       q    Type
REMARK                         _______ _______ _______ _____ _____    ______ ____
ROOT
ATOM      1  C   UNL     1       6.913   5.861  19.111  0.00  0.00    +0.000 C 
ATOM      2  N   UNL     1       6.495   5.201  17.888  0.00  0.00    +0.000 N 
ATOM      3  C   UNL     1       5.631   4.115  17.846  0.00  0.00    +0.000 A 
ATOM      4  N   UNL     1       5.065   3.602  19.003  0.00  0.00    +0.000 N 
ATOM      5  N   UNL     1       5.327   3.535  16.717  0.00  0.00    +0.000 NA
ATOM      6  C   UNL     1       5.892   3.969  15.516  0.00  0.00    +0.000 A 
ATOM      7  C   UNL     1       5.587   3.286  14.331  0.00  0.00    +0.000 A 
ATOM      8  C   UNL     1       6.160   3.658  13.109  0.00  0.00    +0.000 A 
ATOM      9  C   UNL     1       7.116   4.676  13.101  0.00  0.00    +0.000 A 
ATOM     10  C   UNL     1       7.408   5.385  14.268  0.00  0.00    +0.000 A 
ATOM     11  C   UNL     1       6.784   5.027  15.467  0.00  0.00    +0.000 A 
ATOM     12  C   UNL     1       7.084   5.718  16.727  0.00  0.00    +0.000 A 
ATOM     13  O   UNL     1       7.829   6.695  16.712  0.00  0.00    +0.000 OA
ATOM     14  H   UNL     1       4.936   4.221  19.790  0.00  0.00    +0.000 HD
ENDROOT
BRANCH   8  15
ATOM     15  N   UNL     1       5.969   2.870  11.967  0.00  0.00    +0.000 N 
ATOM     16  H   UNL     1       6.829   2.512  11.564  0.00  0.00    +0.000 HD
ATOM     17  H   UNL     1       5.263   2.148  12.073  0.00  0.00    +0.000 HD
ENDBRANCH   8  15
BRANCH   4  18
ATOM     18  C   UNL     1       4.075   2.537  18.858  0.00  0.00    +0.000 C 
BRANCH  18  19
ATOM     19  C   UNL     1       2.617   2.901  19.169  0.00  0.00    +0.000 C 
BRANCH  19  20
ATOM     20  C   UNL     1       2.400   4.409  19.300  0.00  0.00    +0.000 A 
ATOM     21  C   UNL     1       2.143   5.020  20.534  0.00  0.00    +0.000 A 
ATOM     22  C   UNL     1       1.876   6.387  20.636  0.00  0.00    +0.000 A 
ATOM     23  C   UNL     1       1.867   7.225  19.514  0.00  0.00    +0.000 A 
ATOM     24  C   UNL     1       2.174   6.619  18.281  0.00  0.00    +0.000 A 
ATOM     25  C   UNL     1       2.431   5.237  18.172  0.00  0.00    +0.000 A 
BRANCH  23  26
ATOM     26  C   UNL     1       1.501   8.659  19.649  0.00  0.00    +0.000 A 
ATOM     27  C   UNL     1       1.043   9.191  20.875  0.00  0.00    +0.000 A 
ATOM     28  C   UNL     1       0.601  10.513  20.985  0.00  0.00    +0.000 A 
ATOM     29  C   UNL     1       0.636  11.337  19.871  0.00  0.00    +0.000 A 
ATOM     30  F   UNL     1       0.205  12.601  19.968  0.00  0.00    +0.000 F 
ATOM     31  C   UNL     1       1.105  10.862  18.655  0.00  0.00    +0.000 A 
ATOM     32  C   UNL     1       1.530   9.533  18.546  0.00  0.00    +0.000 A 
ENDBRANCH  23  26
ENDBRANCH  19  20
ENDBRANCH  18  19
ENDBRANCH   4  18
TORSDOF 5
ENDMDL
MODEL 6
REMARK VINA RESULT:      -8.7      3.400      4.833
REMARK  Name = 
REMARK  6 active torsions:
REMARK  status: ('A' for Active; 'I' for Inactive)
REMARK    1  A    between atoms: C_1  and  N_2
REMARK    2  A    between atoms: N_4  and  C_5
REMARK    3  A    between atoms: C_5  and  C_6
REMARK    4  A    between atoms: C_6  and  C_7
REMARK    5  A    between atoms: C_10  and  C_11
REMARK    6  A    between atoms: C_23  and  N_24
REMARK                            x       y       z     vdW  Elec       q    Type
REMARK                         _______ _______ _______ _____ _____    ______ ____
ROOT
ATOM      1  C   UNL     1       5.535   6.851  17.004  0.00  0.00    +0.000 C 
ATOM      2  N   UNL     1       4.501   6.217  17.800  0.00  0.00    +0.000 N 
ATOM      3  C   UNL     1       3.272   6.798  18.085  0.00  0.00    +0.000 A 
ATOM      4  N   UNL     1       2.930   8.041  17.577  0.00  0.00    +0.000 N 
ATOM      5  N   UNL     1       2.400   6.195  18.846  0.00  0.00    +0.000 NA
ATOM      6  C   UNL     1       2.691   4.960  19.428  0.00  0.00    +0.000 A 
ATOM      7  C   UNL     1       1.752   4.370  20.285  0.00  0.00    +0.000 A 
ATOM      8  C   UNL     1       2.015   3.153  20.925  0.00  0.00    +0.000 A 
ATOM      9  C   UNL     1       3.273   2.569  20.761  0.00  0.00    +0.000 A 
ATOM     10  C   UNL     1       4.207   3.130  19.887  0.00  0.00    +0.000 A 
ATOM     11  C   UNL     1       3.901   4.320  19.221  0.00  0.00    +0.000 A 
ATOM     12  C   UNL     1       4.863   4.967  18.320  0.00  0.00    +0.000 A 
ATOM     13  O   UNL     1       5.925   4.403  18.072  0.00  0.00    +0.000 OA
ATOM     14  H   UNL     1       3.353   8.338  16.710  0.00  0.00    +0.000 HD
ENDROOT
BRANCH   8  15
ATOM     15  N   UNL     1       1.136   2.658  21.897  0.00  0.00    +0.000 N 
ATOM     16  H   UNL     1       0.161   2.668  21.615  0.00  0.00    +0.000 HD
ATOM     17  H   UNL     1       1.414   1.765  22.293  0.00  0.00    +0.000 HD
ENDBRANCH   8  15
BRANCH   4  18
ATOM     18  C   UNL     1       1.574   8.524  17.825  0.00  0.00    +0.000 C 
BRANCH  18  19
ATOM     19  C   UNL     1       1.436   9.960  18.348  0.00  0.00    +0.000 C 
BRANCH  19  20
ATOM     20  C   UNL     1      -0.022  10.406  18.470  0.00  0.00    +0.000 A 
ATOM     21  C   UNL     1      -1.032   9.882  17.653  0.00  0.00    +0.000 A 
ATOM     22  C   UNL     1      -2.348  10.346  17.722  0.00  0.00    +0.000 A 
ATOM     23  C   UNL     1      -2.733  11.348  18.623  0.00  0.00    +0.000 A 
ATOM     24  C   UNL     1      -1.727  11.839  19.477  0.00  0.00    +0.000 A 
ATOM     25  C   UNL     1      -0.396  11.382  19.401  0.00  0.00    +0.000 A 
BRANCH  23  26
ATOM     26  C   UNL     1      -4.124  11.872  18.615  0.00  0.00    +0.000 A 
ATOM     27  C   UNL     1      -4.958  11.732  17.483  0.00  0.00    +0.000 A 
ATOM     28  C   UNL     1      -6.230  12.311  17.431  0.00  0.00    +0.000 A 
ATOM     29  C   UNL     1      -6.701  13.019  18.525  0.00  0.00    +0.000 A 
ATOM     30  F   UNL     1      -7.915  13.583  18.476  0.00  0.00    +0.000 F 
ATOM     31  C   UNL     1      -5.925  13.156  19.666  0.00  0.00    +0.000 A 
ATOM     32  C   UNL     1      -4.646  12.590  19.707  0.00  0.00    +0.000 A 
ENDBRANCH  23  26
ENDBRANCH  19  20
ENDBRANCH  18  19
ENDBRANCH   4  18
TORSDOF 5
ENDMDL
MODEL 7
REMARK VINA RESULT:      -8.7      5.201     10.949
REMARK  Name = 
REMARK  6 active torsions:
REMARK  status: ('A' for Active; 'I' for Inactive)
REMARK    1  A    between atoms: C_1  and  N_2
REMARK    2  A    between atoms: N_4  and  C_5
REMARK    3  A    between atoms: C_5  and  C_6
REMARK    4  A    between atoms: C_6  and  C_7
REMARK    5  A    between atoms: C_10  and  C_11
REMARK    6  A    between atoms: C_23  and  N_24
REMARK                            x       y       z     vdW  Elec       q    Type
REMARK                         _______ _______ _______ _____ _____    ______ ____
ROOT
ATOM      1  C   UNL     1       0.986   9.200  23.521  0.00  0.00    +0.000 C 
ATOM      2  N   UNL     1       0.531   9.499  22.176  0.00  0.00    +0.000 N 
ATOM      3  C   UNL     1       0.948   8.812  21.043  0.00  0.00    +0.000 A 
ATOM      4  N   UNL     1       1.820   7.739  21.133  0.00  0.00    +0.000 N 
ATOM      5  N   UNL     1       0.536   9.158  19.854  0.00  0.00    +0.000 NA
ATOM      6  C   UNL     1      -0.309  10.255  19.681  0.00  0.00    +0.000 A 
ATOM      7  C   UNL     1      -0.683  10.632  18.384  0.00  0.00    +0.000 A 
ATOM      8  C   UNL     1      -1.496  11.749  18.157  0.00  0.00    +0.000 A 
ATOM      9  C   UNL     1      -1.864  12.541  19.247  0.00  0.00    +0.000 A 
ATOM     10  C   UNL     1      -1.523  12.162  20.547  0.00  0.00    +0.000 A 
ATOM     11  C   UNL     1      -0.753  11.014  20.751  0.00  0.00    +0.000 A 
ATOM     12  C   UNL     1      -0.339  10.594  22.095  0.00  0.00    +0.000 A 
ATOM     13  O   UNL     1      -0.756  11.212  23.072  0.00  0.00    +0.000 OA
ATOM     14  H   UNL     1       1.834   7.202  21.988  0.00  0.00    +0.000 HD
ENDROOT
BRANCH   8  15
ATOM     15  N   UNL     1      -1.730  12.203  16.853  0.00  0.00    +0.000 N 
ATOM     16  H   UNL     1      -1.112  11.797  16.157  0.00  0.00    +0.000 HD
ATOM     17  H   UNL     1      -2.704  12.170  16.569  0.00  0.00    +0.000 HD
ENDBRANCH   8  15
BRANCH   4  18
ATOM     18  C   UNL     1       2.111   6.998  19.908  0.00  0.00    +0.000 C 
BRANCH  18  19
ATOM     19  C   UNL     1       3.062   5.802  20.032  0.00  0.00    +0.000 C 
BRANCH  19  20
ATOM     20  C   UNL     1       3.821   5.514  18.736  0.00  0.00    +0.000 A 
ATOM     21  C   UNL     1       4.230   6.535  17.869  0.00  0.00    +0.000 A 
ATOM     22  C   UNL     1       4.860   6.260  16.654  0.00  0.00    +0.000 A 
ATOM     23  C   UNL     1       5.132   4.948  16.241  0.00  0.00    +0.000 A 
ATOM     24  C   UNL     1       4.764   3.925  17.135  0.00  0.00    +0.000 A 
ATOM     25  C   UNL     1       4.117   4.199  18.358  0.00  0.00    +0.000 A 
BRANCH  23  26
ATOM     26  C   UNL     1       5.732   4.689  14.906  0.00  0.00    +0.000 A 
ATOM     27  C   UNL     1       5.093   3.858  13.959  0.00  0.00    +0.000 A 
ATOM     28  C   UNL     1       5.698   3.529  12.742  0.00  0.00    +0.000 A 
ATOM     29  C   UNL     1       6.946   4.050  12.440  0.00  0.00    +0.000 A 
ATOM     30  F   UNL     1       7.533   3.730  11.279  0.00  0.00    +0.000 F 
ATOM     31  C   UNL     1       7.595   4.892  13.330  0.00  0.00    +0.000 A 
ATOM     32  C   UNL     1       6.994   5.205  14.554  0.00  0.00    +0.000 A 
ENDBRANCH  23  26
ENDBRANCH  19  20
ENDBRANCH  18  19
ENDBRANCH   4  18
TORSDOF 5
ENDMDL
MODEL 8
REMARK VINA RESULT:      -8.6      7.259      9.620
REMARK  Name = 
REMARK  6 active torsions:
REMARK  status: ('A' for Active; 'I' for Inactive)
REMARK    1  A    between atoms: C_1  and  N_2
REMARK    2  A    between atoms: N_4  and  C_5
REMARK    3  A    between atoms: C_5  and  C_6
REMARK    4  A    between atoms: C_6  and  C_7
REMARK    5  A    between atoms: C_10  and  C_11
REMARK    6  A    between atoms: C_23  and  N_24
REMARK                            x       y       z     vdW  Elec       q    Type
REMARK                         _______ _______ _______ _____ _____    ______ ____
ROOT
ATOM      1  C   UNL     1       7.373   5.086  15.050  0.00  0.00    +0.000 C 
ATOM      2  N   UNL     1       6.372   5.386  16.057  0.00  0.00    +0.000 N 
ATOM      3  C   UNL     1       6.446   6.462  16.931  0.00  0.00    +0.000 A 
ATOM      4  N   UNL     1       7.492   7.369  16.867  0.00  0.00    +0.000 N 
ATOM      5  N   UNL     1       5.535   6.654  17.846  0.00  0.00    +0.000 NA
ATOM      6  C   UNL     1       4.475   5.759  17.997  0.00  0.00    +0.000 A 
ATOM      7  C   UNL     1       3.548   5.966  19.028  0.00  0.00    +0.000 A 
ATOM      8  C   UNL     1       2.492   5.073  19.246  0.00  0.00    +0.000 A 
ATOM      9  C   UNL     1       2.422   3.916  18.467  0.00  0.00    +0.000 A 
ATOM     10  C   UNL     1       3.321   3.712  17.418  0.00  0.00    +0.000 A 
ATOM     11  C   UNL     1       4.337   4.644  17.189  0.00  0.00    +0.000 A 
ATOM     12  C   UNL     1       5.327   4.455  16.121  0.00  0.00    +0.000 A 
ATOM     13  O   UNL     1       5.205   3.506  15.351  0.00  0.00    +0.000 OA
ATOM     14  H   UNL     1       7.958   7.505  15.982  0.00  0.00    +0.000 HD
ENDROOT
BRANCH   8  15
ATOM     15  N   UNL     1       1.671   5.207  20.373  0.00  0.00    +0.000 N 
ATOM     16  H   UNL     1       0.722   5.500  20.160  0.00  0.00    +0.000 HD
ATOM     17  H   UNL     1       1.697   4.413  21.004  0.00  0.00    +0.000 HD
ENDBRANCH   8  15
BRANCH   4  18
ATOM     18  C   UNL     1       7.430   8.538  17.742  0.00  0.00    +0.000 C 
BRANCH  18  19
ATOM     19  C   UNL     1       8.707   8.895  18.512  0.00  0.00    +0.000 C 
BRANCH  19  20
ATOM     20  C   UNL     1       9.033  10.388  18.454  0.00  0.00    +0.000 A 
ATOM     21  C   UNL     1       8.318  11.276  17.640  0.00  0.00    +0.000 A 
ATOM     22  C   UNL     1       8.667  12.624  17.540  0.00  0.00    +0.000 A 
ATOM     23  C   UNL     1       9.741  13.167  18.258  0.00  0.00    +0.000 A 
ATOM     24  C   UNL     1      10.429  12.284  19.112  0.00  0.00    +0.000 A 
ATOM     25  C   UNL     1      10.087  10.920  19.207  0.00  0.00    +0.000 A 
BRANCH  23  26
ATOM     26  C   UNL     1      10.132  14.588  18.066  0.00  0.00    +0.000 A 
ATOM     27  C   UNL     1       9.496  15.631  18.775  0.00  0.00    +0.000 A 
ATOM     28  C   UNL     1       9.789  16.976  18.526  0.00  0.00    +0.000 A 
ATOM     29  C   UNL     1      10.747  17.299  17.577  0.00  0.00    +0.000 A 
ATOM     30  F   UNL     1      11.024  18.586  17.328  0.00  0.00    +0.000 F 
ATOM     31  C   UNL     1      11.415  16.304  16.879  0.00  0.00    +0.000 A 
ATOM     32  C   UNL     1      11.106  14.961  17.120  0.00  0.00    +0.000 A 
ENDBRANCH  23  26
ENDBRANCH  19  20
ENDBRANCH  18  19
ENDBRANCH   4  18
TORSDOF 5
ENDMDL
MODEL 9
REMARK VINA RESULT:      -8.6      3.419      4.699
REMARK  Name = 
REMARK  6 active torsions:
REMARK  status: ('A' for Active; 'I' for Inactive)
REMARK    1  A    between atoms: C_1  and  N_2
REMARK    2  A    between atoms: N_4  and  C_5
REMARK    3  A    between atoms: C_5  and  C_6
REMARK    4  A    between atoms: C_6  and  C_7
REMARK    5  A    between atoms: C_10  and  C_11
REMARK    6  A    between atoms: C_23  and  N_24
REMARK                            x       y       z     vdW  Elec       q    Type
REMARK                         _______ _______ _______ _____ _____    ______ ____
ROOT
ATOM      1  C   UNL     1       5.889   7.175  17.212  0.00  0.00    +0.000 C 
ATOM      2  N   UNL     1       4.709   6.357  17.424  0.00  0.00    +0.000 N 
ATOM      3  C   UNL     1       3.438   6.869  17.653  0.00  0.00    +0.000 A 
ATOM      4  N   UNL     1       3.203   8.235  17.653  0.00  0.00    +0.000 N 
ATOM      5  N   UNL     1       2.423   6.081  17.882  0.00  0.00    +0.000 NA
ATOM      6  C   UNL     1       2.592   4.697  17.940  0.00  0.00    +0.000 A 
ATOM      7  C   UNL     1       1.489   3.887  18.246  0.00  0.00    +0.000 A 
ATOM      8  C   UNL     1       1.617   2.497  18.356  0.00  0.00    +0.000 A 
ATOM      9  C   UNL     1       2.888   1.931  18.238  0.00  0.00    +0.000 A 
ATOM     10  C   UNL     1       3.990   2.722  17.906  0.00  0.00    +0.000 A 
ATOM     11  C   UNL     1       3.827   4.101  17.751  0.00  0.00    +0.000 A 
ATOM     12  C   UNL     1       4.961   4.979  17.437  0.00  0.00    +0.000 A 
ATOM     13  O   UNL     1       6.060   4.481  17.211  0.00  0.00    +0.000 OA
ATOM     14  H   UNL     1       3.810   8.827  17.105  0.00  0.00    +0.000 HD
ENDROOT
BRANCH   8  15
ATOM     15  N   UNL     1       0.546   1.721  18.815  0.00  0.00    +0.000 N 
ATOM     16  H   UNL     1       0.614   1.460  19.794  0.00  0.00    +0.000 HD
ATOM     17  H   UNL     1      -0.369   2.092  18.578  0.00  0.00    +0.000 HD
ENDBRANCH   8  15
BRANCH   4  18
ATOM     18  C   UNL     1       1.819   8.684  17.781  0.00  0.00    +0.000 C 
BRANCH  18  19
ATOM     19  C   UNL     1       1.587  10.009  18.519  0.00  0.00    +0.000 C 
BRANCH  19  20
ATOM     20  C   UNL     1       0.107  10.389  18.598  0.00  0.00    +0.000 A 
ATOM     21  C   UNL     1      -0.842   9.881  17.701  0.00  0.00    +0.000 A 
ATOM     22  C   UNL     1      -2.177  10.288  17.736  0.00  0.00    +0.000 A 
ATOM     23  C   UNL     1      -2.646  11.212  18.680  0.00  0.00    +0.000 A 
ATOM     24  C   UNL     1      -1.702  11.684  19.611  0.00  0.00    +0.000 A 
ATOM     25  C   UNL     1      -0.350  11.286  19.571  0.00  0.00    +0.000 A 
BRANCH  23  26
ATOM     26  C   UNL     1      -4.055  11.681  18.637  0.00  0.00    +0.000 A 
ATOM     27  C   UNL     1      -4.938  11.270  17.614  0.00  0.00    +0.000 A 
ATOM     28  C   UNL     1      -6.234  11.786  17.511  0.00  0.00    +0.000 A 
ATOM     29  C   UNL     1      -6.679  12.705  18.448  0.00  0.00    +0.000 A 
ATOM     30  F   UNL     1      -7.916  13.209  18.347  0.00  0.00    +0.000 F 
ATOM     31  C   UNL     1      -5.853  13.113  19.485  0.00  0.00    +0.000 A 
ATOM     32  C   UNL     1      -4.551  12.607  19.574  0.00  0.00    +0.000 A 
ENDBRANCH  23  26
ENDBRANCH  19  20
ENDBRANCH  18  19
ENDBRANCH   4  18
TORSDOF 5
ENDMDL
