MODEL 1
REMARK VINA RESULT:      -7.3      0.000      0.000
REMARK  Name = 
REMARK  5 active torsions:
REMARK  status: ('A' for Active; 'I' for Inactive)
REMARK    1  A    between atoms: C_1  and  C_2
REMARK    2  A    between atoms: C_4  and  C_5
REMARK    3  A    between atoms: C_6  and  C_7
REMARK    4  A    between atoms: C_10  and  N_11
REMARK    5  A    between atoms: N_14  and  C_15
REMARK                            x       y       z     vdW  Elec       q    Type
REMARK                         _______ _______ _______ _____ _____    ______ ____
ROOT
ATOM      1  C   UNL     1       7.226   6.272  17.367  0.00  0.00    +0.000 C 
ATOM      2  C   UNL     1       5.832   5.761  17.566  0.00  0.00    +0.000 A 
ATOM      3  C   UNL     1       5.570   4.419  17.735  0.00  0.00    +0.000 A 
ATOM      4  C   UNL     1       4.251   3.998  17.930  0.00  0.00    +0.000 A 
ATOM      5  C   UNL     1       4.029   2.518  18.105  0.00  0.00    +0.000 C 
ATOM      6  C   UNL     1       3.208   4.968  17.949  0.00  0.00    +0.000 A 
ATOM      7  C   UNL     1       3.570   6.321  17.836  0.00  0.00    +0.000 A 
ATOM      8  N   UNL     1       4.851   6.682  17.596  0.00  0.00    +0.000 NA
ENDROOT
BRANCH   7   9
ATOM      9  N   UNL     1       2.642   7.383  17.994  0.00  0.00    +0.000 N 
ATOM     10  C   UNL     1       2.133   7.751  19.236  0.00  0.00    +0.000 C 
ATOM     11  O   UNL     1       2.364   7.188  20.302  0.00  0.00    +0.000 OA
ATOM     12  N   UNL     1       1.275   8.838  19.158  0.00  0.00    +0.000 N 
ATOM     13  H   UNL     1       2.223   7.771  17.164  0.00  0.00    +0.000 HD
ATOM     14  H   UNL     1       0.669   8.848  18.349  0.00  0.00    +0.000 HD
BRANCH  12  15
ATOM     15  C   UNL     1       0.686   9.385  20.339  0.00  0.00    +0.000 A 
ATOM     16  C   UNL     1       0.142   8.556  21.333  0.00  0.00    +0.000 A 
ATOM     17  C   UNL     1      -0.426   9.113  22.487  0.00  0.00    +0.000 A 
ATOM     18  C   UNL     1      -0.471  10.498  22.653  0.00  0.00    +0.000 A 
ATOM     19  C   UNL     1       0.065  11.329  21.668  0.00  0.00    +0.000 A 
ATOM     20  C   UNL     1       0.647  10.776  20.522  0.00  0.00    +0.000 A 
ATOM     21 CL   UNL     1       1.219  11.848  19.291  0.00  0.00    +0.000 Cl
ENDBRANCH  12  15
ENDBRANCH   7   9
BRANCH   6  22
ATOM     22  C   UNL     1       1.803   4.509  18.142  0.00  0.00    +0.000 C 
ATOM     23  N   UNL     1       1.360   4.267  19.418  0.00  0.00    +0.000 N 
ATOM     24  O   UNL     1       1.011   4.393  17.219  0.00  0.00    +0.000 OA
ATOM     25  H   UNL     1       1.805   4.704  20.217  0.00  0.00    +0.000 HD
ATOM     26  H   UNL     1       0.348   4.182  19.472  0.00  0.00    +0.000 HD
ENDBRANCH   6  22
TORSDOF 3
ENDMDL
MODEL 2
REMARK VINA RESULT:      -7.2      2.034      2.452
REMARK  Name = 
REMARK  5 active torsions:
REMARK  status: ('A' for Active; 'I' for Inactive)
REMARK    1  A    between atoms: C_1  and  C_2
REMARK    2  A    between atoms: C_4  and  C_5
REMARK    3  A    between atoms: C_6  and  C_7
REMARK    4  A    between atoms: C_10  and  N_11
REMARK    5  A    between atoms: N_14  and  C_15
REMARK                            x       y       z     vdW  Elec       q    Type
REMARK                         _______ _______ _______ _____ _____    ______ ____
ROOT
ATOM      1  C   UNL     1       5.118   5.792  16.546  0.00  0.00    +0.000 C 
ATOM      2  C   UNL     1       4.299   5.156  17.626  0.00  0.00    +0.000 A 
ATOM      3  C   UNL     1       4.181   3.788  17.736  0.00  0.00    +0.000 A 
ATOM      4  C   UNL     1       3.414   3.246  18.772  0.00  0.00    +0.000 A 
ATOM      5  C   UNL     1       3.321   1.744  18.835  0.00  0.00    +0.000 C 
ATOM      6  C   UNL     1       2.770   4.124  19.691  0.00  0.00    +0.000 A 
ATOM      7  C   UNL     1       2.997   5.503  19.547  0.00  0.00    +0.000 A 
ATOM      8  N   UNL     1       3.703   5.988  18.500  0.00  0.00    +0.000 NA
ENDROOT
BRANCH   7   9
ATOM      9  N   UNL     1       2.537   6.462  20.488  0.00  0.00    +0.000 N 
ATOM     10  C   UNL     1       1.913   7.645  20.102  0.00  0.00    +0.000 C 
ATOM     11  O   UNL     1       1.743   8.025  18.947  0.00  0.00    +0.000 OA
ATOM     12  N   UNL     1       1.511   8.411  21.186  0.00  0.00    +0.000 N 
ATOM     13  H   UNL     1       2.816   6.351  21.449  0.00  0.00    +0.000 HD
ATOM     14  H   UNL     1       2.153   8.418  21.967  0.00  0.00    +0.000 HD
BRANCH  12  15
ATOM     15  C   UNL     1       0.816   9.643  20.987  0.00  0.00    +0.000 A 
ATOM     16  C   UNL     1       0.876  10.325  19.762  0.00  0.00    +0.000 A 
ATOM     17  C   UNL     1       0.182  11.529  19.587  0.00  0.00    +0.000 A 
ATOM     18  C   UNL     1      -0.564  12.072  20.633  0.00  0.00    +0.000 A 
ATOM     19  C   UNL     1      -0.628  11.402  21.856  0.00  0.00    +0.000 A 
ATOM     20  C   UNL     1       0.051  10.191  22.029  0.00  0.00    +0.000 A 
ATOM     21 CL   UNL     1       0.013   9.443  23.589  0.00  0.00    +0.000 Cl
ENDBRANCH  12  15
ENDBRANCH   7   9
BRANCH   6  22
ATOM     22  C   UNL     1       1.941   3.539  20.783  0.00  0.00    +0.000 C 
ATOM     23  N   UNL     1       0.614   3.288  20.537  0.00  0.00    +0.000 N 
ATOM     24  O   UNL     1       2.403   3.219  21.867  0.00  0.00    +0.000 OA
ATOM     25  H   UNL     1       0.274   3.156  19.592  0.00  0.00    +0.000 HD
ATOM     26  H   UNL     1       0.192   2.691  21.243  0.00  0.00    +0.000 HD
ENDBRANCH   6  22
TORSDOF 3
ENDMDL
MODEL 3
REMARK VINA RESULT:      -7.1      1.721      2.907
REMARK  Name = 
REMARK  5 active torsions:
REMARK  status: ('A' for Active; 'I' for Inactive)
REMARK    1  A    between atoms: C_1  and  C_2
REMARK    2  A    between atoms: C_4  and  C_5
REMARK    3  A    between atoms: C_6  and  C_7
REMARK    4  A    between atoms: C_10  and  N_11
REMARK    5  A    between atoms: N_14  and  C_15
REMARK                            x       y       z     vdW  Elec       q    Type
REMARK                         _______ _______ _______ _____ _____    ______ ____
ROOT
ATOM      1  C   UNL     1       2.054   2.322  18.600  0.00  0.00    +0.000 C 
ATOM      2  C   UNL     1       2.928   3.396  18.027  0.00  0.00    +0.000 A 
ATOM      3  C   UNL     1       3.995   3.100  17.208  0.00  0.00    +0.000 A 
ATOM      4  C   UNL     1       4.771   4.142  16.690  0.00  0.00    +0.000 A 
ATOM      5  C   UNL     1       5.926   3.755  15.803  0.00  0.00    +0.000 C 
ATOM      6  C   UNL     1       4.438   5.487  17.024  0.00  0.00    +0.000 A 
ATOM      7  C   UNL     1       3.295   5.702  17.811  0.00  0.00    +0.000 A 
ATOM      8  N   UNL     1       2.603   4.665  18.335  0.00  0.00    +0.000 NA
ENDROOT
BRANCH   7   9
ATOM      9  N   UNL     1       2.778   6.997  18.081  0.00  0.00    +0.000 N 
ATOM     10  C   UNL     1       2.091   7.295  19.254  0.00  0.00    +0.000 C 
ATOM     11  O   UNL     1       1.801   6.497  20.140  0.00  0.00    +0.000 OA
ATOM     12  N   UNL     1       1.713   8.628  19.323  0.00  0.00    +0.000 N 
ATOM     13  H   UNL     1       2.773   7.668  17.330  0.00  0.00    +0.000 HD
ATOM     14  H   UNL     1       1.405   9.032  18.449  0.00  0.00    +0.000 HD
BRANCH  12  15
ATOM     15  C   UNL     1       1.031   9.132  20.474  0.00  0.00    +0.000 A 
ATOM     16  C   UNL     1       1.458   8.811  21.772  0.00  0.00    +0.000 A 
ATOM     17  C   UNL     1       0.778   9.320  22.886  0.00  0.00    +0.000 A 
ATOM     18  C   UNL     1      -0.339  10.139  22.718  0.00  0.00    +0.000 A 
ATOM     19  C   UNL     1      -0.771  10.461  21.431  0.00  0.00    +0.000 A 
ATOM     20  C   UNL     1      -0.086   9.966  20.316  0.00  0.00    +0.000 A 
ATOM     21 CL   UNL     1      -0.711  10.321  18.742  0.00  0.00    +0.000 Cl
ENDBRANCH  12  15
ENDBRANCH   7   9
BRANCH   6  22
ATOM     22  C   UNL     1       5.280   6.591  16.480  0.00  0.00    +0.000 C 
ATOM     23  N   UNL     1       6.314   7.066  17.247  0.00  0.00    +0.000 N 
ATOM     24  O   UNL     1       5.127   7.053  15.360  0.00  0.00    +0.000 OA
ATOM     25  H   UNL     1       6.733   6.495  17.972  0.00  0.00    +0.000 HD
ATOM     26  H   UNL     1       6.961   7.645  16.717  0.00  0.00    +0.000 HD
ENDBRANCH   6  22
TORSDOF 3
ENDMDL
MODEL 4
REMARK VINA RESULT:      -7.1      1.825      2.105
REMARK  Name = 
REMARK  5 active torsions:
REMARK  status: ('A' for Active; 'I' for Inactive)
REMARK    1  A    between atoms: C_1  and  C_2
REMARK    2  A    between atoms: C_4  and  C_5
REMARK    3  A    between atoms: C_6  and  C_7
REMARK    4  A    between atoms: C_10  and  N_11
REMARK    5  A    between atoms: N_14  and  C_15
REMARK                            x       y       z     vdW  Elec       q    Type
REMARK                         _______ _______ _______ _____ _____    ______ ____
ROOT
ATOM      1  C   UNL     1       6.867   5.407  19.190  0.00  0.00    +0.000 C 
ATOM      2  C   UNL     1       5.454   4.916  19.109  0.00  0.00    +0.000 A 
ATOM      3  C   UNL     1       5.134   3.731  18.484  0.00  0.00    +0.000 A 
ATOM      4  C   UNL     1       3.800   3.313  18.449  0.00  0.00    +0.000 A 
ATOM      5  C   UNL     1       3.513   2.011  17.748  0.00  0.00    +0.000 C 
ATOM      6  C   UNL     1       2.802   4.126  19.061  0.00  0.00    +0.000 A 
ATOM      7  C   UNL     1       3.224   5.285  19.735  0.00  0.00    +0.000 A 
ATOM      8  N   UNL     1       4.516   5.680  19.699  0.00  0.00    +0.000 NA
ENDROOT
BRANCH   7   9
ATOM      9  N   UNL     1       2.346   6.088  20.509  0.00  0.00    +0.000 N 
ATOM     10  C   UNL     1       1.959   7.365  20.111  0.00  0.00    +0.000 C 
ATOM     11  O   UNL     1       2.357   7.959  19.115  0.00  0.00    +0.000 OA
ATOM     12  N   UNL     1       1.067   7.949  20.999  0.00  0.00    +0.000 N 
ATOM     13  H   UNL     1       2.130   5.784  21.444  0.00  0.00    +0.000 HD
ATOM     14  H   UNL     1       1.253   7.766  21.976  0.00  0.00    +0.000 HD
BRANCH  12  15
ATOM     15  C   UNL     1       0.526   9.245  20.737  0.00  0.00    +0.000 A 
ATOM     16  C   UNL     1       0.522   9.786  19.442  0.00  0.00    +0.000 A 
ATOM     17  C   UNL     1      -0.018  11.057  19.207  0.00  0.00    +0.000 A 
ATOM     18  C   UNL     1      -0.545  11.806  20.261  0.00  0.00    +0.000 A 
ATOM     19  C   UNL     1      -0.544  11.276  21.552  0.00  0.00    +0.000 A 
ATOM     20  C   UNL     1      -0.019  10.001  21.787  0.00  0.00    +0.000 A 
ATOM     21 CL   UNL     1       0.040   9.424  23.417  0.00  0.00    +0.000 Cl
ENDBRANCH  12  15
ENDBRANCH   7   9
BRANCH   6  22
ATOM     22  C   UNL     1       1.380   3.681  19.005  0.00  0.00    +0.000 C 
ATOM     23  N   UNL     1       0.767   3.294  20.171  0.00  0.00    +0.000 N 
ATOM     24  O   UNL     1       0.719   3.699  17.978  0.00  0.00    +0.000 OA
ATOM     25  H   UNL     1       1.103   3.617  21.070  0.00  0.00    +0.000 HD
ATOM     26  H   UNL     1      -0.244   3.228  20.078  0.00  0.00    +0.000 HD
ENDBRANCH   6  22
TORSDOF 3
ENDMDL
MODEL 5
REMARK VINA RESULT:      -7.0      1.415      1.647
REMARK  Name = 
REMARK  5 active torsions:
REMARK  status: ('A' for Active; 'I' for Inactive)
REMARK    1  A    between atoms: C_1  and  C_2
REMARK    2  A    between atoms: C_4  and  C_5
REMARK    3  A    between atoms: C_6  and  C_7
REMARK    4  A    between atoms: C_10  and  N_11
REMARK    5  A    between atoms: N_14  and  C_15
REMARK                            x       y       z     vdW  Elec       q    Type
REMARK                         _______ _______ _______ _____ _____    ______ ____
ROOT
ATOM      1  C   UNL     1       7.424   6.471  17.590  0.00  0.00    +0.000 C 
ATOM      2  C   UNL     1       6.027   5.970  17.793  0.00  0.00    +0.000 A 
ATOM      3  C   UNL     1       5.774   4.725  18.325  0.00  0.00    +0.000 A 
ATOM      4  C   UNL     1       4.450   4.312  18.505  0.00  0.00    +0.000 A 
ATOM      5  C   UNL     1       4.239   2.940  19.088  0.00  0.00    +0.000 C 
ATOM      6  C   UNL     1       3.392   5.191  18.131  0.00  0.00    +0.000 A 
ATOM      7  C   UNL     1       3.738   6.468  17.658  0.00  0.00    +0.000 A 
ATOM      8  N   UNL     1       5.030   6.808  17.450  0.00  0.00    +0.000 NA
ENDROOT
BRANCH   7   9
ATOM      9  N   UNL     1       2.777   7.481  17.400  0.00  0.00    +0.000 N 
ATOM     10  C   UNL     1       2.117   8.158  18.421  0.00  0.00    +0.000 C 
ATOM     11  O   UNL     1       2.229   7.935  19.622  0.00  0.00    +0.000 OA
ATOM     12  N   UNL     1       1.254   9.132  17.939  0.00  0.00    +0.000 N 
ATOM     13  H   UNL     1       2.454   7.594  16.453  0.00  0.00    +0.000 HD
ATOM     14  H   UNL     1       0.749   8.879  17.100  0.00  0.00    +0.000 HD
BRANCH  12  15
ATOM     15  C   UNL     1       0.517   9.960  18.841  0.00  0.00    +0.000 A 
ATOM     16  C   UNL     1       1.080  10.406  20.047  0.00  0.00    +0.000 A 
ATOM     17  C   UNL     1       0.341  11.221  20.914  0.00  0.00    +0.000 A 
ATOM     18  C   UNL     1      -0.968  11.587  20.595  0.00  0.00    +0.000 A 
ATOM     19  C   UNL     1      -1.536  11.147  19.399  0.00  0.00    +0.000 A 
ATOM     20  C   UNL     1      -0.796  10.344  18.524  0.00  0.00    +0.000 A 
ATOM     21 CL   UNL     1      -1.572   9.752  17.096  0.00  0.00    +0.000 Cl
ENDBRANCH  12  15
ENDBRANCH   7   9
BRANCH   6  22
ATOM     22  C   UNL     1       1.983   4.737  18.311  0.00  0.00    +0.000 C 
ATOM     23  N   UNL     1       1.442   4.759  19.572  0.00  0.00    +0.000 N 
ATOM     24  O   UNL     1       1.272   4.399  17.378  0.00  0.00    +0.000 OA
ATOM     25  H   UNL     1       1.814   5.371  20.289  0.00  0.00    +0.000 HD
ATOM     26  H   UNL     1       0.431   4.654  19.566  0.00  0.00    +0.000 HD
ENDBRANCH   6  22
TORSDOF 3
ENDMDL
MODEL 6
REMARK VINA RESULT:      -7.0      1.179      1.313
REMARK  Name = 
REMARK  5 active torsions:
REMARK  status: ('A' for Active; 'I' for Inactive)
REMARK    1  A    between atoms: C_1  and  C_2
REMARK    2  A    between atoms: C_4  and  C_5
REMARK    3  A    between atoms: C_6  and  C_7
REMARK    4  A    between atoms: C_10  and  N_11
REMARK    5  A    between atoms: N_14  and  C_15
REMARK                            x       y       z     vdW  Elec       q    Type
REMARK                         _______ _______ _______ _____ _____    ______ ____
ROOT
ATOM      1  C   UNL     1       7.269   5.827  18.561  0.00  0.00    +0.000 C 
ATOM      2  C   UNL     1       5.836   5.390  18.525  0.00  0.00    +0.000 A 
ATOM      3  C   UNL     1       5.453   4.129  18.927  0.00  0.00    +0.000 A 
ATOM      4  C   UNL     1       4.100   3.778  18.886  0.00  0.00    +0.000 A 
ATOM      5  C   UNL     1       3.745   2.385  19.334  0.00  0.00    +0.000 C 
ATOM      6  C   UNL     1       3.148   4.735  18.428  0.00  0.00    +0.000 A 
ATOM      7  C   UNL     1       3.616   6.019  18.101  0.00  0.00    +0.000 A 
ATOM      8  N   UNL     1       4.939   6.301  18.104  0.00  0.00    +0.000 NA
ENDROOT
BRANCH   7   9
ATOM      9  N   UNL     1       2.749   7.097  17.781  0.00  0.00    +0.000 N 
ATOM     10  C   UNL     1       2.227   7.946  18.752  0.00  0.00    +0.000 C 
ATOM     11  O   UNL     1       2.391   7.840  19.963  0.00  0.00    +0.000 OA
ATOM     12  N   UNL     1       1.439   8.951  18.209  0.00  0.00    +0.000 N 
ATOM     13  H   UNL     1       2.381   7.143  16.845  0.00  0.00    +0.000 HD
ATOM     14  H   UNL     1       0.859   8.667  17.431  0.00  0.00    +0.000 HD
BRANCH  12  15
ATOM     15  C   UNL     1       0.848   9.944  19.049  0.00  0.00    +0.000 A 
ATOM     16  C   UNL     1      -0.206   9.629  19.921  0.00  0.00    +0.000 A 
ATOM     17  C   UNL     1      -0.767  10.618  20.740  0.00  0.00    +0.000 A 
ATOM     18  C   UNL     1      -0.295  11.929  20.687  0.00  0.00    +0.000 A 
ATOM     19  C   UNL     1       0.751  12.252  19.821  0.00  0.00    +0.000 A 
ATOM     20  C   UNL     1       1.324  11.264  19.013  0.00  0.00    +0.000 A 
ATOM     21 CL   UNL     1       2.558  11.731  17.894  0.00  0.00    +0.000 Cl
ENDBRANCH  12  15
ENDBRANCH   7   9
BRANCH   6  22
ATOM     22  C   UNL     1       1.710   4.347  18.372  0.00  0.00    +0.000 C 
ATOM     23  N   UNL     1       1.029   4.178  19.552  0.00  0.00    +0.000 N 
ATOM     24  O   UNL     1       1.096   4.229  17.323  0.00  0.00    +0.000 OA
ATOM     25  H   UNL     1       1.342   4.627  20.404  0.00  0.00    +0.000 HD
ATOM     26  H   UNL     1       0.022   4.141  19.420  0.00  0.00    +0.000 HD
ENDBRANCH   6  22
TORSDOF 3
ENDMDL
MODEL 7
REMARK VINA RESULT:      -6.9      2.370      3.321
REMARK  Name = 
REMARK  5 active torsions:
REMARK  status: ('A' for Active; 'I' for Inactive)
REMARK    1  A    between atoms: C_1  and  C_2
REMARK    2  A    between atoms: C_4  and  C_5
REMARK    3  A    between atoms: C_6  and  C_7
REMARK    4  A    between atoms: C_10  and  N_11
REMARK    5  A    between atoms: N_14  and  C_15
REMARK                            x       y       z     vdW  Elec       q    Type
REMARK                         _______ _______ _______ _____ _____    ______ ____
ROOT
ATOM      1  C   UNL     1       2.291   4.254  20.803  0.00  0.00    +0.000 C 
ATOM      2  C   UNL     1       3.131   4.909  19.749  0.00  0.00    +0.000 A 
ATOM      3  C   UNL     1       4.301   4.338  19.297  0.00  0.00    +0.000 A 
ATOM      4  C   UNL     1       5.040   4.986  18.303  0.00  0.00    +0.000 A 
ATOM      5  C   UNL     1       6.311   4.314  17.853  0.00  0.00    +0.000 C 
ATOM      6  C   UNL     1       4.565   6.224  17.780  0.00  0.00    +0.000 A 
ATOM      7  C   UNL     1       3.330   6.702  18.250  0.00  0.00    +0.000 A 
ATOM      8  N   UNL     1       2.673   6.072  19.250  0.00  0.00    +0.000 NA
ENDROOT
BRANCH   7   9
ATOM      9  N   UNL     1       2.683   7.838  17.698  0.00  0.00    +0.000 N 
ATOM     10  C   UNL     1       1.881   8.683  18.459  0.00  0.00    +0.000 C 
ATOM     11  O   UNL     1       1.592   8.527  19.642  0.00  0.00    +0.000 OA
ATOM     12  N   UNL     1       1.386   9.750  17.724  0.00  0.00    +0.000 N 
ATOM     13  H   UNL     1       2.680   7.938  16.696  0.00  0.00    +0.000 HD
ATOM     14  H   UNL     1       1.116   9.528  16.776  0.00  0.00    +0.000 HD
BRANCH  12  15
ATOM     15  C   UNL     1       0.574  10.747  18.347  0.00  0.00    +0.000 A 
ATOM     16  C   UNL     1      -0.766  10.492  18.680  0.00  0.00    +0.000 A 
ATOM     17  C   UNL     1      -1.543  11.483  19.296  0.00  0.00    +0.000 A 
ATOM     18  C   UNL     1      -0.998  12.738  19.571  0.00  0.00    +0.000 A 
ATOM     19  C   UNL     1       0.332  13.000  19.241  0.00  0.00    +0.000 A 
ATOM     20  C   UNL     1       1.116  12.008  18.640  0.00  0.00    +0.000 A 
ATOM     21 CL   UNL     1       2.732  12.409  18.171  0.00  0.00    +0.000 Cl
ENDBRANCH  12  15
ENDBRANCH   7   9
BRANCH   6  22
ATOM     22  C   UNL     1       5.368   6.916  16.732  0.00  0.00    +0.000 C 
ATOM     23  N   UNL     1       6.499   7.593  17.112  0.00  0.00    +0.000 N 
ATOM     24  O   UNL     1       5.095   6.860  15.543  0.00  0.00    +0.000 OA
ATOM     25  H   UNL     1       6.984   7.360  17.970  0.00  0.00    +0.000 HD
ATOM     26  H   UNL     1       7.094   7.835  16.324  0.00  0.00    +0.000 HD
ENDBRANCH   6  22
TORSDOF 3
ENDMDL
MODEL 8
REMARK VINA RESULT:      -6.9      2.013      3.235
REMARK  Name = 
REMARK  5 active torsions:
REMARK  status: ('A' for Active; 'I' for Inactive)
REMARK    1  A    between atoms: C_1  and  C_2
REMARK    2  A    between atoms: C_4  and  C_5
REMARK    3  A    between atoms: C_6  and  C_7
REMARK    4  A    between atoms: C_10  and  N_11
REMARK    5  A    between atoms: N_14  and  C_15
REMARK                            x       y       z     vdW  Elec       q    Type
REMARK                         _______ _______ _______ _____ _____    ______ ____
ROOT
ATOM      1  C   UNL     1       1.435   2.468  21.838  0.00  0.00    +0.000 C 
ATOM      2  C   UNL     1       1.857   3.445  20.784  0.00  0.00    +0.000 A 
ATOM      3  C   UNL     1       1.995   3.073  19.465  0.00  0.00    +0.000 A 
ATOM      4  C   UNL     1       2.379   4.029  18.519  0.00  0.00    +0.000 A 
ATOM      5  C   UNL     1       2.517   3.559  17.095  0.00  0.00    +0.000 C 
ATOM      6  C   UNL     1       2.618   5.368  18.944  0.00  0.00    +0.000 A 
ATOM      7  C   UNL     1       2.388   5.677  20.295  0.00  0.00    +0.000 A 
ATOM      8  N   UNL     1       2.069   4.712  21.187  0.00  0.00    +0.000 NA
ENDROOT
BRANCH   7   9
ATOM      9  N   UNL     1       2.444   7.002  20.803  0.00  0.00    +0.000 N 
ATOM     10  C   UNL     1       1.301   7.771  21.004  0.00  0.00    +0.000 C 
ATOM     11  O   UNL     1       0.153   7.441  20.723  0.00  0.00    +0.000 OA
ATOM     12  N   UNL     1       1.588   9.016  21.544  0.00  0.00    +0.000 N 
ATOM     13  H   UNL     1       3.345   7.446  20.865  0.00  0.00    +0.000 HD
ATOM     14  H   UNL     1       2.428   9.454  21.189  0.00  0.00    +0.000 HD
BRANCH  12  15
ATOM     15  C   UNL     1       0.537   9.932  21.859  0.00  0.00    +0.000 A 
ATOM     16  C   UNL     1      -0.219   9.797  23.033  0.00  0.00    +0.000 A 
ATOM     17  C   UNL     1      -1.242  10.710  23.324  0.00  0.00    +0.000 A 
ATOM     18  C   UNL     1      -1.529  11.753  22.443  0.00  0.00    +0.000 A 
ATOM     19  C   UNL     1      -0.783  11.893  21.272  0.00  0.00    +0.000 A 
ATOM     20  C   UNL     1       0.249  10.993  20.986  0.00  0.00    +0.000 A 
ATOM     21 CL   UNL     1       1.088  11.155  19.481  0.00  0.00    +0.000 Cl
ENDBRANCH  12  15
ENDBRANCH   7   9
BRANCH   6  22
ATOM     22  C   UNL     1       3.042   6.378  17.932  0.00  0.00    +0.000 C 
ATOM     23  N   UNL     1       4.243   6.200  17.292  0.00  0.00    +0.000 N 
ATOM     24  O   UNL     1       2.343   7.325  17.606  0.00  0.00    +0.000 OA
ATOM     25  H   UNL     1       4.664   5.282  17.216  0.00  0.00    +0.000 HD
ATOM     26  H   UNL     1       4.341   6.797  16.474  0.00  0.00    +0.000 HD
ENDBRANCH   6  22
TORSDOF 3
ENDMDL
MODEL 9
REMARK VINA RESULT:      -6.9      2.257      2.766
REMARK  Name = 
REMARK  5 active torsions:
REMARK  status: ('A' for Active; 'I' for Inactive)
REMARK    1  A    between atoms: C_1  and  C_2
REMARK    2  A    between atoms: C_4  and  C_5
REMARK    3  A    between atoms: C_6  and  C_7
REMARK    4  A    between atoms: C_10  and  N_11
REMARK    5  A    between atoms: N_14  and  C_15
REMARK                            x       y       z     vdW  Elec       q    Type
REMARK                         _______ _______ _______ _____ _____    ______ ____
ROOT
ATOM      1  C   UNL     1       5.225   6.630  15.788  0.00  0.00    +0.000 C 
ATOM      2  C   UNL     1       4.377   6.089  16.897  0.00  0.00    +0.000 A 
ATOM      3  C   UNL     1       4.414   4.759  17.255  0.00  0.00    +0.000 A 
ATOM      4  C   UNL     1       3.611   4.309  18.307  0.00  0.00    +0.000 A 
ATOM      5  C   UNL     1       3.693   2.844  18.647  0.00  0.00    +0.000 C 
ATOM      6  C   UNL     1       2.771   5.240  18.986  0.00  0.00    +0.000 A 
ATOM      7  C   UNL     1       2.845   6.589  18.602  0.00  0.00    +0.000 A 
ATOM      8  N   UNL     1       3.595   6.973  17.544  0.00  0.00    +0.000 NA
ENDROOT
BRANCH   7   9
ATOM      9  N   UNL     1       2.174   7.627  19.301  0.00  0.00    +0.000 N 
ATOM     10  C   UNL     1       1.840   8.836  18.699  0.00  0.00    +0.000 C 
ATOM     11  O   UNL     1       2.124   9.172  17.553  0.00  0.00    +0.000 OA
ATOM     12  N   UNL     1       1.155   9.685  19.557  0.00  0.00    +0.000 N 
ATOM     13  H   UNL     1       2.086   7.541  20.301  0.00  0.00    +0.000 HD
ATOM     14  H   UNL     1       1.479   9.678  20.515  0.00  0.00    +0.000 HD
BRANCH  12  15
ATOM     15  C   UNL     1       0.693  10.958  19.103  0.00  0.00    +0.000 A 
ATOM     16  C   UNL     1       1.512  12.096  19.167  0.00  0.00    +0.000 A 
ATOM     17  C   UNL     1       1.040  13.335  18.712  0.00  0.00    +0.000 A 
ATOM     18  C   UNL     1      -0.254  13.453  18.203  0.00  0.00    +0.000 A 
ATOM     19  C   UNL     1      -1.076  12.327  18.138  0.00  0.00    +0.000 A 
ATOM     20  C   UNL     1      -0.603  11.086  18.578  0.00  0.00    +0.000 A 
ATOM     21 CL   UNL     1      -1.688   9.738  18.558  0.00  0.00    +0.000 Cl
ENDBRANCH  12  15
ENDBRANCH   7   9
BRANCH   6  22
ATOM     22  C   UNL     1       1.906   4.749  20.097  0.00  0.00    +0.000 C 
ATOM     23  N   UNL     1       2.350   4.891  21.387  0.00  0.00    +0.000 N 
ATOM     24  O   UNL     1       0.795   4.277  19.912  0.00  0.00    +0.000 OA
ATOM     25  H   UNL     1       3.036   5.597  21.628  0.00  0.00    +0.000 HD
ATOM     26  H   UNL     1       1.614   4.742  22.073  0.00  0.00    +0.000 HD
ENDBRANCH   6  22
TORSDOF 3
ENDMDL
