MODEL 1
REMARK VINA RESULT:      -8.1      0.000      0.000
REMARK  Name = 
REMARK  8 active torsions:
REMARK  status: ('A' for Active; 'I' for Inactive)
REMARK    1  A    between atoms: C_1  and  C_2
REMARK    2  A    between atoms: C_2  and  C_3
REMARK    3  A    between atoms: C_3  and  S_4
REMARK    4  A    between atoms: C_3  and  C_17
REMARK    5  A    between atoms: S_4  and  C_5
REMARK    6  A    between atoms: N_19  and  C_20
REMARK    7  A    between atoms: C_24  and  O_25
REMARK    8  A    between atoms: O_25  and  C_26
REMARK                            x       y       z     vdW  Elec       q    Type
REMARK                         _______ _______ _______ _____ _____    ______ ____
ROOT
ATOM      1  C   UNL     1       1.931   4.501  19.421  0.00  0.00    +0.000 C 
ENDROOT
BRANCH   1   2
ATOM      2  C   UNL     1       3.245   4.255  18.653  0.00  0.00    +0.000 C 
ATOM      3  O   UNL     1       4.062   3.459  19.123  0.00  0.00    +0.000 OA
ATOM      4  N   UNL     1       3.403   4.906  17.441  0.00  0.00    +0.000 N 
ATOM      5  H   UNL     1       2.774   5.688  17.287  0.00  0.00    +0.000 HD
BRANCH   4   6
ATOM      6  C   UNL     1       4.610   4.936  16.695  0.00  0.00    +0.000 A 
ATOM      7  C   UNL     1       4.916   3.975  15.726  0.00  0.00    +0.000 A 
ATOM      8  C   UNL     1       6.157   3.963  15.099  0.00  0.00    +0.000 A 
ATOM      9  C   UNL     1       7.103   4.928  15.422  0.00  0.00    +0.000 A 
ATOM     10  C   UNL     1       6.809   5.924  16.357  0.00  0.00    +0.000 A 
ATOM     11  C   UNL     1       5.555   5.938  16.981  0.00  0.00    +0.000 A 
BRANCH  10  12
ATOM     12  O   UNL     1       7.844   6.791  16.577  0.00  0.00    +0.000 OA
ATOM     13  C   UNL     1       7.667   7.790  17.568  0.00  0.00    +0.000 C 
ENDBRANCH  10  12
ENDBRANCH   4   6
ENDBRANCH   1   2
BRANCH   1  15
ATOM     14  C   UNL     1       1.370   2.783  21.304  0.00  0.00    +0.000 C 
ATOM     15  C   UNL     1       1.328   3.136  19.826  0.00  0.00    +0.000 C 
ENDBRANCH   1  15
BRANCH   1  16
ATOM     16  S   UNL     1       2.047   5.699  20.798  0.00  0.00    +0.000 S 
BRANCH  16  17
ATOM     17  C   UNL     1       1.903   7.206  19.947  0.00  0.00    +0.000 A 
ATOM     18  N   UNL     1       2.349   7.312  18.735  0.00  0.00    +0.000 NA
ATOM     19  N   UNL     1       2.216   8.532  18.019  0.00  0.00    +0.000 NA
ATOM     20  C   UNL     1       1.616   9.536  18.578  0.00  0.00    +0.000 A 
ATOM     21  N   UNL     1       1.102   9.427  19.853  0.00  0.00    +0.000 N 
ATOM     22  C   UNL     1       1.218   8.281  20.593  0.00  0.00    +0.000 A 
ATOM     23  C   UNL     1       0.608   8.461  21.818  0.00  0.00    +0.000 A 
ATOM     24  C   UNL     1       0.074   9.783  21.784  0.00  0.00    +0.000 A 
ATOM     25  S   UNL     1      -0.849  10.853  22.785  0.00  0.00    +0.000 S 
ATOM     26  C   UNL     1      -0.799  12.050  21.550  0.00  0.00    +0.000 A 
ATOM     27  C   UNL     1      -0.093  11.678  20.426  0.00  0.00    +0.000 A 
ATOM     28  C   UNL     1       0.392  10.350  20.582  0.00  0.00    +0.000 A 
ENDBRANCH  16  17
ENDBRANCH   1  16
TORSDOF 6
ENDMDL
MODEL 2
REMARK VINA RESULT:      -7.8      1.133      1.680
REMARK  Name = 
REMARK  8 active torsions:
REMARK  status: ('A' for Active; 'I' for Inactive)
REMARK    1  A    between atoms: C_1  and  C_2
REMARK    2  A    between atoms: C_2  and  C_3
REMARK    3  A    between atoms: C_3  and  S_4
REMARK    4  A    between atoms: C_3  and  C_17
REMARK    5  A    between atoms: S_4  and  C_5
REMARK    6  A    between atoms: N_19  and  C_20
REMARK    7  A    between atoms: C_24  and  O_25
REMARK    8  A    between atoms: O_25  and  C_26
REMARK                            x       y       z     vdW  Elec       q    Type
REMARK                         _______ _______ _______ _____ _____    ______ ____
ROOT
ATOM      1  C   UNL     1       1.809   4.741  19.440  0.00  0.00    +0.000 C 
ENDROOT
BRANCH   1   2
ATOM      2  C   UNL     1       2.962   4.262  18.536  0.00  0.00    +0.000 C 
ATOM      3  O   UNL     1       3.001   3.072  18.211  0.00  0.00    +0.000 OA
ATOM      4  N   UNL     1       3.860   5.219  18.091  0.00  0.00    +0.000 N 
ATOM      5  H   UNL     1       3.845   6.094  18.606  0.00  0.00    +0.000 HD
BRANCH   4   6
ATOM      6  C   UNL     1       5.068   4.931  17.406  0.00  0.00    +0.000 A 
ATOM      7  C   UNL     1       6.268   4.675  18.078  0.00  0.00    +0.000 A 
ATOM      8  C   UNL     1       7.459   4.516  17.378  0.00  0.00    +0.000 A 
ATOM      9  C   UNL     1       7.460   4.594  15.991  0.00  0.00    +0.000 A 
ATOM     10  C   UNL     1       6.270   4.810  15.292  0.00  0.00    +0.000 A 
ATOM     11  C   UNL     1       5.070   4.961  15.999  0.00  0.00    +0.000 A 
BRANCH  10  12
ATOM     12  O   UNL     1       6.435   4.875  13.936  0.00  0.00    +0.000 OA
ATOM     13  C   UNL     1       6.218   3.690  13.188  0.00  0.00    +0.000 C 
ENDBRANCH  10  12
ENDBRANCH   4   6
ENDBRANCH   1   2
BRANCH   1  15
ATOM     14  C   UNL     1       1.472   3.028  21.381  0.00  0.00    +0.000 C 
ATOM     15  C   UNL     1       1.066   3.503  19.995  0.00  0.00    +0.000 C 
ENDBRANCH   1  15
BRANCH   1  16
ATOM     16  S   UNL     1       2.278   5.960  20.719  0.00  0.00    +0.000 S 
BRANCH  16  17
ATOM     17  C   UNL     1       1.943   7.454  19.899  0.00  0.00    +0.000 A 
ATOM     18  N   UNL     1       2.314   7.616  18.669  0.00  0.00    +0.000 NA
ATOM     19  N   UNL     1       2.026   8.824  17.978  0.00  0.00    +0.000 NA
ATOM     20  C   UNL     1       1.359   9.758  18.581  0.00  0.00    +0.000 A 
ATOM     21  N   UNL     1       0.924   9.586  19.879  0.00  0.00    +0.000 N 
ATOM     22  C   UNL     1       1.191   8.450  20.595  0.00  0.00    +0.000 A 
ATOM     23  C   UNL     1       0.629   8.556  21.851  0.00  0.00    +0.000 A 
ATOM     24  C   UNL     1      -0.033   9.819  21.864  0.00  0.00    +0.000 A 
ATOM     25  S   UNL     1      -1.004  10.783  22.926  0.00  0.00    +0.000 S 
ATOM     26  C   UNL     1      -1.135  11.990  21.708  0.00  0.00    +0.000 A 
ATOM     27  C   UNL     1      -0.454  11.701  20.545  0.00  0.00    +0.000 A 
ATOM     28  C   UNL     1       0.166  10.426  20.656  0.00  0.00    +0.000 A 
ENDBRANCH  16  17
ENDBRANCH   1  16
TORSDOF 6
ENDMDL
MODEL 3
REMARK VINA RESULT:      -7.5      1.469      2.223
REMARK  Name = 
REMARK  8 active torsions:
REMARK  status: ('A' for Active; 'I' for Inactive)
REMARK    1  A    between atoms: C_1  and  C_2
REMARK    2  A    between atoms: C_2  and  C_3
REMARK    3  A    between atoms: C_3  and  S_4
REMARK    4  A    between atoms: C_3  and  C_17
REMARK    5  A    between atoms: S_4  and  C_5
REMARK    6  A    between atoms: N_19  and  C_20
REMARK    7  A    between atoms: C_24  and  O_25
REMARK    8  A    between atoms: O_25  and  C_26
REMARK                            x       y       z     vdW  Elec       q    Type
REMARK                         _______ _______ _______ _____ _____    ______ ____
ROOT
ATOM      1  C   UNL     1       2.489   4.458  18.854  0.00  0.00    +0.000 C 
ENDROOT
BRANCH   1   2
ATOM      2  C   UNL     1       3.597   4.033  17.871  0.00  0.00    +0.000 C 
ATOM      3  O   UNL     1       4.003   2.868  17.909  0.00  0.00    +0.000 OA
ATOM      4  N   UNL     1       4.032   4.978  16.956  0.00  0.00    +0.000 N 
ATOM      5  H   UNL     1       3.784   5.937  17.179  0.00  0.00    +0.000 HD
BRANCH   4   6
ATOM      6  C   UNL     1       5.156   4.817  16.105  0.00  0.00    +0.000 A 
ATOM      7  C   UNL     1       6.394   5.408  16.380  0.00  0.00    +0.000 A 
ATOM      8  C   UNL     1       7.440   5.331  15.466  0.00  0.00    +0.000 A 
ATOM      9  C   UNL     1       7.264   4.643  14.272  0.00  0.00    +0.000 A 
ATOM     10  C   UNL     1       6.051   4.010  13.991  0.00  0.00    +0.000 A 
ATOM     11  C   UNL     1       5.002   4.081  14.916  0.00  0.00    +0.000 A 
BRANCH  10  12
ATOM     12  O   UNL     1       6.029   3.386  12.773  0.00  0.00    +0.000 OA
ATOM     13  C   UNL     1       4.816   3.422  12.037  0.00  0.00    +0.000 C 
ENDBRANCH  10  12
ENDBRANCH   4   6
ENDBRANCH   1   2
BRANCH   1  15
ATOM     14  C   UNL     1       0.653   2.608  18.727  0.00  0.00    +0.000 C 
ATOM     15  C   UNL     1       1.849   3.189  19.463  0.00  0.00    +0.000 C 
ENDBRANCH   1  15
BRANCH   1  16
ATOM     16  S   UNL     1       2.986   5.707  20.094  0.00  0.00    +0.000 S 
BRANCH  16  17
ATOM     17  C   UNL     1       2.431   7.170  19.340  0.00  0.00    +0.000 A 
ATOM     18  N   UNL     1       2.664   7.380  18.083  0.00  0.00    +0.000 NA
ATOM     19  N   UNL     1       2.196   8.563  17.448  0.00  0.00    +0.000 NA
ATOM     20  C   UNL     1       1.503   9.420  18.130  0.00  0.00    +0.000 A 
ATOM     21  N   UNL     1       1.214   9.192  19.460  0.00  0.00    +0.000 N 
ATOM     22  C   UNL     1       1.657   8.080  20.124  0.00  0.00    +0.000 A 
ATOM     23  C   UNL     1       1.211   8.116  21.430  0.00  0.00    +0.000 A 
ATOM     24  C   UNL     1       0.435   9.309  21.531  0.00  0.00    +0.000 A 
ATOM     25  S   UNL     1      -0.517  10.161  22.700  0.00  0.00    +0.000 S 
ATOM     26  C   UNL     1      -0.881  11.364  21.525  0.00  0.00    +0.000 A 
ATOM     27  C   UNL     1      -0.291  11.155  20.297  0.00  0.00    +0.000 A 
ATOM     28  C   UNL     1       0.457   9.946  20.323  0.00  0.00    +0.000 A 
ENDBRANCH  16  17
ENDBRANCH   1  16
TORSDOF 6
ENDMDL
MODEL 4
REMARK VINA RESULT:      -7.5      3.024      7.413
REMARK  Name = 
REMARK  8 active torsions:
REMARK  status: ('A' for Active; 'I' for Inactive)
REMARK    1  A    between atoms: C_1  and  C_2
REMARK    2  A    between atoms: C_2  and  C_3
REMARK    3  A    between atoms: C_3  and  S_4
REMARK    4  A    between atoms: C_3  and  C_17
REMARK    5  A    between atoms: S_4  and  C_5
REMARK    6  A    between atoms: N_19  and  C_20
REMARK    7  A    between atoms: C_24  and  O_25
REMARK    8  A    between atoms: O_25  and  C_26
REMARK                            x       y       z     vdW  Elec       q    Type
REMARK                         _______ _______ _______ _____ _____    ______ ____
ROOT
ATOM      1  C   UNL     1       3.095   4.218  20.787  0.00  0.00    +0.000 C 
ENDROOT
BRANCH   1   2
ATOM      2  C   UNL     1       2.221   5.442  20.448  0.00  0.00    +0.000 C 
ATOM      3  O   UNL     1       1.005   5.369  20.643  0.00  0.00    +0.000 OA
ATOM      4  N   UNL     1       2.870   6.580  19.997  0.00  0.00    +0.000 N 
ATOM      5  H   UNL     1       3.821   6.432  19.673  0.00  0.00    +0.000 HD
BRANCH   4   6
ATOM      6  C   UNL     1       2.216   7.725  19.474  0.00  0.00    +0.000 A 
ATOM      7  C   UNL     1       2.399   8.157  18.157  0.00  0.00    +0.000 A 
ATOM      8  C   UNL     1       1.839   9.349  17.711  0.00  0.00    +0.000 A 
ATOM      9  C   UNL     1       1.070  10.117  18.578  0.00  0.00    +0.000 A 
ATOM     10  C   UNL     1       0.838   9.689  19.887  0.00  0.00    +0.000 A 
ATOM     11  C   UNL     1       1.396   8.483  20.331  0.00  0.00    +0.000 A 
BRANCH  10  12
ATOM     12  O   UNL     1       0.075  10.557  20.620  0.00  0.00    +0.000 OA
ATOM     13  C   UNL     1       0.181  11.940  20.320  0.00  0.00    +0.000 C 
ENDBRANCH  10  12
ENDBRANCH   4   6
ENDBRANCH   1   2
BRANCH   1  15
ATOM     14  C   UNL     1       1.363   2.359  21.383  0.00  0.00    +0.000 C 
ATOM     15  C   UNL     1       2.379   3.380  21.871  0.00  0.00    +0.000 C 
ENDBRANCH   1  15
BRANCH   1  16
ATOM     16  S   UNL     1       3.661   3.243  19.348  0.00  0.00    +0.000 S 
BRANCH  16  17
ATOM     17  C   UNL     1       5.066   4.142  18.863  0.00  0.00    +0.000 A 
ATOM     18  N   UNL     1       5.834   4.677  19.758  0.00  0.00    +0.000 NA
ATOM     19  N   UNL     1       6.999   5.396  19.376  0.00  0.00    +0.000 NA
ATOM     20  C   UNL     1       7.308   5.487  18.121  0.00  0.00    +0.000 A 
ATOM     21  N   UNL     1       6.520   4.890  17.158  0.00  0.00    +0.000 N 
ATOM     22  C   UNL     1       5.378   4.202  17.470  0.00  0.00    +0.000 A 
ATOM     23  C   UNL     1       4.806   3.712  16.314  0.00  0.00    +0.000 A 
ATOM     24  C   UNL     1       5.681   4.110  15.260  0.00  0.00    +0.000 A 
ATOM     25  S   UNL     1       5.830   3.946  13.543  0.00  0.00    +0.000 S 
ATOM     26  C   UNL     1       7.296   4.844  13.585  0.00  0.00    +0.000 A 
ATOM     27  C   UNL     1       7.660   5.281  14.841  0.00  0.00    +0.000 A 
ATOM     28  C   UNL     1       6.711   4.829  15.799  0.00  0.00    +0.000 A 
ENDBRANCH  16  17
ENDBRANCH   1  16
TORSDOF 6
ENDMDL
MODEL 5
REMARK VINA RESULT:      -7.3      2.881      7.520
REMARK  Name = 
REMARK  8 active torsions:
REMARK  status: ('A' for Active; 'I' for Inactive)
REMARK    1  A    between atoms: C_1  and  C_2
REMARK    2  A    between atoms: C_2  and  C_3
REMARK    3  A    between atoms: C_3  and  S_4
REMARK    4  A    between atoms: C_3  and  C_17
REMARK    5  A    between atoms: S_4  and  C_5
REMARK    6  A    between atoms: N_19  and  C_20
REMARK    7  A    between atoms: C_24  and  O_25
REMARK    8  A    between atoms: O_25  and  C_26
REMARK                            x       y       z     vdW  Elec       q    Type
REMARK                         _______ _______ _______ _____ _____    ______ ____
ROOT
ATOM      1  C   UNL     1       3.110   4.326  20.637  0.00  0.00    +0.000 C 
ENDROOT
BRANCH   1   2
ATOM      2  C   UNL     1       2.384   5.565  20.074  0.00  0.00    +0.000 C 
ATOM      3  O   UNL     1       2.197   5.635  18.857  0.00  0.00    +0.000 OA
ATOM      4  N   UNL     1       1.931   6.504  20.986  0.00  0.00    +0.000 N 
ATOM      5  H   UNL     1       2.343   6.438  21.912  0.00  0.00    +0.000 HD
BRANCH   4   6
ATOM      6  C   UNL     1       1.407   7.775  20.638  0.00  0.00    +0.000 A 
ATOM      7  C   UNL     1       0.342   8.362  21.330  0.00  0.00    +0.000 A 
ATOM      8  C   UNL     1      -0.226   9.553  20.890  0.00  0.00    +0.000 A 
ATOM      9  C   UNL     1       0.279  10.182  19.759  0.00  0.00    +0.000 A 
ATOM     10  C   UNL     1       1.368   9.639  19.073  0.00  0.00    +0.000 A 
ATOM     11  C   UNL     1       1.944   8.444  19.523  0.00  0.00    +0.000 A 
BRANCH  10  12
ATOM     12  O   UNL     1       1.740  10.366  17.975  0.00  0.00    +0.000 OA
ATOM     13  C   UNL     1       2.082  11.729  18.172  0.00  0.00    +0.000 C 
ENDBRANCH  10  12
ENDBRANCH   4   6
ENDBRANCH   1   2
BRANCH   1  15
ATOM     14  C   UNL     1       1.061   2.774  21.088  0.00  0.00    +0.000 C 
ATOM     15  C   UNL     1       2.183   3.627  21.658  0.00  0.00    +0.000 C 
ENDBRANCH   1  15
BRANCH   1  16
ATOM     16  S   UNL     1       3.814   3.199  19.381  0.00  0.00    +0.000 S 
BRANCH  16  17
ATOM     17  C   UNL     1       5.193   4.110  18.846  0.00  0.00    +0.000 A 
ATOM     18  N   UNL     1       5.985   4.656  19.713  0.00  0.00    +0.000 NA
ATOM     19  N   UNL     1       7.130   5.385  19.290  0.00  0.00    +0.000 NA
ATOM     20  C   UNL     1       7.395   5.474  18.025  0.00  0.00    +0.000 A 
ATOM     21  N   UNL     1       6.582   4.866  17.090  0.00  0.00    +0.000 N 
ATOM     22  C   UNL     1       5.458   4.169  17.443  0.00  0.00    +0.000 A 
ATOM     23  C   UNL     1       4.852   3.669  16.308  0.00  0.00    +0.000 A 
ATOM     24  C   UNL     1       5.688   4.072  15.225  0.00  0.00    +0.000 A 
ATOM     25  S   UNL     1       5.780   3.903  13.504  0.00  0.00    +0.000 S 
ATOM     26  C   UNL     1       7.239   4.816  13.494  0.00  0.00    +0.000 A 
ATOM     27  C   UNL     1       7.640   5.260  14.735  0.00  0.00    +0.000 A 
ATOM     28  C   UNL     1       6.728   4.802  15.727  0.00  0.00    +0.000 A 
ENDBRANCH  16  17
ENDBRANCH   1  16
TORSDOF 6
ENDMDL
MODEL 6
REMARK VINA RESULT:      -7.2      3.013      4.608
REMARK  Name = 
REMARK  8 active torsions:
REMARK  status: ('A' for Active; 'I' for Inactive)
REMARK    1  A    between atoms: C_1  and  C_2
REMARK    2  A    between atoms: C_2  and  C_3
REMARK    3  A    between atoms: C_3  and  S_4
REMARK    4  A    between atoms: C_3  and  C_17
REMARK    5  A    between atoms: S_4  and  C_5
REMARK    6  A    between atoms: N_19  and  C_20
REMARK    7  A    between atoms: C_24  and  O_25
REMARK    8  A    between atoms: O_25  and  C_26
REMARK                            x       y       z     vdW  Elec       q    Type
REMARK                         _______ _______ _______ _____ _____    ______ ____
ROOT
ATOM      1  C   UNL     1       0.894   9.052  20.352  0.00  0.00    +0.000 C 
ENDROOT
BRANCH   1   2
ATOM      2  C   UNL     1       1.807   8.164  19.482  0.00  0.00    +0.000 C 
ATOM      3  O   UNL     1       2.215   8.613  18.408  0.00  0.00    +0.000 OA
ATOM      4  N   UNL     1       2.165   6.927  19.994  0.00  0.00    +0.000 N 
ATOM      5  H   UNL     1       1.589   6.598  20.763  0.00  0.00    +0.000 HD
BRANCH   4   6
ATOM      6  C   UNL     1       2.844   5.919  19.262  0.00  0.00    +0.000 A 
ATOM      7  C   UNL     1       2.178   5.041  18.401  0.00  0.00    +0.000 A 
ATOM      8  C   UNL     1       2.853   3.989  17.791  0.00  0.00    +0.000 A 
ATOM      9  C   UNL     1       4.212   3.815  18.024  0.00  0.00    +0.000 A 
ATOM     10  C   UNL     1       4.910   4.701  18.848  0.00  0.00    +0.000 A 
ATOM     11  C   UNL     1       4.229   5.765  19.454  0.00  0.00    +0.000 A 
BRANCH  10  12
ATOM     12  O   UNL     1       6.235   4.389  18.989  0.00  0.00    +0.000 OA
ATOM     13  C   UNL     1       7.151   5.462  19.140  0.00  0.00    +0.000 C 
ENDBRANCH  10  12
ENDBRANCH   4   6
ENDBRANCH   1   2
BRANCH   1  15
ATOM     14  C   UNL     1       0.292   9.400  22.867  0.00  0.00    +0.000 C 
ATOM     15  C   UNL     1       1.258   8.834  21.839  0.00  0.00    +0.000 C 
ENDBRANCH   1  15
BRANCH   1  16
ATOM     16  S   UNL     1       0.817  10.810  19.856  0.00  0.00    +0.000 S 
BRANCH  16  17
ATOM     17  C   UNL     1      -0.674  10.844  18.965  0.00  0.00    +0.000 A 
ATOM     18  N   UNL     1      -0.796  10.148  17.879  0.00  0.00    +0.000 NA
ATOM     19  N   UNL     1      -2.018  10.149  17.153  0.00  0.00    +0.000 NA
ATOM     20  C   UNL     1      -3.025  10.829  17.602  0.00  0.00    +0.000 A 
ATOM     21  N   UNL     1      -2.922  11.545  18.777  0.00  0.00    +0.000 N 
ATOM     22  C   UNL     1      -1.764  11.593  19.505  0.00  0.00    +0.000 A 
ATOM     23  C   UNL     1      -1.958  12.373  20.627  0.00  0.00    +0.000 A 
ATOM     24  C   UNL     1      -3.323  12.784  20.571  0.00  0.00    +0.000 A 
ATOM     25  S   UNL     1      -4.457  13.706  21.499  0.00  0.00    +0.000 S 
ATOM     26  C   UNL     1      -5.680  13.371  20.337  0.00  0.00    +0.000 A 
ATOM     27  C   UNL     1      -5.255  12.612  19.267  0.00  0.00    +0.000 A 
ATOM     28  C   UNL     1      -3.884  12.272  19.435  0.00  0.00    +0.000 A 
ENDBRANCH  16  17
ENDBRANCH   1  16
TORSDOF 6
ENDMDL
MODEL 7
REMARK VINA RESULT:      -7.2      3.322      4.888
REMARK  Name = 
REMARK  8 active torsions:
REMARK  status: ('A' for Active; 'I' for Inactive)
REMARK    1  A    between atoms: C_1  and  C_2
REMARK    2  A    between atoms: C_2  and  C_3
REMARK    3  A    between atoms: C_3  and  S_4
REMARK    4  A    between atoms: C_3  and  C_17
REMARK    5  A    between atoms: S_4  and  C_5
REMARK    6  A    between atoms: N_19  and  C_20
REMARK    7  A    between atoms: C_24  and  O_25
REMARK    8  A    between atoms: O_25  and  C_26
REMARK                            x       y       z     vdW  Elec       q    Type
REMARK                         _______ _______ _______ _____ _____    ______ ____
ROOT
ATOM      1  C   UNL     1       0.970   8.975  20.225  0.00  0.00    +0.000 C 
ENDROOT
BRANCH   1   2
ATOM      2  C   UNL     1       1.904   8.124  19.340  0.00  0.00    +0.000 C 
ATOM      3  O   UNL     1       2.305   8.603  18.276  0.00  0.00    +0.000 OA
ATOM      4  N   UNL     1       2.285   6.885  19.827  0.00  0.00    +0.000 N 
ATOM      5  H   UNL     1       1.715   6.529  20.589  0.00  0.00    +0.000 HD
BRANCH   4   6
ATOM      6  C   UNL     1       2.987   5.906  19.077  0.00  0.00    +0.000 A 
ATOM      7  C   UNL     1       2.357   5.097  18.126  0.00  0.00    +0.000 A 
ATOM      8  C   UNL     1       3.046   4.067  17.495  0.00  0.00    +0.000 A 
ATOM      9  C   UNL     1       4.384   3.846  17.797  0.00  0.00    +0.000 A 
ATOM     10  C   UNL     1       5.049   4.665  18.713  0.00  0.00    +0.000 A 
ATOM     11  C   UNL     1       4.354   5.707  19.341  0.00  0.00    +0.000 A 
BRANCH  10  12
ATOM     12  O   UNL     1       6.356   4.314  18.913  0.00  0.00    +0.000 OA
ATOM     13  C   UNL     1       7.338   4.939  18.102  0.00  0.00    +0.000 C 
ENDBRANCH  10  12
ENDBRANCH   4   6
ENDBRANCH   1   2
BRANCH   1  15
ATOM     14  C   UNL     1       1.066   9.353  22.805  0.00  0.00    +0.000 C 
ATOM     15  C   UNL     1       0.950   8.373  21.649  0.00  0.00    +0.000 C 
ENDBRANCH   1  15
BRANCH   1  16
ATOM     16  S   UNL     1       1.287  10.775  20.184  0.00  0.00    +0.000 S 
BRANCH  16  17
ATOM     17  C   UNL     1      -0.333  11.401  20.150  0.00  0.00    +0.000 A 
ATOM     18  N   UNL     1      -0.755  12.159  21.111  0.00  0.00    +0.000 NA
ATOM     19  N   UNL     1      -2.071  12.697  21.084  0.00  0.00    +0.000 NA
ATOM     20  C   UNL     1      -2.839  12.448  20.071  0.00  0.00    +0.000 A 
ATOM     21  N   UNL     1      -2.391  11.674  19.021  0.00  0.00    +0.000 N 
ATOM     22  C   UNL     1      -1.140  11.117  19.006  0.00  0.00    +0.000 A 
ATOM     23  C   UNL     1      -0.968  10.407  17.835  0.00  0.00    +0.000 A 
ATOM     24  C   UNL     1      -2.181  10.581  17.104  0.00  0.00    +0.000 A 
ATOM     25  S   UNL     1      -2.875  10.130  15.583  0.00  0.00    +0.000 S 
ATOM     26  C   UNL     1      -4.303  11.005  15.977  0.00  0.00    +0.000 A 
ATOM     27  C   UNL     1      -4.280  11.601  17.220  0.00  0.00    +0.000 A 
ATOM     28  C   UNL     1      -3.029  11.351  17.849  0.00  0.00    +0.000 A 
ENDBRANCH  16  17
ENDBRANCH   1  16
TORSDOF 6
ENDMDL
MODEL 8
REMARK VINA RESULT:      -7.1      3.274      4.886
REMARK  Name = 
REMARK  8 active torsions:
REMARK  status: ('A' for Active; 'I' for Inactive)
REMARK    1  A    between atoms: C_1  and  C_2
REMARK    2  A    between atoms: C_2  and  C_3
REMARK    3  A    between atoms: C_3  and  S_4
REMARK    4  A    between atoms: C_3  and  C_17
REMARK    5  A    between atoms: S_4  and  C_5
REMARK    6  A    between atoms: N_19  and  C_20
REMARK    7  A    between atoms: C_24  and  O_25
REMARK    8  A    between atoms: O_25  and  C_26
REMARK                            x       y       z     vdW  Elec       q    Type
REMARK                         _______ _______ _______ _____ _____    ______ ____
ROOT
ATOM      1  C   UNL     1       0.945   9.427  19.462  0.00  0.00    +0.000 C 
ENDROOT
BRANCH   1   2
ATOM      2  C   UNL     1       1.815   8.573  18.518  0.00  0.00    +0.000 C 
ATOM      3  O   UNL     1       2.074   9.014  17.395  0.00  0.00    +0.000 OA
ATOM      4  N   UNL     1       2.305   7.376  19.015  0.00  0.00    +0.000 N 
ATOM      5  H   UNL     1       1.839   7.035  19.850  0.00  0.00    +0.000 HD
BRANCH   4   6
ATOM      6  C   UNL     1       2.965   6.391  18.236  0.00  0.00    +0.000 A 
ATOM      7  C   UNL     1       2.416   5.126  18.006  0.00  0.00    +0.000 A 
ATOM      8  C   UNL     1       3.141   4.143  17.340  0.00  0.00    +0.000 A 
ATOM      9  C   UNL     1       4.422   4.423  16.880  0.00  0.00    +0.000 A 
ATOM     10  C   UNL     1       4.979   5.691  17.062  0.00  0.00    +0.000 A 
ATOM     11  C   UNL     1       4.243   6.682  17.725  0.00  0.00    +0.000 A 
BRANCH  10  12
ATOM     12  O   UNL     1       6.249   5.806  16.567  0.00  0.00    +0.000 OA
ATOM     13  C   UNL     1       7.089   4.664  16.633  0.00  0.00    +0.000 C 
ENDBRANCH  10  12
ENDBRANCH   4   6
ENDBRANCH   1   2
BRANCH   1  15
ATOM     14  C   UNL     1      -0.155   8.569  21.668  0.00  0.00    +0.000 C 
ATOM     15  C   UNL     1       1.118   8.904  20.907  0.00  0.00    +0.000 C 
ENDBRANCH   1  15
BRANCH   1  16
ATOM     16  S   UNL     1       1.161  11.235  19.296  0.00  0.00    +0.000 S 
BRANCH  16  17
ATOM     17  C   UNL     1      -0.297  11.818  20.039  0.00  0.00    +0.000 A 
ATOM     18  N   UNL     1      -0.250  12.387  21.201  0.00  0.00    +0.000 NA
ATOM     19  N   UNL     1      -1.432  12.889  21.810  0.00  0.00    +0.000 NA
ATOM     20  C   UNL     1      -2.560  12.801  21.179  0.00  0.00    +0.000 A 
ATOM     21  N   UNL     1      -2.621  12.232  19.923  0.00  0.00    +0.000 N 
ATOM     22  C   UNL     1      -1.516  11.716  19.300  0.00  0.00    +0.000 A 
ATOM     23  C   UNL     1      -1.875  11.224  18.062  0.00  0.00    +0.000 A 
ATOM     24  C   UNL     1      -3.270  11.493  17.938  0.00  0.00    +0.000 A 
ATOM     25  S   UNL     1      -4.549  11.295  16.787  0.00  0.00    +0.000 S 
ATOM     26  C   UNL     1      -5.644  12.054  17.875  0.00  0.00    +0.000 A 
ATOM     27  C   UNL     1      -5.084  12.425  19.079  0.00  0.00    +0.000 A 
ATOM     28  C   UNL     1      -3.699  12.101  19.084  0.00  0.00    +0.000 A 
ENDBRANCH  16  17
ENDBRANCH   1  16
TORSDOF 6
ENDMDL
MODEL 9
REMARK VINA RESULT:      -7.1      3.120      8.000
REMARK  Name = 
REMARK  8 active torsions:
REMARK  status: ('A' for Active; 'I' for Inactive)
REMARK    1  A    between atoms: C_1  and  C_2
REMARK    2  A    between atoms: C_2  and  C_3
REMARK    3  A    between atoms: C_3  and  S_4
REMARK    4  A    between atoms: C_3  and  C_17
REMARK    5  A    between atoms: S_4  and  C_5
REMARK    6  A    between atoms: N_19  and  C_20
REMARK    7  A    between atoms: C_24  and  O_25
REMARK    8  A    between atoms: O_25  and  C_26
REMARK                            x       y       z     vdW  Elec       q    Type
REMARK                         _______ _______ _______ _____ _____    ______ ____
ROOT
ATOM      1  C   UNL     1       3.311   4.974  19.925  0.00  0.00    +0.000 C 
ENDROOT
BRANCH   1   2
ATOM      2  C   UNL     1       2.478   6.167  19.416  0.00  0.00    +0.000 C 
ATOM      3  O   UNL     1       2.147   6.191  18.228  0.00  0.00    +0.000 OA
ATOM      4  N   UNL     1       2.099   7.121  20.347  0.00  0.00    +0.000 N 
ATOM      5  H   UNL     1       2.619   7.099  21.219  0.00  0.00    +0.000 HD
BRANCH   4   6
ATOM      6  C   UNL     1       1.490   8.361  20.027  0.00  0.00    +0.000 A 
ATOM      7  C   UNL     1       1.626   8.960  18.770  0.00  0.00    +0.000 A 
ATOM      8  C   UNL     1       1.118  10.232  18.526  0.00  0.00    +0.000 A 
ATOM      9  C   UNL     1       0.450  10.913  19.536  0.00  0.00    +0.000 A 
ATOM     10  C   UNL     1       0.266  10.322  20.788  0.00  0.00    +0.000 A 
ATOM     11  C   UNL     1       0.771   9.038  21.029  0.00  0.00    +0.000 A 
BRANCH  10  12
ATOM     12  O   UNL     1      -0.397  11.122  21.679  0.00  0.00    +0.000 OA
ATOM     13  C   UNL     1      -0.717  10.572  22.947  0.00  0.00    +0.000 C 
ENDBRANCH  10  12
ENDBRANCH   4   6
ENDBRANCH   1   2
BRANCH   1  15
ATOM     14  C   UNL     1       1.477   3.257  20.632  0.00  0.00    +0.000 C 
ATOM     15  C   UNL     1       2.530   4.269  21.057  0.00  0.00    +0.000 C 
ENDBRANCH   1  15
BRANCH   1  16
ATOM     16  S   UNL     1       3.922   3.841  18.626  0.00  0.00    +0.000 S 
BRANCH  16  17
ATOM     17  C   UNL     1       5.221   4.774  17.949  0.00  0.00    +0.000 A 
ATOM     18  N   UNL     1       5.909   5.571  18.703  0.00  0.00    +0.000 NA
ATOM     19  N   UNL     1       6.990   6.322  18.166  0.00  0.00    +0.000 NA
ATOM     20  C   UNL     1       7.303   6.182  16.917  0.00  0.00    +0.000 A 
ATOM     21  N   UNL     1       6.604   5.309  16.109  0.00  0.00    +0.000 N 
ATOM     22  C   UNL     1       5.544   4.576  16.571  0.00  0.00    +0.000 A 
ATOM     23  C   UNL     1       5.049   3.791  15.550  0.00  0.00    +0.000 A 
ATOM     24  C   UNL     1       5.887   4.057  14.427  0.00  0.00    +0.000 A 
ATOM     25  S   UNL     1       6.079   3.553  12.781  0.00  0.00    +0.000 S 
ATOM     26  C   UNL     1       7.432   4.604  12.618  0.00  0.00    +0.000 A 
ATOM     27  C   UNL     1       7.724   5.333  13.750  0.00  0.00    +0.000 A 
ATOM     28  C   UNL     1       6.820   4.986  14.792  0.00  0.00    +0.000 A 
ENDBRANCH  16  17
ENDBRANCH   1  16
TORSDOF 6
ENDMDL
