MODEL 1
REMARK VINA RESULT:      -8.1      0.000      0.000
REMARK  Name = 
REMARK  10 active torsions:
REMARK  status: ('A' for Active; 'I' for Inactive)
REMARK    1  A    between atoms: C_1  and  C_2
REMARK    2  A    between atoms: C_4  and  C_5
REMARK    3  A    between atoms: C_5  and  C_6
REMARK    4  A    between atoms: C_5  and  C_7
REMARK    5  A    between atoms: C_9  and  C_10
REMARK    6  A    between atoms: C_10  and  C_12
REMARK    7  A    between atoms: C_12  and  C_13
REMARK    8  A    between atoms: C_12  and  C_15
REMARK    9  A    between atoms: N_17  and  C_18
REMARK   10  A    between atoms: C_18  and  C_19
REMARK                            x       y       z     vdW  Elec       q    Type
REMARK                         _______ _______ _______ _____ _____    ______ ____
ROOT
ATOM      1  C   UNL     1       6.162   5.829  16.885  0.00  0.00    +0.000 C 
ENDROOT
BRANCH   1   2
ATOM      2  C   UNL     1       5.566   5.212  18.156  0.00  0.00    +0.000 C 
ATOM      3  O   UNL     1       5.334   5.931  19.128  0.00  0.00    +0.000 OA
ATOM      4  N   UNL     1       5.302   3.854  18.177  0.00  0.00    +0.000 N 
ATOM      5  H   UNL     1       5.446   3.272  17.362  0.00  0.00    +0.000 HD
BRANCH   4   6
ATOM      6  C   UNL     1       4.800   3.170  19.361  0.00  0.00    +0.000 C 
BRANCH   6   7
ATOM      7  C   UNL     1       3.290   3.169  19.428  0.00  0.00    +0.000 A 
ATOM      8  C   UNL     1       2.531   2.232  18.710  0.00  0.00    +0.000 A 
ATOM      9  C   UNL     1       1.136   2.215  18.813  0.00  0.00    +0.000 A 
ATOM     10  C   UNL     1       0.486   3.128  19.641  0.00  0.00    +0.000 A 
ATOM     11  C   UNL     1       1.232   4.057  20.367  0.00  0.00    +0.000 A 
ATOM     12  C   UNL     1       2.622   4.078  20.263  0.00  0.00    +0.000 A 
ENDBRANCH   6   7
ENDBRANCH   4   6
ENDBRANCH   1   2
BRANCH   1  13
ATOM     13  C   UNL     1       7.037   4.872  16.118  0.00  0.00    +0.000 C 
ATOM     14  O   UNL     1       8.050   4.410  16.650  0.00  0.00    +0.000 OA
BRANCH  13  20
ATOM     15  C   UNL     1       8.487   5.742  13.091  0.00  0.00    +0.000 C 
ATOM     16  C   UNL     1       7.362   4.878  13.519  0.00  0.00    +0.000 A 
ATOM     17  O   UNL     1       6.770   4.241  12.471  0.00  0.00    +0.000 OA
ATOM     18  C   UNL     1       5.791   3.436  12.950  0.00  0.00    +0.000 A 
ATOM     19  C   UNL     1       5.726   3.573  14.318  0.00  0.00    +0.000 A 
ATOM     20  C   UNL     1       6.756   4.501  14.714  0.00  0.00    +0.000 A 
BRANCH  18  21
ATOM     21  C   UNL     1       5.083   2.608  11.926  0.00  0.00    +0.000 C 
ATOM     22  C   UNL     1       4.239   3.483  10.999  0.00  0.00    +0.000 C 
ATOM     23  C   UNL     1       6.049   1.735  11.129  0.00  0.00    +0.000 C 
ENDBRANCH  18  21
ENDBRANCH  13  20
ENDBRANCH   1  13
BRANCH   1  24
ATOM     24  C   UNL     1       6.908   7.053  17.167  0.00  0.00    +0.000 C 
ATOM     25  N   UNL     1       7.492   8.026  17.405  0.00  0.00    +0.000 NA
ENDBRANCH   1  24
TORSDOF 7
ENDMDL
MODEL 2
REMARK VINA RESULT:      -7.9      3.391      7.842
REMARK  Name = 
REMARK  10 active torsions:
REMARK  status: ('A' for Active; 'I' for Inactive)
REMARK    1  A    between atoms: C_1  and  C_2
REMARK    2  A    between atoms: C_4  and  C_5
REMARK    3  A    between atoms: C_5  and  C_6
REMARK    4  A    between atoms: C_5  and  C_7
REMARK    5  A    between atoms: C_9  and  C_10
REMARK    6  A    between atoms: C_10  and  C_12
REMARK    7  A    between atoms: C_12  and  C_13
REMARK    8  A    between atoms: C_12  and  C_15
REMARK    9  A    between atoms: N_17  and  C_18
REMARK   10  A    between atoms: C_18  and  C_19
REMARK                            x       y       z     vdW  Elec       q    Type
REMARK                         _______ _______ _______ _____ _____    ______ ____
ROOT
ATOM      1  C   UNL     1       7.609   5.712  17.976  0.00  0.00    +0.000 C 
ENDROOT
BRANCH   1   2
ATOM      2  C   UNL     1       7.469   7.181  17.560  0.00  0.00    +0.000 C 
ATOM      3  O   UNL     1       6.746   7.476  16.608  0.00  0.00    +0.000 OA
ATOM      4  N   UNL     1       8.161   8.144  18.272  0.00  0.00    +0.000 N 
ATOM      5  H   UNL     1       8.716   7.909  19.085  0.00  0.00    +0.000 HD
BRANCH   4   6
ATOM      6  C   UNL     1       8.142   9.554  17.908  0.00  0.00    +0.000 C 
BRANCH   6   7
ATOM      7  C   UNL     1       9.230  10.342  18.601  0.00  0.00    +0.000 A 
ATOM      8  C   UNL     1      10.261  10.954  17.871  0.00  0.00    +0.000 A 
ATOM      9  C   UNL     1      11.239  11.715  18.520  0.00  0.00    +0.000 A 
ATOM     10  C   UNL     1      11.192  11.880  19.902  0.00  0.00    +0.000 A 
ATOM     11  C   UNL     1      10.165  11.285  20.636  0.00  0.00    +0.000 A 
ATOM     12  C   UNL     1       9.191  10.523  19.991  0.00  0.00    +0.000 A 
ENDBRANCH   6   7
ENDBRANCH   4   6
ENDBRANCH   1   2
BRANCH   1  13
ATOM     13  C   UNL     1       6.478   4.847  17.483  0.00  0.00    +0.000 C 
ATOM     14  O   UNL     1       6.631   4.164  16.466  0.00  0.00    +0.000 OA
BRANCH  13  20
ATOM     15  C   UNL     1       3.811   7.060  17.553  0.00  0.00    +0.000 C 
ATOM     16  C   UNL     1       4.109   5.739  18.154  0.00  0.00    +0.000 A 
ATOM     17  O   UNL     1       3.070   5.258  18.889  0.00  0.00    +0.000 OA
ATOM     18  C   UNL     1       3.402   4.031  19.358  0.00  0.00    +0.000 A 
ATOM     19  C   UNL     1       4.680   3.725  18.950  0.00  0.00    +0.000 A 
ATOM     20  C   UNL     1       5.157   4.824  18.147  0.00  0.00    +0.000 A 
BRANCH  18  21
ATOM     21  C   UNL     1       2.333   3.330  20.135  0.00  0.00    +0.000 C 
ATOM     22  C   UNL     1       2.910   2.661  21.383  0.00  0.00    +0.000 C 
ATOM     23  C   UNL     1       1.182   4.265  20.496  0.00  0.00    +0.000 C 
ENDBRANCH  18  21
ENDBRANCH  13  20
ENDBRANCH   1  13
BRANCH   1  24
ATOM     24  C   UNL     1       7.743   5.562  19.422  0.00  0.00    +0.000 C 
ATOM     25  N   UNL     1       7.845   5.458  20.573  0.00  0.00    +0.000 NA
ENDBRANCH   1  24
TORSDOF 7
ENDMDL
MODEL 3
REMARK VINA RESULT:      -7.9      3.490      7.890
REMARK  Name = 
REMARK  10 active torsions:
REMARK  status: ('A' for Active; 'I' for Inactive)
REMARK    1  A    between atoms: C_1  and  C_2
REMARK    2  A    between atoms: C_4  and  C_5
REMARK    3  A    between atoms: C_5  and  C_6
REMARK    4  A    between atoms: C_5  and  C_7
REMARK    5  A    between atoms: C_9  and  C_10
REMARK    6  A    between atoms: C_10  and  C_12
REMARK    7  A    between atoms: C_12  and  C_13
REMARK    8  A    between atoms: C_12  and  C_15
REMARK    9  A    between atoms: N_17  and  C_18
REMARK   10  A    between atoms: C_18  and  C_19
REMARK                            x       y       z     vdW  Elec       q    Type
REMARK                         _______ _______ _______ _____ _____    ______ ____
ROOT
ATOM      1  C   UNL     1       7.459   5.696  17.982  0.00  0.00    +0.000 C 
ENDROOT
BRANCH   1   2
ATOM      2  C   UNL     1       7.366   7.150  17.505  0.00  0.00    +0.000 C 
ATOM      3  O   UNL     1       6.654   7.428  16.540  0.00  0.00    +0.000 OA
ATOM      4  N   UNL     1       8.088   8.119  18.179  0.00  0.00    +0.000 N 
ATOM      5  H   UNL     1       8.634   7.900  19.002  0.00  0.00    +0.000 HD
BRANCH   4   6
ATOM      6  C   UNL     1       8.115   9.513  17.757  0.00  0.00    +0.000 C 
BRANCH   6   7
ATOM      7  C   UNL     1       9.141  10.324  18.514  0.00  0.00    +0.000 A 
ATOM      8  C   UNL     1       9.133  10.380  19.917  0.00  0.00    +0.000 A 
ATOM      9  C   UNL     1      10.113  11.100  20.607  0.00  0.00    +0.000 A 
ATOM     10  C   UNL     1      11.116  11.763  19.906  0.00  0.00    +0.000 A 
ATOM     11  C   UNL     1      11.141  11.704  18.512  0.00  0.00    +0.000 A 
ATOM     12  C   UNL     1      10.163  10.990  17.821  0.00  0.00    +0.000 A 
ENDBRANCH   6   7
ENDBRANCH   4   6
ENDBRANCH   1   2
BRANCH   1  13
ATOM     13  C   UNL     1       6.234   4.885  17.647  0.00  0.00    +0.000 C 
ATOM     14  O   UNL     1       6.257   4.114  16.684  0.00  0.00    +0.000 OA
BRANCH  13  20
ATOM     15  C   UNL     1       3.679   7.228  17.624  0.00  0.00    +0.000 C 
ATOM     16  C   UNL     1       3.968   5.981  18.370  0.00  0.00    +0.000 A 
ATOM     17  O   UNL     1       2.971   5.653  19.236  0.00  0.00    +0.000 OA
ATOM     18  C   UNL     1       3.286   4.480  19.837  0.00  0.00    +0.000 A 
ATOM     19  C   UNL     1       4.513   4.057  19.378  0.00  0.00    +0.000 A 
ATOM     20  C   UNL     1       4.971   5.017  18.405  0.00  0.00    +0.000 A 
BRANCH  18  21
ATOM     21  C   UNL     1       2.255   3.941  20.776  0.00  0.00    +0.000 C 
ATOM     22  C   UNL     1       0.934   3.682  20.052  0.00  0.00    +0.000 C 
ATOM     23  C   UNL     1       2.740   2.688  21.501  0.00  0.00    +0.000 C 
ENDBRANCH  18  21
ENDBRANCH  13  20
ENDBRANCH   1  13
BRANCH   1  24
ATOM     24  C   UNL     1       7.729   5.604  19.414  0.00  0.00    +0.000 C 
ATOM     25  N   UNL     1       7.943   5.515  20.550  0.00  0.00    +0.000 NA
ENDBRANCH   1  24
TORSDOF 7
ENDMDL
MODEL 4
REMARK VINA RESULT:      -7.7      1.095      1.340
REMARK  Name = 
REMARK  10 active torsions:
REMARK  status: ('A' for Active; 'I' for Inactive)
REMARK    1  A    between atoms: C_1  and  C_2
REMARK    2  A    between atoms: C_4  and  C_5
REMARK    3  A    between atoms: C_5  and  C_6
REMARK    4  A    between atoms: C_5  and  C_7
REMARK    5  A    between atoms: C_9  and  C_10
REMARK    6  A    between atoms: C_10  and  C_12
REMARK    7  A    between atoms: C_12  and  C_13
REMARK    8  A    between atoms: C_12  and  C_15
REMARK    9  A    between atoms: N_17  and  C_18
REMARK   10  A    between atoms: C_18  and  C_19
REMARK                            x       y       z     vdW  Elec       q    Type
REMARK                         _______ _______ _______ _____ _____    ______ ____
ROOT
ATOM      1  C   UNL     1       6.302   6.435  16.763  0.00  0.00    +0.000 C 
ENDROOT
BRANCH   1   2
ATOM      2  C   UNL     1       5.308   6.158  17.898  0.00  0.00    +0.000 C 
ATOM      3  O   UNL     1       5.723   5.732  18.976  0.00  0.00    +0.000 OA
ATOM      4  N   UNL     1       3.964   6.398  17.680  0.00  0.00    +0.000 N 
ATOM      5  H   UNL     1       3.628   6.795  16.812  0.00  0.00    +0.000 HD
BRANCH   4   6
ATOM      6  C   UNL     1       2.942   6.101  18.675  0.00  0.00    +0.000 C 
BRANCH   6   7
ATOM      7  C   UNL     1       2.436   4.681  18.573  0.00  0.00    +0.000 A 
ATOM      8  C   UNL     1       2.890   3.818  17.563  0.00  0.00    +0.000 A 
ATOM      9  C   UNL     1       2.445   2.493  17.505  0.00  0.00    +0.000 A 
ATOM     10  C   UNL     1       1.551   2.014  18.459  0.00  0.00    +0.000 A 
ATOM     11  C   UNL     1       1.102   2.860  19.474  0.00  0.00    +0.000 A 
ATOM     12  C   UNL     1       1.541   4.182  19.532  0.00  0.00    +0.000 A 
ENDBRANCH   6   7
ENDBRANCH   4   6
ENDBRANCH   1   2
BRANCH   1  13
ATOM     13  C   UNL     1       6.955   5.186  16.232  0.00  0.00    +0.000 C 
ATOM     14  O   UNL     1       7.730   4.549  16.952  0.00  0.00    +0.000 OA
BRANCH  13  20
ATOM     15  C   UNL     1       8.593   5.795  13.237  0.00  0.00    +0.000 C 
ATOM     16  C   UNL     1       7.426   4.988  13.663  0.00  0.00    +0.000 A 
ATOM     17  O   UNL     1       6.879   4.285  12.633  0.00  0.00    +0.000 OA
ATOM     18  C   UNL     1       5.856   3.538  13.114  0.00  0.00    +0.000 A 
ATOM     19  C   UNL     1       5.717   3.780  14.461  0.00  0.00    +0.000 A 
ATOM     20  C   UNL     1       6.745   4.715  14.846  0.00  0.00    +0.000 A 
BRANCH  18  21
ATOM     21  C   UNL     1       5.186   2.649  12.115  0.00  0.00    +0.000 C 
ATOM     22  C   UNL     1       4.208   3.438  11.244  0.00  0.00    +0.000 C 
ATOM     23  C   UNL     1       6.196   1.890  11.258  0.00  0.00    +0.000 C 
ENDBRANCH  18  21
ENDBRANCH  13  20
ENDBRANCH   1  13
BRANCH   1  24
ATOM     24  C   UNL     1       7.330   7.395  17.156  0.00  0.00    +0.000 C 
ATOM     25  N   UNL     1       8.136   8.169  17.468  0.00  0.00    +0.000 NA
ENDBRANCH   1  24
TORSDOF 7
ENDMDL
MODEL 5
REMARK VINA RESULT:      -7.6      1.267      1.575
REMARK  Name = 
REMARK  10 active torsions:
REMARK  status: ('A' for Active; 'I' for Inactive)
REMARK    1  A    between atoms: C_1  and  C_2
REMARK    2  A    between atoms: C_4  and  C_5
REMARK    3  A    between atoms: C_5  and  C_6
REMARK    4  A    between atoms: C_5  and  C_7
REMARK    5  A    between atoms: C_9  and  C_10
REMARK    6  A    between atoms: C_10  and  C_12
REMARK    7  A    between atoms: C_12  and  C_13
REMARK    8  A    between atoms: C_12  and  C_15
REMARK    9  A    between atoms: N_17  and  C_18
REMARK   10  A    between atoms: C_18  and  C_19
REMARK                            x       y       z     vdW  Elec       q    Type
REMARK                         _______ _______ _______ _____ _____    ______ ____
ROOT
ATOM      1  C   UNL     1       5.942   5.155  17.285  0.00  0.00    +0.000 C 
ENDROOT
BRANCH   1   2
ATOM      2  C   UNL     1       4.665   4.307  17.325  0.00  0.00    +0.000 C 
ATOM      3  O   UNL     1       3.593   4.809  16.983  0.00  0.00    +0.000 OA
ATOM      4  N   UNL     1       4.751   2.992  17.744  0.00  0.00    +0.000 N 
ATOM      5  H   UNL     1       5.638   2.565  17.978  0.00  0.00    +0.000 HD
BRANCH   4   6
ATOM      6  C   UNL     1       3.582   2.133  17.879  0.00  0.00    +0.000 C 
BRANCH   6   7
ATOM      7  C   UNL     1       2.778   2.446  19.120  0.00  0.00    +0.000 A 
ATOM      8  C   UNL     1       3.379   2.469  20.388  0.00  0.00    +0.000 A 
ATOM      9  C   UNL     1       2.633   2.800  21.524  0.00  0.00    +0.000 A 
ATOM     10  C   UNL     1       1.283   3.120  21.404  0.00  0.00    +0.000 A 
ATOM     11  C   UNL     1       0.679   3.110  20.146  0.00  0.00    +0.000 A 
ATOM     12  C   UNL     1       1.419   2.777  19.013  0.00  0.00    +0.000 A 
ENDBRANCH   6   7
ENDBRANCH   4   6
ENDBRANCH   1   2
BRANCH   1  13
ATOM     13  C   UNL     1       6.985   4.608  16.346  0.00  0.00    +0.000 C 
ATOM     14  O   UNL     1       8.130   4.399  16.760  0.00  0.00    +0.000 OA
BRANCH  13  20
ATOM     15  C   UNL     1       8.425   5.745  13.405  0.00  0.00    +0.000 C 
ATOM     16  C   UNL     1       7.306   4.840  13.758  0.00  0.00    +0.000 A 
ATOM     17  O   UNL     1       6.717   4.293  12.659  0.00  0.00    +0.000 OA
ATOM     18  C   UNL     1       5.744   3.443  13.068  0.00  0.00    +0.000 A 
ATOM     19  C   UNL     1       5.679   3.462  14.442  0.00  0.00    +0.000 A 
ATOM     20  C   UNL     1       6.705   4.358  14.916  0.00  0.00    +0.000 A 
BRANCH  18  21
ATOM     21  C   UNL     1       5.038   2.703  11.976  0.00  0.00    +0.000 C 
ATOM     22  C   UNL     1       4.235   3.658  11.094  0.00  0.00    +0.000 C 
ATOM     23  C   UNL     1       6.001   1.862  11.142  0.00  0.00    +0.000 C 
ENDBRANCH  18  21
ENDBRANCH  13  20
ENDBRANCH   1  13
BRANCH   1  24
ATOM     24  C   UNL     1       6.525   5.331  18.613  0.00  0.00    +0.000 C 
ATOM     25  N   UNL     1       6.977   5.483  19.670  0.00  0.00    +0.000 NA
ENDBRANCH   1  24
TORSDOF 7
ENDMDL
MODEL 6
REMARK VINA RESULT:      -7.5      1.765      2.445
REMARK  Name = 
REMARK  10 active torsions:
REMARK  status: ('A' for Active; 'I' for Inactive)
REMARK    1  A    between atoms: C_1  and  C_2
REMARK    2  A    between atoms: C_4  and  C_5
REMARK    3  A    between atoms: C_5  and  C_6
REMARK    4  A    between atoms: C_5  and  C_7
REMARK    5  A    between atoms: C_9  and  C_10
REMARK    6  A    between atoms: C_10  and  C_12
REMARK    7  A    between atoms: C_12  and  C_13
REMARK    8  A    between atoms: C_12  and  C_15
REMARK    9  A    between atoms: N_17  and  C_18
REMARK   10  A    between atoms: C_18  and  C_19
REMARK                            x       y       z     vdW  Elec       q    Type
REMARK                         _______ _______ _______ _____ _____    ______ ____
ROOT
ATOM      1  C   UNL     1       7.111   5.882  18.163  0.00  0.00    +0.000 C 
ENDROOT
BRANCH   1   2
ATOM      2  C   UNL     1       5.626   6.251  18.067  0.00  0.00    +0.000 C 
ATOM      3  O   UNL     1       5.239   6.976  17.150  0.00  0.00    +0.000 OA
ATOM      4  N   UNL     1       4.754   5.756  19.020  0.00  0.00    +0.000 N 
ATOM      5  H   UNL     1       5.062   5.121  19.745  0.00  0.00    +0.000 HD
BRANCH   4   6
ATOM      6  C   UNL     1       3.341   6.108  19.048  0.00  0.00    +0.000 C 
BRANCH   6   7
ATOM      7  C   UNL     1       2.472   4.963  19.515  0.00  0.00    +0.000 A 
ATOM      8  C   UNL     1       1.710   4.211  18.606  0.00  0.00    +0.000 A 
ATOM      9  C   UNL     1       0.943   3.128  19.045  0.00  0.00    +0.000 A 
ATOM     10  C   UNL     1       0.935   2.778  20.393  0.00  0.00    +0.000 A 
ATOM     11  C   UNL     1       1.697   3.512  21.303  0.00  0.00    +0.000 A 
ATOM     12  C   UNL     1       2.460   4.594  20.869  0.00  0.00    +0.000 A 
ENDBRANCH   6   7
ENDBRANCH   4   6
ENDBRANCH   1   2
BRANCH   1  13
ATOM     13  C   UNL     1       7.475   4.677  17.335  0.00  0.00    +0.000 C 
ATOM     14  O   UNL     1       8.452   3.992  17.650  0.00  0.00    +0.000 OA
BRANCH  13  20
ATOM     15  C   UNL     1       4.400   3.174  16.782  0.00  0.00    +0.000 C 
ATOM     16  C   UNL     1       5.493   3.698  15.930  0.00  0.00    +0.000 A 
ATOM     17  O   UNL     1       5.209   3.596  14.603  0.00  0.00    +0.000 OA
ATOM     18  C   UNL     1       6.230   4.141  13.898  0.00  0.00    +0.000 A 
ATOM     19  C   UNL     1       7.199   4.574  14.774  0.00  0.00    +0.000 A 
ATOM     20  C   UNL     1       6.730   4.308  16.111  0.00  0.00    +0.000 A 
BRANCH  18  21
ATOM     21  C   UNL     1       6.042   4.169  12.415  0.00  0.00    +0.000 C 
ATOM     22  C   UNL     1       7.352   4.503  11.701  0.00  0.00    +0.000 C 
ATOM     23  C   UNL     1       5.446   2.866  11.889  0.00  0.00    +0.000 C 
ENDBRANCH  18  21
ENDBRANCH  13  20
ENDBRANCH   1  13
BRANCH   1  24
ATOM     24  C   UNL     1       7.536   5.670  19.544  0.00  0.00    +0.000 C 
ATOM     25  N   UNL     1       7.889   5.501  20.636  0.00  0.00    +0.000 NA
ENDBRANCH   1  24
TORSDOF 7
ENDMDL
MODEL 7
REMARK VINA RESULT:      -7.5      1.239      1.656
REMARK  Name = 
REMARK  10 active torsions:
REMARK  status: ('A' for Active; 'I' for Inactive)
REMARK    1  A    between atoms: C_1  and  C_2
REMARK    2  A    between atoms: C_4  and  C_5
REMARK    3  A    between atoms: C_5  and  C_6
REMARK    4  A    between atoms: C_5  and  C_7
REMARK    5  A    between atoms: C_9  and  C_10
REMARK    6  A    between atoms: C_10  and  C_12
REMARK    7  A    between atoms: C_12  and  C_13
REMARK    8  A    between atoms: C_12  and  C_15
REMARK    9  A    between atoms: N_17  and  C_18
REMARK   10  A    between atoms: C_18  and  C_19
REMARK                            x       y       z     vdW  Elec       q    Type
REMARK                         _______ _______ _______ _____ _____    ______ ____
ROOT
ATOM      1  C   UNL     1       6.614   5.981  16.935  0.00  0.00    +0.000 C 
ENDROOT
BRANCH   1   2
ATOM      2  C   UNL     1       5.081   5.934  16.940  0.00  0.00    +0.000 C 
ATOM      3  O   UNL     1       4.443   6.915  16.560  0.00  0.00    +0.000 OA
ATOM      4  N   UNL     1       4.452   4.780  17.372  0.00  0.00    +0.000 N 
ATOM      5  H   UNL     1       4.976   3.956  17.637  0.00  0.00    +0.000 HD
BRANCH   4   6
ATOM      6  C   UNL     1       3.004   4.667  17.475  0.00  0.00    +0.000 C 
BRANCH   6   7
ATOM      7  C   UNL     1       2.561   4.157  18.827  0.00  0.00    +0.000 A 
ATOM      8  C   UNL     1       2.655   4.960  19.974  0.00  0.00    +0.000 A 
ATOM      9  C   UNL     1       2.204   4.491  21.212  0.00  0.00    +0.000 A 
ATOM     10  C   UNL     1       1.646   3.219  21.315  0.00  0.00    +0.000 A 
ATOM     11  C   UNL     1       1.538   2.416  20.179  0.00  0.00    +0.000 A 
ATOM     12  C   UNL     1       1.990   2.880  18.945  0.00  0.00    +0.000 A 
ENDBRANCH   6   7
ENDBRANCH   4   6
ENDBRANCH   1   2
BRANCH   1  13
ATOM     13  C   UNL     1       7.239   4.833  16.187  0.00  0.00    +0.000 C 
ATOM     14  O   UNL     1       8.114   4.154  16.731  0.00  0.00    +0.000 OA
BRANCH  13  20
ATOM     15  C   UNL     1       8.510   5.825  13.118  0.00  0.00    +0.000 C 
ATOM     16  C   UNL     1       7.414   4.940  13.576  0.00  0.00    +0.000 A 
ATOM     17  O   UNL     1       6.765   4.341  12.540  0.00  0.00    +0.000 OA
ATOM     18  C   UNL     1       5.817   3.513  13.043  0.00  0.00    +0.000 A 
ATOM     19  C   UNL     1       5.830   3.597  14.416  0.00  0.00    +0.000 A 
ATOM     20  C   UNL     1       6.879   4.515  14.788  0.00  0.00    +0.000 A 
BRANCH  18  21
ATOM     21  C   UNL     1       5.054   2.721  12.029  0.00  0.00    +0.000 C 
ATOM     22  C   UNL     1       4.229   3.637  11.124  0.00  0.00    +0.000 C 
ATOM     23  C   UNL     1       5.965   1.813  11.209  0.00  0.00    +0.000 C 
ENDBRANCH  18  21
ENDBRANCH  13  20
ENDBRANCH   1  13
BRANCH   1  24
ATOM     24  C   UNL     1       7.165   6.041  18.286  0.00  0.00    +0.000 C 
ATOM     25  N   UNL     1       7.591   6.099  19.363  0.00  0.00    +0.000 NA
ENDBRANCH   1  24
TORSDOF 7
ENDMDL
MODEL 8
REMARK VINA RESULT:      -7.5      3.275      4.744
REMARK  Name = 
REMARK  10 active torsions:
REMARK  status: ('A' for Active; 'I' for Inactive)
REMARK    1  A    between atoms: C_1  and  C_2
REMARK    2  A    between atoms: C_4  and  C_5
REMARK    3  A    between atoms: C_5  and  C_6
REMARK    4  A    between atoms: C_5  and  C_7
REMARK    5  A    between atoms: C_9  and  C_10
REMARK    6  A    between atoms: C_10  and  C_12
REMARK    7  A    between atoms: C_12  and  C_13
REMARK    8  A    between atoms: C_12  and  C_15
REMARK    9  A    between atoms: N_17  and  C_18
REMARK   10  A    between atoms: C_18  and  C_19
REMARK                            x       y       z     vdW  Elec       q    Type
REMARK                         _______ _______ _______ _____ _____    ______ ____
ROOT
ATOM      1  C   UNL     1       4.365   4.780  19.268  0.00  0.00    +0.000 C 
ENDROOT
BRANCH   1   2
ATOM      2  C   UNL     1       3.438   5.671  18.433  0.00  0.00    +0.000 C 
ATOM      3  O   UNL     1       2.698   5.158  17.593  0.00  0.00    +0.000 OA
ATOM      4  N   UNL     1       3.455   7.038  18.649  0.00  0.00    +0.000 N 
ATOM      5  H   UNL     1       4.026   7.455  19.372  0.00  0.00    +0.000 HD
BRANCH   4   6
ATOM      6  C   UNL     1       2.660   7.967  17.858  0.00  0.00    +0.000 C 
BRANCH   6   7
ATOM      7  C   UNL     1       1.627   8.693  18.689  0.00  0.00    +0.000 A 
ATOM      8  C   UNL     1       1.464   8.411  20.055  0.00  0.00    +0.000 A 
ATOM      9  C   UNL     1       0.534   9.119  20.823  0.00  0.00    +0.000 A 
ATOM     10  C   UNL     1      -0.235  10.121  20.238  0.00  0.00    +0.000 A 
ATOM     11  C   UNL     1      -0.074  10.417  18.884  0.00  0.00    +0.000 A 
ATOM     12  C   UNL     1       0.851   9.710  18.115  0.00  0.00    +0.000 A 
ENDBRANCH   6   7
ENDBRANCH   4   6
ENDBRANCH   1   2
BRANCH   1  13
ATOM     13  C   UNL     1       5.825   5.000  18.968  0.00  0.00    +0.000 C 
ATOM     14  O   UNL     1       6.638   5.051  19.895  0.00  0.00    +0.000 OA
BRANCH  13  20
ATOM     15  C   UNL     1       7.628   7.545  17.455  0.00  0.00    +0.000 C 
ATOM     16  C   UNL     1       7.043   6.256  17.019  0.00  0.00    +0.000 A 
ATOM     17  O   UNL     1       7.303   5.985  15.711  0.00  0.00    +0.000 OA
ATOM     18  C   UNL     1       6.782   4.772  15.407  0.00  0.00    +0.000 A 
ATOM     19  C   UNL     1       6.150   4.264  16.518  0.00  0.00    +0.000 A 
ATOM     20  C   UNL     1       6.322   5.212  17.591  0.00  0.00    +0.000 A 
BRANCH  18  21
ATOM     21  C   UNL     1       7.041   4.292  14.014  0.00  0.00    +0.000 C 
ATOM     22  C   UNL     1       5.746   3.847  13.335  0.00  0.00    +0.000 C 
ATOM     23  C   UNL     1       7.770   5.339  13.176  0.00  0.00    +0.000 C 
ENDBRANCH  18  21
ENDBRANCH  13  20
ENDBRANCH   1  13
BRANCH   1  24
ATOM     24  C   UNL     1       4.044   3.363  19.120  0.00  0.00    +0.000 C 
ATOM     25  N   UNL     1       3.798   2.237  18.988  0.00  0.00    +0.000 NA
ENDBRANCH   1  24
TORSDOF 7
ENDMDL
MODEL 9
REMARK VINA RESULT:      -7.5      0.975      1.333
REMARK  Name = 
REMARK  10 active torsions:
REMARK  status: ('A' for Active; 'I' for Inactive)
REMARK    1  A    between atoms: C_1  and  C_2
REMARK    2  A    between atoms: C_4  and  C_5
REMARK    3  A    between atoms: C_5  and  C_6
REMARK    4  A    between atoms: C_5  and  C_7
REMARK    5  A    between atoms: C_9  and  C_10
REMARK    6  A    between atoms: C_10  and  C_12
REMARK    7  A    between atoms: C_12  and  C_13
REMARK    8  A    between atoms: C_12  and  C_15
REMARK    9  A    between atoms: N_17  and  C_18
REMARK   10  A    between atoms: C_18  and  C_19
REMARK                            x       y       z     vdW  Elec       q    Type
REMARK                         _______ _______ _______ _____ _____    ______ ____
ROOT
ATOM      1  C   UNL     1       6.022   6.392  16.415  0.00  0.00    +0.000 C 
ENDROOT
BRANCH   1   2
ATOM      2  C   UNL     1       4.892   6.181  17.430  0.00  0.00    +0.000 C 
ATOM      3  O   UNL     1       3.784   6.674  17.216  0.00  0.00    +0.000 OA
ATOM      4  N   UNL     1       5.148   5.436  18.567  0.00  0.00    +0.000 N 
ATOM      5  H   UNL     1       6.043   4.990  18.720  0.00  0.00    +0.000 HD
BRANCH   4   6
ATOM      6  C   UNL     1       4.158   5.241  19.617  0.00  0.00    +0.000 C 
BRANCH   6   7
ATOM      7  C   UNL     1       3.140   4.183  19.258  0.00  0.00    +0.000 A 
ATOM      8  C   UNL     1       3.476   3.102  18.429  0.00  0.00    +0.000 A 
ATOM      9  C   UNL     1       2.537   2.108  18.138  0.00  0.00    +0.000 A 
ATOM     10  C   UNL     1       1.255   2.178  18.679  0.00  0.00    +0.000 A 
ATOM     11  C   UNL     1       0.914   3.243  19.513  0.00  0.00    +0.000 A 
ATOM     12  C   UNL     1       1.848   4.237  19.802  0.00  0.00    +0.000 A 
ENDBRANCH   6   7
ENDBRANCH   4   6
ENDBRANCH   1   2
BRANCH   1  13
ATOM     13  C   UNL     1       6.623   5.101  15.924  0.00  0.00    +0.000 C 
ATOM     14  O   UNL     1       7.174   4.340  16.725  0.00  0.00    +0.000 OA
BRANCH  13  20
ATOM     15  C   UNL     1       8.740   5.839  13.279  0.00  0.00    +0.000 C 
ATOM     16  C   UNL     1       7.498   5.051  13.456  0.00  0.00    +0.000 A 
ATOM     17  O   UNL     1       7.107   4.436  12.306  0.00  0.00    +0.000 OA
ATOM     18  C   UNL     1       6.000   3.699  12.563  0.00  0.00    +0.000 A 
ATOM     19  C   UNL     1       5.651   3.859  13.885  0.00  0.00    +0.000 A 
ATOM     20  C   UNL     1       6.628   4.728  14.493  0.00  0.00    +0.000 A 
BRANCH  18  21
ATOM     21  C   UNL     1       5.478   2.901  11.411  0.00  0.00    +0.000 C 
ATOM     22  C   UNL     1       5.937   1.446  11.497  0.00  0.00    +0.000 C 
ATOM     23  C   UNL     1       3.958   2.993  11.295  0.00  0.00    +0.000 C 
ENDBRANCH  18  21
ENDBRANCH  13  20
ENDBRANCH   1  13
BRANCH   1  24
ATOM     24  C   UNL     1       7.078   7.253  16.940  0.00  0.00    +0.000 C 
ATOM     25  N   UNL     1       7.927   7.928  17.351  0.00  0.00    +0.000 NA
ENDBRANCH   1  24
TORSDOF 7
ENDMDL
