MODEL 1
REMARK VINA RESULT:      -7.0      0.000      0.000
REMARK  Name = 
REMARK  3 active torsions:
REMARK  status: ('A' for Active; 'I' for Inactive)
REMARK    1  A    between atoms: N_1  and  C_2
REMARK    2  A    between atoms: C_2  and  N_4
REMARK    3  A    between atoms: N_4  and  N_5
REMARK                            x       y       z     vdW  Elec       q    Type
REMARK                         _______ _______ _______ _____ _____    ______ ____
ROOT
ATOM      1  N   UNL     1       5.775   4.040  19.201  0.00  0.00    +0.000 NA
ATOM      2  C   UNL     1       4.611   4.358  18.716  0.00  0.00    +0.000 C 
ATOM      3  C   UNL     1       4.339   5.086  17.422  0.00  0.00    +0.000 C 
ATOM      4  C   UNL     1       3.239   6.093  17.703  0.00  0.00    +0.000 C 
ATOM      5  O   UNL     1       2.018   5.452  18.078  0.00  0.00    +0.000 OA
ATOM      6  C   UNL     1       2.165   4.541  19.092  0.00  0.00    +0.000 A 
ATOM      7  C   UNL     1       0.993   4.160  19.747  0.00  0.00    +0.000 A 
ATOM      8  C   UNL     1       1.048   3.226  20.785  0.00  0.00    +0.000 A 
ATOM      9  C   UNL     1       2.274   2.680  21.153  0.00  0.00    +0.000 A 
ATOM     10  F   UNL     1       2.319   1.777  22.140  0.00  0.00    +0.000 F 
ATOM     11  C   UNL     1       3.448   3.044  20.505  0.00  0.00    +0.000 A 
ATOM     12  C   UNL     1       3.389   3.977  19.465  0.00  0.00    +0.000 A 
ENDROOT
BRANCH   1  13
ATOM     13  N   UNL     1       6.906   4.383  18.524  0.00  0.00    +0.000 N 
ATOM     14  H   UNL     1       7.260   3.830  17.754  0.00  0.00    +0.000 HD
BRANCH  13  15
ATOM     15  C   UNL     1       7.611   5.509  18.850  0.00  0.00    +0.000 C 
ATOM     16  S   UNL     1       7.625   6.855  17.882  0.00  0.00    +0.000 S 
BRANCH  15  17
ATOM     17  N   UNL     1       8.295   5.456  20.016  0.00  0.00    +0.000 N 
ATOM     18  H   UNL     1       7.863   5.685  20.898  0.00  0.00    +0.000 HD
ATOM     19  H   UNL     1       9.263   5.160  19.970  0.00  0.00    +0.000 HD
ENDBRANCH  15  17
ENDBRANCH  13  15
ENDBRANCH   1  13
TORSDOF 3
ENDMDL
MODEL 2
REMARK VINA RESULT:      -6.8      1.196      1.201
REMARK  Name = 
REMARK  3 active torsions:
REMARK  status: ('A' for Active; 'I' for Inactive)
REMARK    1  A    between atoms: N_1  and  C_2
REMARK    2  A    between atoms: C_2  and  N_4
REMARK    3  A    between atoms: N_4  and  N_5
REMARK                            x       y       z     vdW  Elec       q    Type
REMARK                         _______ _______ _______ _____ _____    ______ ____
ROOT
ATOM      1  N   UNL     1       5.621   4.122  19.235  0.00  0.00    +0.000 NA
ATOM      2  C   UNL     1       4.629   3.702  18.508  0.00  0.00    +0.000 C 
ATOM      3  C   UNL     1       4.655   3.403  17.027  0.00  0.00    +0.000 C 
ATOM      4  C   UNL     1       3.374   3.963  16.440  0.00  0.00    +0.000 C 
ATOM      5  O   UNL     1       2.219   3.309  16.969  0.00  0.00    +0.000 OA
ATOM      6  C   UNL     1       2.191   3.267  18.339  0.00  0.00    +0.000 A 
ATOM      7  C   UNL     1       0.953   2.986  18.918  0.00  0.00    +0.000 A 
ATOM      8  C   UNL     1       0.835   2.911  20.308  0.00  0.00    +0.000 A 
ATOM      9  C   UNL     1       1.959   3.114  21.104  0.00  0.00    +0.000 A 
ATOM     10  F   UNL     1       1.843   3.029  22.435  0.00  0.00    +0.000 F 
ATOM     11  C   UNL     1       3.200   3.387  20.542  0.00  0.00    +0.000 A 
ATOM     12  C   UNL     1       3.315   3.458  19.150  0.00  0.00    +0.000 A 
ENDROOT
BRANCH   1  13
ATOM     13  N   UNL     1       6.834   4.349  18.659  0.00  0.00    +0.000 N 
ATOM     14  H   UNL     1       7.278   3.667  18.057  0.00  0.00    +0.000 HD
BRANCH  13  15
ATOM     15  C   UNL     1       7.503   5.525  18.860  0.00  0.00    +0.000 C 
ATOM     16  S   UNL     1       7.420   6.783  17.783  0.00  0.00    +0.000 S 
BRANCH  15  17
ATOM     17  N   UNL     1       8.235   5.598  19.995  0.00  0.00    +0.000 N 
ATOM     18  H   UNL     1       9.118   6.083  20.028  0.00  0.00    +0.000 HD
ATOM     19  H   UNL     1       7.851   5.157  20.821  0.00  0.00    +0.000 HD
ENDBRANCH  15  17
ENDBRANCH  13  15
ENDBRANCH   1  13
TORSDOF 3
ENDMDL
MODEL 3
REMARK VINA RESULT:      -6.6      4.934      6.751
REMARK  Name = 
REMARK  3 active torsions:
REMARK  status: ('A' for Active; 'I' for Inactive)
REMARK    1  A    between atoms: N_1  and  C_2
REMARK    2  A    between atoms: C_2  and  N_4
REMARK    3  A    between atoms: N_4  and  N_5
REMARK                            x       y       z     vdW  Elec       q    Type
REMARK                         _______ _______ _______ _____ _____    ______ ____
ROOT
ATOM      1  N   UNL     1       4.221   3.655  16.501  0.00  0.00    +0.000 NA
ATOM      2  C   UNL     1       5.391   4.181  16.296  0.00  0.00    +0.000 C 
ATOM      3  C   UNL     1       6.319   4.758  17.339  0.00  0.00    +0.000 C 
ATOM      4  C   UNL     1       6.892   6.039  16.763  0.00  0.00    +0.000 C 
ATOM      5  O   UNL     1       7.686   5.788  15.601  0.00  0.00    +0.000 OA
ATOM      6  C   UNL     1       7.050   5.028  14.655  0.00  0.00    +0.000 A 
ATOM      7  C   UNL     1       7.604   5.054  13.374  0.00  0.00    +0.000 A 
ATOM      8  C   UNL     1       7.028   4.299  12.351  0.00  0.00    +0.000 A 
ATOM      9  C   UNL     1       5.905   3.521  12.620  0.00  0.00    +0.000 A 
ATOM     10  F   UNL     1       5.363   2.790  11.638  0.00  0.00    +0.000 F 
ATOM     11  C   UNL     1       5.346   3.479  13.891  0.00  0.00    +0.000 A 
ATOM     12  C   UNL     1       5.928   4.234  14.915  0.00  0.00    +0.000 A 
ENDROOT
BRANCH   1  13
ATOM     13  N   UNL     1       3.715   3.599  17.765  0.00  0.00    +0.000 N 
ATOM     14  H   UNL     1       3.743   4.395  18.389  0.00  0.00    +0.000 HD
BRANCH  13  15
ATOM     15  C   UNL     1       3.132   2.459  18.243  0.00  0.00    +0.000 C 
ATOM     16  S   UNL     1       1.538   2.405  18.697  0.00  0.00    +0.000 S 
BRANCH  15  17
ATOM     17  N   UNL     1       3.937   1.375  18.320  0.00  0.00    +0.000 N 
ATOM     18  H   UNL     1       4.429   1.136  19.168  0.00  0.00    +0.000 HD
ATOM     19  H   UNL     1       4.016   0.798  17.492  0.00  0.00    +0.000 HD
ENDBRANCH  15  17
ENDBRANCH  13  15
ENDBRANCH   1  13
TORSDOF 3
ENDMDL
MODEL 4
REMARK VINA RESULT:      -6.5      2.809      3.285
REMARK  Name = 
REMARK  3 active torsions:
REMARK  status: ('A' for Active; 'I' for Inactive)
REMARK    1  A    between atoms: N_1  and  C_2
REMARK    2  A    between atoms: C_2  and  N_4
REMARK    3  A    between atoms: N_4  and  N_5
REMARK                            x       y       z     vdW  Elec       q    Type
REMARK                         _______ _______ _______ _____ _____    ______ ____
ROOT
ATOM      1  N   UNL     1       6.182   4.282  16.321  0.00  0.00    +0.000 NA
ATOM      2  C   UNL     1       5.153   5.020  16.613  0.00  0.00    +0.000 C 
ATOM      3  C   UNL     1       4.935   6.464  16.227  0.00  0.00    +0.000 C 
ATOM      4  C   UNL     1       4.363   7.166  17.443  0.00  0.00    +0.000 C 
ATOM      5  O   UNL     1       3.084   6.641  17.805  0.00  0.00    +0.000 OA
ATOM      6  C   UNL     1       3.066   5.277  17.933  0.00  0.00    +0.000 A 
ATOM      7  C   UNL     1       1.981   4.740  18.627  0.00  0.00    +0.000 A 
ATOM      8  C   UNL     1       1.876   3.358  18.794  0.00  0.00    +0.000 A 
ATOM      9  C   UNL     1       2.856   2.525  18.261  0.00  0.00    +0.000 A 
ATOM     10  F   UNL     1       2.744   1.200  18.414  0.00  0.00    +0.000 F 
ATOM     11  C   UNL     1       3.939   3.044  17.561  0.00  0.00    +0.000 A 
ATOM     12  C   UNL     1       4.039   4.428  17.393  0.00  0.00    +0.000 A 
ENDROOT
BRANCH   1  13
ATOM     13  N   UNL     1       7.213   4.812  15.604  0.00  0.00    +0.000 N 
ATOM     14  H   UNL     1       8.015   5.237  16.052  0.00  0.00    +0.000 HD
BRANCH  13  15
ATOM     15  C   UNL     1       7.213   4.780  14.237  0.00  0.00    +0.000 C 
ATOM     16  S   UNL     1       6.194   3.795  13.376  0.00  0.00    +0.000 S 
BRANCH  15  17
ATOM     17  N   UNL     1       8.097   5.604  13.630  0.00  0.00    +0.000 N 
ATOM     18  H   UNL     1       8.042   6.606  13.725  0.00  0.00    +0.000 HD
ATOM     19  H   UNL     1       8.832   5.172  13.084  0.00  0.00    +0.000 HD
ENDBRANCH  15  17
ENDBRANCH  13  15
ENDBRANCH   1  13
TORSDOF 3
ENDMDL
MODEL 5
REMARK VINA RESULT:      -6.5      3.660      4.562
REMARK  Name = 
REMARK  3 active torsions:
REMARK  status: ('A' for Active; 'I' for Inactive)
REMARK    1  A    between atoms: N_1  and  C_2
REMARK    2  A    between atoms: C_2  and  N_4
REMARK    3  A    between atoms: N_4  and  N_5
REMARK                            x       y       z     vdW  Elec       q    Type
REMARK                         _______ _______ _______ _____ _____    ______ ____
ROOT
ATOM      1  N   UNL     1       6.043   6.210  16.147  0.00  0.00    +0.000 NA
ATOM      2  C   UNL     1       5.620   5.797  17.305  0.00  0.00    +0.000 C 
ATOM      3  C   UNL     1       6.266   4.752  18.184  0.00  0.00    +0.000 C 
ATOM      4  C   UNL     1       5.151   3.881  18.730  0.00  0.00    +0.000 C 
ATOM      5  O   UNL     1       4.258   4.624  19.563  0.00  0.00    +0.000 OA
ATOM      6  C   UNL     1       3.788   5.771  18.978  0.00  0.00    +0.000 A 
ATOM      7  C   UNL     1       2.656   6.338  19.566  0.00  0.00    +0.000 A 
ATOM      8  C   UNL     1       2.115   7.515  19.043  0.00  0.00    +0.000 A 
ATOM      9  C   UNL     1       2.716   8.115  17.939  0.00  0.00    +0.000 A 
ATOM     10  F   UNL     1       2.200   9.249  17.449  0.00  0.00    +0.000 F 
ATOM     11  C   UNL     1       3.847   7.566  17.348  0.00  0.00    +0.000 A 
ATOM     12  C   UNL     1       4.387   6.390  17.876  0.00  0.00    +0.000 A 
ENDROOT
BRANCH   1  13
ATOM     13  N   UNL     1       7.175   5.674  15.610  0.00  0.00    +0.000 N 
ATOM     14  H   UNL     1       8.053   5.660  16.113  0.00  0.00    +0.000 HD
BRANCH  13  15
ATOM     15  C   UNL     1       7.169   5.115  14.362  0.00  0.00    +0.000 C 
ATOM     16  S   UNL     1       6.108   3.913  13.938  0.00  0.00    +0.000 S 
BRANCH  15  17
ATOM     17  N   UNL     1       8.082   5.606  13.493  0.00  0.00    +0.000 N 
ATOM     18  H   UNL     1       8.902   6.102  13.807  0.00  0.00    +0.000 HD
ATOM     19  H   UNL     1       7.916   5.444  12.508  0.00  0.00    +0.000 HD
ENDBRANCH  15  17
ENDBRANCH  13  15
ENDBRANCH   1  13
TORSDOF 3
ENDMDL
MODEL 6
REMARK VINA RESULT:      -6.4      1.953      2.109
REMARK  Name = 
REMARK  3 active torsions:
REMARK  status: ('A' for Active; 'I' for Inactive)
REMARK    1  A    between atoms: N_1  and  C_2
REMARK    2  A    between atoms: C_2  and  N_4
REMARK    3  A    between atoms: N_4  and  N_5
REMARK                            x       y       z     vdW  Elec       q    Type
REMARK                         _______ _______ _______ _____ _____    ______ ____
ROOT
ATOM      1  N   UNL     1       6.266   5.027  17.477  0.00  0.00    +0.000 NA
ATOM      2  C   UNL     1       5.025   5.408  17.407  0.00  0.00    +0.000 C 
ATOM      3  C   UNL     1       4.519   6.763  16.971  0.00  0.00    +0.000 C 
ATOM      4  C   UNL     1       3.403   7.147  17.924  0.00  0.00    +0.000 C 
ATOM      5  O   UNL     1       2.297   6.246  17.835  0.00  0.00    +0.000 OA
ATOM      6  C   UNL     1       2.652   4.927  17.949  0.00  0.00    +0.000 A 
ATOM      7  C   UNL     1       1.616   4.037  18.238  0.00  0.00    +0.000 A 
ATOM      8  C   UNL     1       1.885   2.672  18.360  0.00  0.00    +0.000 A 
ATOM      9  C   UNL     1       3.187   2.210  18.186  0.00  0.00    +0.000 A 
ATOM     10  F   UNL     1       3.437   0.900  18.293  0.00  0.00    +0.000 F 
ATOM     11  C   UNL     1       4.227   3.083  17.891  0.00  0.00    +0.000 A 
ATOM     12  C   UNL     1       3.954   4.449  17.767  0.00  0.00    +0.000 A 
ENDROOT
BRANCH   1  13
ATOM     13  N   UNL     1       7.261   5.897  17.149  0.00  0.00    +0.000 N 
ATOM     14  H   UNL     1       7.649   5.942  16.215  0.00  0.00    +0.000 HD
BRANCH  13  15
ATOM     15  C   UNL     1       7.773   6.767  18.073  0.00  0.00    +0.000 C 
ATOM     16  S   UNL     1       7.922   8.390  17.771  0.00  0.00    +0.000 S 
BRANCH  15  17
ATOM     17  N   UNL     1       8.148   6.218  19.250  0.00  0.00    +0.000 N 
ATOM     18  H   UNL     1       7.521   5.647  19.795  0.00  0.00    +0.000 HD
ATOM     19  H   UNL     1       9.096   6.392  19.560  0.00  0.00    +0.000 HD
ENDBRANCH  15  17
ENDBRANCH  13  15
ENDBRANCH   1  13
TORSDOF 3
ENDMDL
MODEL 7
REMARK VINA RESULT:      -6.4      3.383      4.223
REMARK  Name = 
REMARK  3 active torsions:
REMARK  status: ('A' for Active; 'I' for Inactive)
REMARK    1  A    between atoms: N_1  and  C_2
REMARK    2  A    between atoms: C_2  and  N_4
REMARK    3  A    between atoms: N_4  and  N_5
REMARK                            x       y       z     vdW  Elec       q    Type
REMARK                         _______ _______ _______ _____ _____    ______ ____
ROOT
ATOM      1  N   UNL     1       6.511   4.730  15.613  0.00  0.00    +0.000 NA
ATOM      2  C   UNL     1       6.349   5.043  16.864  0.00  0.00    +0.000 C 
ATOM      3  C   UNL     1       7.100   6.101  17.637  0.00  0.00    +0.000 C 
ATOM      4  C   UNL     1       7.424   5.511  18.997  0.00  0.00    +0.000 C 
ATOM      5  O   UNL     1       6.240   5.221  19.743  0.00  0.00    +0.000 OA
ATOM      6  C   UNL     1       5.325   4.471  19.052  0.00  0.00    +0.000 A 
ATOM      7  C   UNL     1       4.337   3.850  19.818  0.00  0.00    +0.000 A 
ATOM      8  C   UNL     1       3.356   3.076  19.194  0.00  0.00    +0.000 A 
ATOM      9  C   UNL     1       3.369   2.935  17.810  0.00  0.00    +0.000 A 
ATOM     10  F   UNL     1       2.420   2.202  17.216  0.00  0.00    +0.000 F 
ATOM     11  C   UNL     1       4.342   3.553  17.033  0.00  0.00    +0.000 A 
ATOM     12  C   UNL     1       5.321   4.329  17.660  0.00  0.00    +0.000 A 
ENDROOT
BRANCH   1  13
ATOM     13  N   UNL     1       7.451   5.378  14.870  0.00  0.00    +0.000 N 
ATOM     14  H   UNL     1       8.075   6.065  15.274  0.00  0.00    +0.000 HD
BRANCH  13  15
ATOM     15  C   UNL     1       7.602   5.115  13.537  0.00  0.00    +0.000 C 
ATOM     16  S   UNL     1       6.687   3.977  12.751  0.00  0.00    +0.000 S 
BRANCH  15  17
ATOM     17  N   UNL     1       8.545   5.844  12.897  0.00  0.00    +0.000 N 
ATOM     18  H   UNL     1       9.530   5.680  13.037  0.00  0.00    +0.000 HD
ATOM     19  H   UNL     1       8.221   6.558  12.256  0.00  0.00    +0.000 HD
ENDBRANCH  15  17
ENDBRANCH  13  15
ENDBRANCH   1  13
TORSDOF 3
ENDMDL
MODEL 8
REMARK VINA RESULT:      -6.4      2.942      3.459
REMARK  Name = 
REMARK  3 active torsions:
REMARK  status: ('A' for Active; 'I' for Inactive)
REMARK    1  A    between atoms: N_1  and  C_2
REMARK    2  A    between atoms: C_2  and  N_4
REMARK    3  A    between atoms: N_4  and  N_5
REMARK                            x       y       z     vdW  Elec       q    Type
REMARK                         _______ _______ _______ _____ _____    ______ ____
ROOT
ATOM      1  N   UNL     1       4.660   4.188  17.153  0.00  0.00    +0.000 NA
ATOM      2  C   UNL     1       3.947   3.586  18.057  0.00  0.00    +0.000 C 
ATOM      3  C   UNL     1       3.932   2.106  18.362  0.00  0.00    +0.000 C 
ATOM      4  C   UNL     1       2.483   1.712  18.574  0.00  0.00    +0.000 C 
ATOM      5  O   UNL     1       1.915   2.370  19.708  0.00  0.00    +0.000 OA
ATOM      6  C   UNL     1       2.091   3.729  19.700  0.00  0.00    +0.000 A 
ATOM      7  C   UNL     1       1.266   4.459  20.557  0.00  0.00    +0.000 A 
ATOM      8  C   UNL     1       1.386   5.849  20.622  0.00  0.00    +0.000 A 
ATOM      9  C   UNL     1       2.333   6.495  19.832  0.00  0.00    +0.000 A 
ATOM     10  F   UNL     1       2.452   7.826  19.907  0.00  0.00    +0.000 F 
ATOM     11  C   UNL     1       3.166   5.781  18.979  0.00  0.00    +0.000 A 
ATOM     12  C   UNL     1       3.046   4.389  18.919  0.00  0.00    +0.000 A 
ENDROOT
BRANCH   1  13
ATOM     13  N   UNL     1       5.492   3.462  16.354  0.00  0.00    +0.000 N 
ATOM     14  H   UNL     1       5.476   2.451  16.341  0.00  0.00    +0.000 HD
BRANCH  13  15
ATOM     15  C   UNL     1       6.384   4.077  15.519  0.00  0.00    +0.000 C 
ATOM     16  S   UNL     1       6.216   4.045  13.870  0.00  0.00    +0.000 S 
BRANCH  15  17
ATOM     17  N   UNL     1       7.412   4.715  16.124  0.00  0.00    +0.000 N 
ATOM     18  H   UNL     1       8.125   4.214  16.631  0.00  0.00    +0.000 HD
ATOM     19  H   UNL     1       7.446   5.723  16.034  0.00  0.00    +0.000 HD
ENDBRANCH  15  17
ENDBRANCH  13  15
ENDBRANCH   1  13
TORSDOF 3
ENDMDL
MODEL 9
REMARK VINA RESULT:      -6.4      2.768      3.245
REMARK  Name = 
REMARK  3 active torsions:
REMARK  status: ('A' for Active; 'I' for Inactive)
REMARK    1  A    between atoms: N_1  and  C_2
REMARK    2  A    between atoms: C_2  and  N_4
REMARK    3  A    between atoms: N_4  and  N_5
REMARK                            x       y       z     vdW  Elec       q    Type
REMARK                         _______ _______ _______ _____ _____    ______ ____
ROOT
ATOM      1  N   UNL     1       4.504   5.173  16.856  0.00  0.00    +0.000 NA
ATOM      2  C   UNL     1       3.879   4.323  17.615  0.00  0.00    +0.000 C 
ATOM      3  C   UNL     1       3.988   2.817  17.569  0.00  0.00    +0.000 C 
ATOM      4  C   UNL     1       2.583   2.266  17.724  0.00  0.00    +0.000 C 
ATOM      5  O   UNL     1       2.022   2.598  18.996  0.00  0.00    +0.000 OA
ATOM      6  C   UNL     1       2.096   3.933  19.298  0.00  0.00    +0.000 A 
ATOM      7  C   UNL     1       1.261   4.376  20.324  0.00  0.00    +0.000 A 
ATOM      8  C   UNL     1       1.280   5.720  20.706  0.00  0.00    +0.000 A 
ATOM      9  C   UNL     1       2.139   6.605  20.061  0.00  0.00    +0.000 A 
ATOM     10  F   UNL     1       2.162   7.888  20.439  0.00  0.00    +0.000 F 
ATOM     11  C   UNL     1       2.983   6.177  19.043  0.00  0.00    +0.000 A 
ATOM     12  C   UNL     1       2.962   4.831  18.665  0.00  0.00    +0.000 A 
ENDROOT
BRANCH   1  13
ATOM     13  N   UNL     1       5.349   4.720  15.888  0.00  0.00    +0.000 N 
ATOM     14  H   UNL     1       5.011   4.266  15.049  0.00  0.00    +0.000 HD
BRANCH  13  15
ATOM     15  C   UNL     1       6.703   4.875  16.003  0.00  0.00    +0.000 C 
ATOM     16  S   UNL     1       7.493   4.690  17.449  0.00  0.00    +0.000 S 
BRANCH  15  17
ATOM     17  N   UNL     1       7.358   5.188  14.862  0.00  0.00    +0.000 N 
ATOM     18  H   UNL     1       6.960   5.006  13.953  0.00  0.00    +0.000 HD
ATOM     19  H   UNL     1       8.264   5.629  14.956  0.00  0.00    +0.000 HD
ENDBRANCH  15  17
ENDBRANCH  13  15
ENDBRANCH   1  13
TORSDOF 3
ENDMDL
