MODEL 1
REMARK VINA RESULT:      -7.6      0.000      0.000
REMARK  Name = 
REMARK  5 active torsions:
REMARK  status: ('A' for Active; 'I' for Inactive)
REMARK    1  A    between atoms: C_1  and  O_2
REMARK    2  A    between atoms: O_2  and  C_3
REMARK    3  A    between atoms: C_8  and  C_9
REMARK    4  A    between atoms: C_13  and  N_14
REMARK    5  A    between atoms: C_15  and  C_17
REMARK                            x       y       z     vdW  Elec       q    Type
REMARK                         _______ _______ _______ _____ _____    ______ ____
ROOT
ATOM      1  C   UNL     1       2.913   5.564  19.274  0.00  0.00    +0.000 A 
ATOM      2  C   UNL     1       2.906   4.486  20.170  0.00  0.00    +0.000 A 
ATOM      3  C   UNL     1       3.491   3.275  19.819  0.00  0.00    +0.000 A 
ATOM      4  C   UNL     1       4.079   3.123  18.563  0.00  0.00    +0.000 A 
ATOM      5  C   UNL     1       4.093   4.174  17.644  0.00  0.00    +0.000 A 
ATOM      6  C   UNL     1       3.530   5.402  18.019  0.00  0.00    +0.000 A 
ENDROOT
BRANCH   1  12
ATOM      7  C   UNL     1       0.528  10.963  20.220  0.00  0.00    +0.000 A 
ATOM      8  C   UNL     1       0.332  10.479  21.518  0.00  0.00    +0.000 A 
ATOM      9  C   UNL     1       0.725   9.185  21.882  0.00  0.00    +0.000 A 
ATOM     10  C   UNL     1       1.313   8.410  20.884  0.00  0.00    +0.000 A 
ATOM     11  N   UNL     1       1.810   7.135  20.882  0.00  0.00    +0.000 N 
ATOM     12  C   UNL     1       2.294   6.845  19.625  0.00  0.00    +0.000 A 
ATOM     13  N   UNL     1       2.091   7.869  18.816  0.00  0.00    +0.000 NA
ATOM     14  C   UNL     1       1.503   8.849  19.582  0.00  0.00    +0.000 A 
ATOM     15  C   UNL     1       1.098  10.145  19.234  0.00  0.00    +0.000 A 
ATOM     16  H   UNL     1       1.811   6.505  21.669  0.00  0.00    +0.000 HD
BRANCH   7  18
ATOM     17  C   UNL     1      -0.804  12.246  18.746  0.00  0.00    +0.000 C 
ATOM     18  O   UNL     1       0.161  12.214  19.792  0.00  0.00    +0.000 OA
ENDBRANCH   7  18
ENDBRANCH   1  12
BRANCH   5  19
ATOM     19  N   UNL     1       4.669   4.059  16.352  0.00  0.00    +0.000 N 
ATOM     20  C   UNL     1       5.987   4.339  16.029  0.00  0.00    +0.000 C 
ATOM     21  O   UNL     1       6.861   4.620  16.844  0.00  0.00    +0.000 OA
ATOM     22  H   UNL     1       4.073   3.680  15.628  0.00  0.00    +0.000 HD
BRANCH  20  23
ATOM     23  C   UNL     1       6.332   4.268  14.600  0.00  0.00    +0.000 A 
ATOM     24  C   UNL     1       5.769   3.465  13.547  0.00  0.00    +0.000 A 
ATOM     25  C   UNL     1       6.354   3.708  12.321  0.00  0.00    +0.000 A 
ATOM     26  S   UNL     1       7.584   4.887  12.411  0.00  0.00    +0.000 S 
ATOM     27  C   UNL     1       7.338   5.077  14.087  0.00  0.00    +0.000 A 
ENDBRANCH  20  23
ENDBRANCH   5  19
TORSDOF 4
ENDMDL
MODEL 2
REMARK VINA RESULT:      -7.5      0.688      1.585
REMARK  Name = 
REMARK  5 active torsions:
REMARK  status: ('A' for Active; 'I' for Inactive)
REMARK    1  A    between atoms: C_1  and  O_2
REMARK    2  A    between atoms: O_2  and  C_3
REMARK    3  A    between atoms: C_8  and  C_9
REMARK    4  A    between atoms: C_13  and  N_14
REMARK    5  A    between atoms: C_15  and  C_17
REMARK                            x       y       z     vdW  Elec       q    Type
REMARK                         _______ _______ _______ _____ _____    ______ ____
ROOT
ATOM      1  C   UNL     1       2.903   5.663  19.218  0.00  0.00    +0.000 A 
ATOM      2  C   UNL     1       2.919   4.598  20.129  0.00  0.00    +0.000 A 
ATOM      3  C   UNL     1       3.520   3.391  19.789  0.00  0.00    +0.000 A 
ATOM      4  C   UNL     1       4.100   3.230  18.530  0.00  0.00    +0.000 A 
ATOM      5  C   UNL     1       4.090   4.269  17.596  0.00  0.00    +0.000 A 
ATOM      6  C   UNL     1       3.512   5.493  17.959  0.00  0.00    +0.000 A 
ENDROOT
BRANCH   1  12
ATOM      7  C   UNL     1       0.161  10.644  21.063  0.00  0.00    +0.000 A 
ATOM      8  C   UNL     1       0.453  11.099  19.772  0.00  0.00    +0.000 A 
ATOM      9  C   UNL     1       1.132  10.293  18.851  0.00  0.00    +0.000 A 
ATOM     10  C   UNL     1       1.504   9.023  19.289  0.00  0.00    +0.000 A 
ATOM     11  N   UNL     1       2.159   7.991  18.673  0.00  0.00    +0.000 N 
ATOM     12  C   UNL     1       2.267   6.939  19.556  0.00  0.00    +0.000 A 
ATOM     13  N   UNL     1       1.740   7.272  20.722  0.00  0.00    +0.000 NA
ATOM     14  C   UNL     1       1.249   8.547  20.568  0.00  0.00    +0.000 A 
ATOM     15  C   UNL     1       0.574   9.371  21.479  0.00  0.00    +0.000 A 
ATOM     16  H   UNL     1       2.516   8.004  17.732  0.00  0.00    +0.000 HD
BRANCH   7  18
ATOM     17  C   UNL     1      -1.010  10.637  23.117  0.00  0.00    +0.000 C 
ATOM     18  O   UNL     1      -0.493  11.380  22.019  0.00  0.00    +0.000 OA
ENDBRANCH   7  18
ENDBRANCH   1  12
BRANCH   5  19
ATOM     19  N   UNL     1       4.657   4.145  16.302  0.00  0.00    +0.000 N 
ATOM     20  C   UNL     1       6.002   4.276  15.994  0.00  0.00    +0.000 C 
ATOM     21  O   UNL     1       6.898   4.410  16.823  0.00  0.00    +0.000 OA
ATOM     22  H   UNL     1       4.024   3.876  15.560  0.00  0.00    +0.000 HD
BRANCH  20  23
ATOM     23  C   UNL     1       6.346   4.231  14.563  0.00  0.00    +0.000 A 
ATOM     24  C   UNL     1       5.798   3.430  13.501  0.00  0.00    +0.000 A 
ATOM     25  C   UNL     1       6.375   3.700  12.278  0.00  0.00    +0.000 A 
ATOM     26  S   UNL     1       7.581   4.903  12.381  0.00  0.00    +0.000 S 
ATOM     27  C   UNL     1       7.334   5.066  14.060  0.00  0.00    +0.000 A 
ENDBRANCH  20  23
ENDBRANCH   5  19
TORSDOF 4
ENDMDL
MODEL 3
REMARK VINA RESULT:      -7.4      7.571     10.600
REMARK  Name = 
REMARK  5 active torsions:
REMARK  status: ('A' for Active; 'I' for Inactive)
REMARK    1  A    between atoms: C_1  and  O_2
REMARK    2  A    between atoms: O_2  and  C_3
REMARK    3  A    between atoms: C_8  and  C_9
REMARK    4  A    between atoms: C_13  and  N_14
REMARK    5  A    between atoms: C_15  and  C_17
REMARK                            x       y       z     vdW  Elec       q    Type
REMARK                         _______ _______ _______ _____ _____    ______ ____
ROOT
ATOM      1  C   UNL     1       9.172  10.122  18.875  0.00  0.00    +0.000 A 
ATOM      2  C   UNL     1       9.969  10.849  17.979  0.00  0.00    +0.000 A 
ATOM      3  C   UNL     1      10.607  12.014  18.391  0.00  0.00    +0.000 A 
ATOM      4  C   UNL     1      10.448  12.471  19.699  0.00  0.00    +0.000 A 
ATOM      5  C   UNL     1       9.653  11.775  20.612  0.00  0.00    +0.000 A 
ATOM      6  C   UNL     1       9.039  10.585  20.198  0.00  0.00    +0.000 A 
ENDROOT
BRANCH   1  12
ATOM      7  C   UNL     1       6.084   5.431  16.827  0.00  0.00    +0.000 A 
ATOM      8  C   UNL     1       6.766   4.738  17.833  0.00  0.00    +0.000 A 
ATOM      9  C   UNL     1       7.682   5.384  18.672  0.00  0.00    +0.000 A 
ATOM     10  C   UNL     1       7.878   6.747  18.448  0.00  0.00    +0.000 A 
ATOM     11  N   UNL     1       8.673   7.675  19.063  0.00  0.00    +0.000 N 
ATOM     12  C   UNL     1       8.486   8.898  18.455  0.00  0.00    +0.000 A 
ATOM     13  N   UNL     1       7.632   8.777  17.454  0.00  0.00    +0.000 NA
ATOM     14  C   UNL     1       7.235   7.460  17.448  0.00  0.00    +0.000 A 
ATOM     15  C   UNL     1       6.326   6.795  16.613  0.00  0.00    +0.000 A 
ATOM     16  H   UNL     1       9.303   7.493  19.828  0.00  0.00    +0.000 HD
BRANCH   7  18
ATOM     17  C   UNL     1       5.728   4.344  14.758  0.00  0.00    +0.000 C 
ATOM     18  O   UNL     1       5.181   4.862  15.965  0.00  0.00    +0.000 OA
ENDBRANCH   7  18
ENDBRANCH   1  12
BRANCH   5  19
ATOM     19  N   UNL     1       9.453  12.211  21.947  0.00  0.00    +0.000 N 
ATOM     20  C   UNL     1       8.510  13.139  22.360  0.00  0.00    +0.000 C 
ATOM     21  O   UNL     1       7.646  13.626  21.636  0.00  0.00    +0.000 OA
ATOM     22  H   UNL     1      10.009  11.752  22.656  0.00  0.00    +0.000 HD
BRANCH  20  23
ATOM     23  C   UNL     1       8.565  13.532  23.778  0.00  0.00    +0.000 A 
ATOM     24  C   UNL     1       8.390  12.742  24.968  0.00  0.00    +0.000 A 
ATOM     25  C   UNL     1       8.546  13.478  26.124  0.00  0.00    +0.000 A 
ATOM     26  S   UNL     1       8.893  15.118  25.807  0.00  0.00    +0.000 S 
ATOM     27  C   UNL     1       8.837  14.848  24.124  0.00  0.00    +0.000 A 
ENDBRANCH  20  23
ENDBRANCH   5  19
TORSDOF 4
ENDMDL
MODEL 4
REMARK VINA RESULT:      -7.4      3.235      8.531
REMARK  Name = 
REMARK  5 active torsions:
REMARK  status: ('A' for Active; 'I' for Inactive)
REMARK    1  A    between atoms: C_1  and  O_2
REMARK    2  A    between atoms: O_2  and  C_3
REMARK    3  A    between atoms: C_8  and  C_9
REMARK    4  A    between atoms: C_13  and  N_14
REMARK    5  A    between atoms: C_15  and  C_17
REMARK                            x       y       z     vdW  Elec       q    Type
REMARK                         _______ _______ _______ _____ _____    ______ ____
ROOT
ATOM      1  C   UNL     1       3.535   4.262  19.089  0.00  0.00    +0.000 A 
ATOM      2  C   UNL     1       3.460   3.073  19.829  0.00  0.00    +0.000 A 
ATOM      3  C   UNL     1       2.687   3.010  20.983  0.00  0.00    +0.000 A 
ATOM      4  C   UNL     1       1.991   4.138  21.418  0.00  0.00    +0.000 A 
ATOM      5  C   UNL     1       2.054   5.340  20.710  0.00  0.00    +0.000 A 
ATOM      6  C   UNL     1       2.809   5.385  19.530  0.00  0.00    +0.000 A 
ENDROOT
BRANCH   1  12
ATOM      7  C   UNL     1       6.529   4.263  13.915  0.00  0.00    +0.000 A 
ATOM      8  C   UNL     1       7.442   5.054  14.620  0.00  0.00    +0.000 A 
ATOM      9  C   UNL     1       7.228   5.395  15.962  0.00  0.00    +0.000 A 
ATOM     10  C   UNL     1       6.060   4.910  16.549  0.00  0.00    +0.000 A 
ATOM     11  N   UNL     1       5.543   5.037  17.810  0.00  0.00    +0.000 N 
ATOM     12  C   UNL     1       4.352   4.348  17.876  0.00  0.00    +0.000 A 
ATOM     13  N   UNL     1       4.071   3.818  16.698  0.00  0.00    +0.000 NA
ATOM     14  C   UNL     1       5.124   4.141  15.874  0.00  0.00    +0.000 A 
ATOM     15  C   UNL     1       5.351   3.815  14.530  0.00  0.00    +0.000 A 
ATOM     16  H   UNL     1       5.959   5.560  18.563  0.00  0.00    +0.000 HD
BRANCH   7  18
ATOM     17  C   UNL     1       5.595   3.135  12.058  0.00  0.00    +0.000 C 
ATOM     18  O   UNL     1       6.668   3.897  12.600  0.00  0.00    +0.000 OA
ENDBRANCH   7  18
ENDBRANCH   1  12
BRANCH   5  19
ATOM     19  N   UNL     1       1.373   6.513  21.124  0.00  0.00    +0.000 N 
ATOM     20  C   UNL     1       1.481   7.760  20.528  0.00  0.00    +0.000 C 
ATOM     21  O   UNL     1       2.100   7.988  19.492  0.00  0.00    +0.000 OA
ATOM     22  H   UNL     1       0.708   6.403  21.878  0.00  0.00    +0.000 HD
BRANCH  20  23
ATOM     23  C   UNL     1       0.777   8.863  21.202  0.00  0.00    +0.000 A 
ATOM     24  C   UNL     1       0.025   8.872  22.430  0.00  0.00    +0.000 A 
ATOM     25  C   UNL     1      -0.465  10.123  22.745  0.00  0.00    +0.000 A 
ATOM     26  S   UNL     1      -0.045  11.297  21.580  0.00  0.00    +0.000 S 
ATOM     27  C   UNL     1       0.794  10.138  20.653  0.00  0.00    +0.000 A 
ENDBRANCH  20  23
ENDBRANCH   5  19
TORSDOF 4
ENDMDL
MODEL 5
REMARK VINA RESULT:      -7.2      4.707      9.737
REMARK  Name = 
REMARK  5 active torsions:
REMARK  status: ('A' for Active; 'I' for Inactive)
REMARK    1  A    between atoms: C_1  and  O_2
REMARK    2  A    between atoms: O_2  and  C_3
REMARK    3  A    between atoms: C_8  and  C_9
REMARK    4  A    between atoms: C_13  and  N_14
REMARK    5  A    between atoms: C_15  and  C_17
REMARK                            x       y       z     vdW  Elec       q    Type
REMARK                         _______ _______ _______ _____ _____    ______ ____
ROOT
ATOM      1  C   UNL     1       1.817   8.455  19.254  0.00  0.00    +0.000 A 
ATOM      2  C   UNL     1       2.327   9.103  18.121  0.00  0.00    +0.000 A 
ATOM      3  C   UNL     1       1.967  10.416  17.839  0.00  0.00    +0.000 A 
ATOM      4  C   UNL     1       1.083  11.092  18.680  0.00  0.00    +0.000 A 
ATOM      5  C   UNL     1       0.548  10.471  19.811  0.00  0.00    +0.000 A 
ATOM      6  C   UNL     1       0.942   9.158  20.105  0.00  0.00    +0.000 A 
ENDROOT
BRANCH   1  12
ATOM      7  C   UNL     1       3.536   2.782  20.030  0.00  0.00    +0.000 A 
ATOM      8  C   UNL     1       2.756   2.866  21.189  0.00  0.00    +0.000 A 
ATOM      9  C   UNL     1       2.080   4.044  21.530  0.00  0.00    +0.000 A 
ATOM     10  C   UNL     1       2.230   5.123  20.660  0.00  0.00    +0.000 A 
ATOM     11  N   UNL     1       1.725   6.394  20.674  0.00  0.00    +0.000 N 
ATOM     12  C   UNL     1       2.179   7.069  19.562  0.00  0.00    +0.000 A 
ATOM     13  N   UNL     1       2.983   6.291  18.860  0.00  0.00    +0.000 NA
ATOM     14  C   UNL     1       3.011   5.081  19.514  0.00  0.00    +0.000 A 
ATOM     15  C   UNL     1       3.686   3.896  19.191  0.00  0.00    +0.000 A 
ATOM     16  H   UNL     1       1.127   6.779  21.388  0.00  0.00    +0.000 HD
BRANCH   7  18
ATOM     17  C   UNL     1       3.920   1.175  18.338  0.00  0.00    +0.000 C 
ATOM     18  O   UNL     1       4.231   1.666  19.638  0.00  0.00    +0.000 OA
ENDBRANCH   7  18
ENDBRANCH   1  12
BRANCH   5  19
ATOM     19  N   UNL     1      -0.363  11.117  20.685  0.00  0.00    +0.000 N 
ATOM     20  C   UNL     1      -0.053  12.156  21.549  0.00  0.00    +0.000 C 
ATOM     21  O   UNL     1       1.032  12.729  21.591  0.00  0.00    +0.000 OA
ATOM     22  H   UNL     1      -1.330  10.828  20.618  0.00  0.00    +0.000 HD
BRANCH  20  23
ATOM     23  C   UNL     1      -1.131  12.589  22.454  0.00  0.00    +0.000 A 
ATOM     24  C   UNL     1      -2.303  11.886  22.904  0.00  0.00    +0.000 A 
ATOM     25  C   UNL     1      -3.067  12.630  23.780  0.00  0.00    +0.000 A 
ATOM     26  S   UNL     1      -2.401  14.175  24.069  0.00  0.00    +0.000 S 
ATOM     27  C   UNL     1      -1.092  13.853  23.026  0.00  0.00    +0.000 A 
ENDBRANCH  20  23
ENDBRANCH   5  19
TORSDOF 4
ENDMDL
MODEL 6
REMARK VINA RESULT:      -7.2      3.208      8.504
REMARK  Name = 
REMARK  5 active torsions:
REMARK  status: ('A' for Active; 'I' for Inactive)
REMARK    1  A    between atoms: C_1  and  O_2
REMARK    2  A    between atoms: O_2  and  C_3
REMARK    3  A    between atoms: C_8  and  C_9
REMARK    4  A    between atoms: C_13  and  N_14
REMARK    5  A    between atoms: C_15  and  C_17
REMARK                            x       y       z     vdW  Elec       q    Type
REMARK                         _______ _______ _______ _____ _____    ______ ____
ROOT
ATOM      1  C   UNL     1       3.591   4.294  19.119  0.00  0.00    +0.000 A 
ATOM      2  C   UNL     1       3.510   3.098  19.846  0.00  0.00    +0.000 A 
ATOM      3  C   UNL     1       2.719   3.019  20.987  0.00  0.00    +0.000 A 
ATOM      4  C   UNL     1       2.009   4.139  21.422  0.00  0.00    +0.000 A 
ATOM      5  C   UNL     1       2.077   5.348  20.726  0.00  0.00    +0.000 A 
ATOM      6  C   UNL     1       2.851   5.409  19.559  0.00  0.00    +0.000 A 
ENDROOT
BRANCH   1  12
ATOM      7  C   UNL     1       7.276   5.093  14.481  0.00  0.00    +0.000 A 
ATOM      8  C   UNL     1       6.410   4.203  13.837  0.00  0.00    +0.000 A 
ATOM      9  C   UNL     1       5.300   3.659  14.496  0.00  0.00    +0.000 A 
ATOM     10  C   UNL     1       5.111   4.047  15.822  0.00  0.00    +0.000 A 
ATOM     11  N   UNL     1       4.156   3.726  16.747  0.00  0.00    +0.000 N 
ATOM     12  C   UNL     1       4.426   4.397  17.920  0.00  0.00    +0.000 A 
ATOM     13  N   UNL     1       5.537   5.101  17.791  0.00  0.00    +0.000 NA
ATOM     14  C   UNL     1       5.961   4.911  16.497  0.00  0.00    +0.000 A 
ATOM     15  C   UNL     1       7.070   5.440  15.824  0.00  0.00    +0.000 A 
ATOM     16  H   UNL     1       3.386   3.093  16.599  0.00  0.00    +0.000 HD
BRANCH   7  18
ATOM     17  C   UNL     1       8.315   5.838  12.492  0.00  0.00    +0.000 C 
ATOM     18  O   UNL     1       8.384   5.658  13.902  0.00  0.00    +0.000 OA
ENDBRANCH   7  18
ENDBRANCH   1  12
BRANCH   5  19
ATOM     19  N   UNL     1       1.383   6.513  21.140  0.00  0.00    +0.000 N 
ATOM     20  C   UNL     1       1.509   7.771  20.572  0.00  0.00    +0.000 C 
ATOM     21  O   UNL     1       2.161   8.019  19.561  0.00  0.00    +0.000 OA
ATOM     22  H   UNL     1       0.693   6.389  21.870  0.00  0.00    +0.000 HD
BRANCH  20  23
ATOM     23  C   UNL     1       0.783   8.861  21.244  0.00  0.00    +0.000 A 
ATOM     24  C   UNL     1       0.183   8.909  22.551  0.00  0.00    +0.000 A 
ATOM     25  C   UNL     1      -0.389  10.134  22.830  0.00  0.00    +0.000 A 
ATOM     26  S   UNL     1      -0.226  11.235  21.537  0.00  0.00    +0.000 S 
ATOM     27  C   UNL     1       0.610  10.080  20.602  0.00  0.00    +0.000 A 
ENDBRANCH  20  23
ENDBRANCH   5  19
TORSDOF 4
ENDMDL
MODEL 7
REMARK VINA RESULT:      -7.1      1.285      1.837
REMARK  Name = 
REMARK  5 active torsions:
REMARK  status: ('A' for Active; 'I' for Inactive)
REMARK    1  A    between atoms: C_1  and  O_2
REMARK    2  A    between atoms: O_2  and  C_3
REMARK    3  A    between atoms: C_8  and  C_9
REMARK    4  A    between atoms: C_13  and  N_14
REMARK    5  A    between atoms: C_15  and  C_17
REMARK                            x       y       z     vdW  Elec       q    Type
REMARK                         _______ _______ _______ _____ _____    ______ ____
ROOT
ATOM      1  C   UNL     1       2.174   5.813  20.013  0.00  0.00    +0.000 A 
ATOM      2  C   UNL     1       1.933   4.697  20.827  0.00  0.00    +0.000 A 
ATOM      3  C   UNL     1       2.403   3.442  20.458  0.00  0.00    +0.000 A 
ATOM      4  C   UNL     1       3.109   3.285  19.265  0.00  0.00    +0.000 A 
ATOM      5  C   UNL     1       3.356   4.374  18.427  0.00  0.00    +0.000 A 
ATOM      6  C   UNL     1       2.907   5.641  18.823  0.00  0.00    +0.000 A 
ENDROOT
BRANCH   1  12
ATOM      7  C   UNL     1      -0.016  11.016  21.980  0.00  0.00    +0.000 A 
ATOM      8  C   UNL     1       0.322  11.466  20.699  0.00  0.00    +0.000 A 
ATOM      9  C   UNL     1       0.911  10.613  19.757  0.00  0.00    +0.000 A 
ATOM     10  C   UNL     1       1.144   9.301  20.166  0.00  0.00    +0.000 A 
ATOM     11  N   UNL     1       1.685   8.219  19.524  0.00  0.00    +0.000 N 
ATOM     12  C   UNL     1       1.679   7.141  20.383  0.00  0.00    +0.000 A 
ATOM     13  N   UNL     1       1.192   7.502  21.557  0.00  0.00    +0.000 NA
ATOM     14  C   UNL     1       0.841   8.826  21.434  0.00  0.00    +0.000 A 
ATOM     15  C   UNL     1       0.258   9.696  22.365  0.00  0.00    +0.000 A 
ATOM     16  H   UNL     1       2.040   8.215  18.582  0.00  0.00    +0.000 HD
BRANCH   7  18
ATOM     17  C   UNL     1      -1.259  12.961  22.491  0.00  0.00    +0.000 C 
ATOM     18  O   UNL     1      -0.587  11.795  22.954  0.00  0.00    +0.000 OA
ENDBRANCH   7  18
ENDBRANCH   1  12
BRANCH   5  19
ATOM     19  N   UNL     1       4.058   4.257  17.200  0.00  0.00    +0.000 N 
ATOM     20  C   UNL     1       5.430   4.368  17.042  0.00  0.00    +0.000 C 
ATOM     21  O   UNL     1       6.233   4.475  17.965  0.00  0.00    +0.000 OA
ATOM     22  H   UNL     1       3.506   4.009  16.390  0.00  0.00    +0.000 HD
BRANCH  20  23
ATOM     23  C   UNL     1       5.928   4.335  15.657  0.00  0.00    +0.000 A 
ATOM     24  C   UNL     1       5.402   3.666  14.497  0.00  0.00    +0.000 A 
ATOM     25  C   UNL     1       6.147   3.903  13.361  0.00  0.00    +0.000 A 
ATOM     26  S   UNL     1       7.486   4.917  13.663  0.00  0.00    +0.000 S 
ATOM     27  C   UNL     1       7.072   5.043  15.312  0.00  0.00    +0.000 A 
ENDBRANCH  20  23
ENDBRANCH   5  19
TORSDOF 4
ENDMDL
MODEL 8
REMARK VINA RESULT:      -7.1      3.632      9.078
REMARK  Name = 
REMARK  5 active torsions:
REMARK  status: ('A' for Active; 'I' for Inactive)
REMARK    1  A    between atoms: C_1  and  O_2
REMARK    2  A    between atoms: O_2  and  C_3
REMARK    3  A    between atoms: C_8  and  C_9
REMARK    4  A    between atoms: C_13  and  N_14
REMARK    5  A    between atoms: C_15  and  C_17
REMARK                            x       y       z     vdW  Elec       q    Type
REMARK                         _______ _______ _______ _____ _____    ______ ____
ROOT
ATOM      1  C   UNL     1       1.020   8.797  20.867  0.00  0.00    +0.000 A 
ATOM      2  C   UNL     1       0.396   8.642  22.113  0.00  0.00    +0.000 A 
ATOM      3  C   UNL     1      -0.267   9.710  22.706  0.00  0.00    +0.000 A 
ATOM      4  C   UNL     1      -0.305  10.950  22.066  0.00  0.00    +0.000 A 
ATOM      5  C   UNL     1       0.316  11.140  20.830  0.00  0.00    +0.000 A 
ATOM      6  C   UNL     1       0.954  10.048  20.224  0.00  0.00    +0.000 A 
ENDROOT
BRANCH   1  12
ATOM      7  C   UNL     1       3.949   4.558  17.836  0.00  0.00    +0.000 A 
ATOM      8  C   UNL     1       3.695   3.785  18.974  0.00  0.00    +0.000 A 
ATOM      9  C   UNL     1       3.000   4.308  20.072  0.00  0.00    +0.000 A 
ATOM     10  C   UNL     1       2.583   5.635  19.970  0.00  0.00    +0.000 A 
ATOM     11  N   UNL     1       1.894   6.451  20.825  0.00  0.00    +0.000 N 
ATOM     12  C   UNL     1       1.730   7.684  20.233  0.00  0.00    +0.000 A 
ATOM     13  N   UNL     1       2.321   7.698  19.051  0.00  0.00    +0.000 NA
ATOM     14  C   UNL     1       2.836   6.437  18.866  0.00  0.00    +0.000 A 
ATOM     15  C   UNL     1       3.539   5.898  17.780  0.00  0.00    +0.000 A 
ATOM     16  H   UNL     1       1.569   6.196  21.744  0.00  0.00    +0.000 HD
BRANCH   7  18
ATOM     17  C   UNL     1       5.989   4.523  16.642  0.00  0.00    +0.000 C 
ATOM     18  O   UNL     1       4.628   4.116  16.730  0.00  0.00    +0.000 OA
ENDBRANCH   7  18
ENDBRANCH   1  12
BRANCH   5  19
ATOM     19  N   UNL     1       0.313  12.385  20.151  0.00  0.00    +0.000 N 
ATOM     20  C   UNL     1       1.159  13.450  20.416  0.00  0.00    +0.000 C 
ATOM     21  O   UNL     1       2.099  13.415  21.206  0.00  0.00    +0.000 OA
ATOM     22  H   UNL     1      -0.322  12.466  19.367  0.00  0.00    +0.000 HD
BRANCH  20  23
ATOM     23  C   UNL     1       0.894  14.690  19.668  0.00  0.00    +0.000 A 
ATOM     24  C   UNL     1      -0.351  15.251  19.213  0.00  0.00    +0.000 A 
ATOM     25  C   UNL     1      -0.185  16.456  18.562  0.00  0.00    +0.000 A 
ATOM     26  S   UNL     1       1.453  16.928  18.477  0.00  0.00    +0.000 S 
ATOM     27  C   UNL     1       1.944  15.525  19.311  0.00  0.00    +0.000 A 
ENDBRANCH  20  23
ENDBRANCH   5  19
TORSDOF 4
ENDMDL
MODEL 9
REMARK VINA RESULT:      -7.0      0.999      1.238
REMARK  Name = 
REMARK  5 active torsions:
REMARK  status: ('A' for Active; 'I' for Inactive)
REMARK    1  A    between atoms: C_1  and  O_2
REMARK    2  A    between atoms: O_2  and  C_3
REMARK    3  A    between atoms: C_8  and  C_9
REMARK    4  A    between atoms: C_13  and  N_14
REMARK    5  A    between atoms: C_15  and  C_17
REMARK                            x       y       z     vdW  Elec       q    Type
REMARK                         _______ _______ _______ _____ _____    ______ ____
ROOT
ATOM      1  C   UNL     1       2.379   5.886  19.922  0.00  0.00    +0.000 A 
ATOM      2  C   UNL     1       2.224   4.791  20.784  0.00  0.00    +0.000 A 
ATOM      3  C   UNL     1       2.767   3.554  20.456  0.00  0.00    +0.000 A 
ATOM      4  C   UNL     1       3.463   3.394  19.257  0.00  0.00    +0.000 A 
ATOM      5  C   UNL     1       3.625   4.462  18.372  0.00  0.00    +0.000 A 
ATOM      6  C   UNL     1       3.102   5.714  18.726  0.00  0.00    +0.000 A 
ENDROOT
BRANCH   1  12
ATOM      7  C   UNL     1       0.210  11.391  20.777  0.00  0.00    +0.000 A 
ATOM      8  C   UNL     1      -0.071  10.914  22.062  0.00  0.00    +0.000 A 
ATOM      9  C   UNL     1       0.242   9.602  22.438  0.00  0.00    +0.000 A 
ATOM     10  C   UNL     1       0.840   8.801  21.466  0.00  0.00    +0.000 A 
ATOM     11  N   UNL     1       1.275   7.503  21.483  0.00  0.00    +0.000 N 
ATOM     12  C   UNL     1       1.805   7.194  20.249  0.00  0.00    +0.000 A 
ATOM     13  N   UNL     1       1.690   8.229  19.436  0.00  0.00    +0.000 NA
ATOM     14  C   UNL     1       1.114   9.234  20.177  0.00  0.00    +0.000 A 
ATOM     15  C   UNL     1       0.788  10.548  19.816  0.00  0.00    +0.000 A 
ATOM     16  H   UNL     1       1.208   6.873  22.266  0.00  0.00    +0.000 HD
BRANCH   7  18
ATOM     17  C   UNL     1       0.415  12.982  19.040  0.00  0.00    +0.000 C 
ATOM     18  O   UNL     1      -0.075  12.658  20.337  0.00  0.00    +0.000 OA
ENDBRANCH   7  18
ENDBRANCH   1  12
BRANCH   5  19
ATOM     19  N   UNL     1       4.313   4.341  17.137  0.00  0.00    +0.000 N 
ATOM     20  C   UNL     1       5.666   4.571  16.942  0.00  0.00    +0.000 C 
ATOM     21  O   UNL     1       6.471   4.806  17.839  0.00  0.00    +0.000 OA
ATOM     22  H   UNL     1       3.773   3.996  16.355  0.00  0.00    +0.000 HD
BRANCH  20  23
ATOM     23  C   UNL     1       6.140   4.505  15.550  0.00  0.00    +0.000 A 
ATOM     24  C   UNL     1       7.267   5.141  14.921  0.00  0.00    +0.000 A 
ATOM     25  C   UNL     1       7.395   4.805  13.589  0.00  0.00    +0.000 A 
ATOM     26  S   UNL     1       6.168   3.738  13.069  0.00  0.00    +0.000 S 
ATOM     27  C   UNL     1       5.466   3.721  14.623  0.00  0.00    +0.000 A 
ENDBRANCH  20  23
ENDBRANCH   5  19
TORSDOF 4
ENDMDL
