MODEL 1
REMARK VINA RESULT:      -7.2      0.000      0.000
REMARK  Name = 
REMARK  6 active torsions:
REMARK  status: ('A' for Active; 'I' for Inactive)
REMARK    1  A    between atoms: C_1  and  N_2
REMARK    2  A    between atoms: C_4  and  C_5
REMARK    3  A    between atoms: C_10  and  N_11
REMARK    4  A    between atoms: N_11  and  S_12
REMARK    5  A    between atoms: S_12  and  C_15
REMARK    6  A    between atoms: C_15  and  C_16
REMARK                            x       y       z     vdW  Elec       q    Type
REMARK                         _______ _______ _______ _____ _____    ______ ____
ROOT
ATOM      1  C   UNL     1      -0.145   9.366  22.966  0.00  0.00    +0.000 C 
ATOM      2  N   UNL     1      -0.017   9.689  21.562  0.00  0.00    +0.000 N 
ATOM      3  C   UNL     1      -0.673  10.720  20.938  0.00  0.00    +0.000 A 
ATOM      4  C   UNL     1      -0.301  10.718  19.612  0.00  0.00    +0.000 A 
ATOM      5  C   UNL     1       0.622   9.646  19.420  0.00  0.00    +0.000 A 
ATOM      6  C   UNL     1       1.338   9.147  18.312  0.00  0.00    +0.000 A 
ATOM      7  C   UNL     1       2.180   8.034  18.469  0.00  0.00    +0.000 A 
ATOM      8  C   UNL     1       2.307   7.415  19.710  0.00  0.00    +0.000 A 
ATOM      9  C   UNL     1       1.610   7.890  20.824  0.00  0.00    +0.000 A 
ATOM     10  C   UNL     1       0.776   9.012  20.659  0.00  0.00    +0.000 A 
ENDROOT
BRANCH   4  11
ATOM     11  C   UNL     1      -0.774  11.638  18.626  0.00  0.00    +0.000 C 
ATOM     12  N   UNL     1      -1.167  12.386  17.825  0.00  0.00    +0.000 NA
ENDBRANCH   4  11
BRANCH   8  13
ATOM     13  N   UNL     1       3.114   6.256  19.860  0.00  0.00    +0.000 N 
ATOM     14  H   UNL     1       4.114   6.331  19.684  0.00  0.00    +0.000 HD
BRANCH  13  15
ATOM     15  S   UNL     1       2.473   4.711  19.681  0.00  0.00    +0.000 S 
ATOM     16  O   UNL     1       2.112   4.314  21.029  0.00  0.00    +0.000 OA
ATOM     17  O   UNL     1       1.490   4.752  18.618  0.00  0.00    +0.000 OA
BRANCH  15  18
ATOM     18  C   UNL     1       3.895   3.717  19.171  0.00  0.00    +0.000 C 
BRANCH  18  19
ATOM     19  C   UNL     1       4.858   4.569  18.371  0.00  0.00    +0.000 A 
ATOM     20  C   UNL     1       6.068   4.983  18.950  0.00  0.00    +0.000 A 
ATOM     21  C   UNL     1       6.957   5.799  18.246  0.00  0.00    +0.000 A 
ATOM     22  C   UNL     1       6.655   6.207  16.951  0.00  0.00    +0.000 A 
ATOM     23  C   UNL     1       5.468   5.789  16.353  0.00  0.00    +0.000 A 
ATOM     24  C   UNL     1       4.572   4.975  17.058  0.00  0.00    +0.000 A 
ENDBRANCH  18  19
ENDBRANCH  15  18
ENDBRANCH  13  15
ENDBRANCH   8  13
TORSDOF 5
ENDMDL
MODEL 2
REMARK VINA RESULT:      -7.1      2.344      4.021
REMARK  Name = 
REMARK  6 active torsions:
REMARK  status: ('A' for Active; 'I' for Inactive)
REMARK    1  A    between atoms: C_1  and  N_2
REMARK    2  A    between atoms: C_4  and  C_5
REMARK    3  A    between atoms: C_10  and  N_11
REMARK    4  A    between atoms: N_11  and  S_12
REMARK    5  A    between atoms: S_12  and  C_15
REMARK    6  A    between atoms: C_15  and  C_16
REMARK                            x       y       z     vdW  Elec       q    Type
REMARK                         _______ _______ _______ _____ _____    ______ ____
ROOT
ATOM      1  C   UNL     1       1.650  11.167  18.084  0.00  0.00    +0.000 C 
ATOM      2  N   UNL     1       1.446  10.311  19.232  0.00  0.00    +0.000 N 
ATOM      3  C   UNL     1       0.946  10.732  20.438  0.00  0.00    +0.000 A 
ATOM      4  C   UNL     1       0.894   9.644  21.280  0.00  0.00    +0.000 A 
ATOM      5  C   UNL     1       1.378   8.512  20.557  0.00  0.00    +0.000 A 
ATOM      6  C   UNL     1       1.563   7.147  20.868  0.00  0.00    +0.000 A 
ATOM      7  C   UNL     1       2.088   6.277  19.900  0.00  0.00    +0.000 A 
ATOM      8  C   UNL     1       2.436   6.751  18.638  0.00  0.00    +0.000 A 
ATOM      9  C   UNL     1       2.263   8.097  18.304  0.00  0.00    +0.000 A 
ATOM     10  C   UNL     1       1.726   8.961  19.278  0.00  0.00    +0.000 A 
ENDROOT
BRANCH   4  11
ATOM     11  C   UNL     1       0.433   9.673  22.633  0.00  0.00    +0.000 C 
ATOM     12  N   UNL     1       0.055   9.690  23.733  0.00  0.00    +0.000 NA
ENDBRANCH   4  11
BRANCH   8  13
ATOM     13  N   UNL     1       3.019   5.885  17.676  0.00  0.00    +0.000 N 
ATOM     14  H   UNL     1       2.406   5.361  17.055  0.00  0.00    +0.000 HD
BRANCH  13  15
ATOM     15  S   UNL     1       4.540   5.206  17.913  0.00  0.00    +0.000 S 
ATOM     16  O   UNL     1       5.247   5.469  16.672  0.00  0.00    +0.000 OA
ATOM     17  O   UNL     1       5.050   5.678  19.185  0.00  0.00    +0.000 OA
BRANCH  15  18
ATOM     18  C   UNL     1       4.206   3.432  17.998  0.00  0.00    +0.000 C 
BRANCH  18  19
ATOM     19  C   UNL     1       3.129   3.160  19.026  0.00  0.00    +0.000 A 
ATOM     20  C   UNL     1       3.477   3.006  20.377  0.00  0.00    +0.000 A 
ATOM     21  C   UNL     1       2.507   2.719  21.340  0.00  0.00    +0.000 A 
ATOM     22  C   UNL     1       1.173   2.588  20.970  0.00  0.00    +0.000 A 
ATOM     23  C   UNL     1       0.805   2.758  19.636  0.00  0.00    +0.000 A 
ATOM     24  C   UNL     1       1.776   3.042  18.668  0.00  0.00    +0.000 A 
ENDBRANCH  18  19
ENDBRANCH  15  18
ENDBRANCH  13  15
ENDBRANCH   8  13
TORSDOF 5
ENDMDL
MODEL 3
REMARK VINA RESULT:      -7.0      2.315      4.116
REMARK  Name = 
REMARK  6 active torsions:
REMARK  status: ('A' for Active; 'I' for Inactive)
REMARK    1  A    between atoms: C_1  and  N_2
REMARK    2  A    between atoms: C_4  and  C_5
REMARK    3  A    between atoms: C_10  and  N_11
REMARK    4  A    between atoms: N_11  and  S_12
REMARK    5  A    between atoms: S_12  and  C_15
REMARK    6  A    between atoms: C_15  and  C_16
REMARK                            x       y       z     vdW  Elec       q    Type
REMARK                         _______ _______ _______ _____ _____    ______ ____
ROOT
ATOM      1  C   UNL     1       1.669  11.101  18.099  0.00  0.00    +0.000 C 
ATOM      2  N   UNL     1       1.461  10.240  19.242  0.00  0.00    +0.000 N 
ATOM      3  C   UNL     1       0.962  10.658  20.450  0.00  0.00    +0.000 A 
ATOM      4  C   UNL     1       0.903   9.566  21.286  0.00  0.00    +0.000 A 
ATOM      5  C   UNL     1       1.382   8.435  20.559  0.00  0.00    +0.000 A 
ATOM      6  C   UNL     1       1.559   7.068  20.863  0.00  0.00    +0.000 A 
ATOM      7  C   UNL     1       2.080   6.200  19.891  0.00  0.00    +0.000 A 
ATOM      8  C   UNL     1       2.431   6.679  18.631  0.00  0.00    +0.000 A 
ATOM      9  C   UNL     1       2.266   8.027  18.304  0.00  0.00    +0.000 A 
ATOM     10  C   UNL     1       1.733   8.889  19.281  0.00  0.00    +0.000 A 
ENDROOT
BRANCH   4  11
ATOM     11  C   UNL     1       0.442   9.592  22.639  0.00  0.00    +0.000 C 
ATOM     12  N   UNL     1       0.071   9.618  23.742  0.00  0.00    +0.000 NA
ENDBRANCH   4  11
BRANCH   8  13
ATOM     13  N   UNL     1       3.011   5.814  17.666  0.00  0.00    +0.000 N 
ATOM     14  H   UNL     1       2.402   5.182  17.147  0.00  0.00    +0.000 HD
BRANCH  13  15
ATOM     15  S   UNL     1       4.617   5.324  17.775  0.00  0.00    +0.000 S 
ATOM     16  O   UNL     1       5.197   5.712  16.503  0.00  0.00    +0.000 OA
ATOM     17  O   UNL     1       5.152   5.815  19.029  0.00  0.00    +0.000 OA
BRANCH  15  18
ATOM     18  C   UNL     1       4.510   3.520  17.811  0.00  0.00    +0.000 C 
BRANCH  18  19
ATOM     19  C   UNL     1       3.330   3.091  18.656  0.00  0.00    +0.000 A 
ATOM     20  C   UNL     1       2.112   2.766  18.037  0.00  0.00    +0.000 A 
ATOM     21  C   UNL     1       0.997   2.402  18.796  0.00  0.00    +0.000 A 
ATOM     22  C   UNL     1       1.083   2.348  20.183  0.00  0.00    +0.000 A 
ATOM     23  C   UNL     1       2.290   2.647  20.814  0.00  0.00    +0.000 A 
ATOM     24  C   UNL     1       3.408   3.017  20.056  0.00  0.00    +0.000 A 
ENDBRANCH  18  19
ENDBRANCH  15  18
ENDBRANCH  13  15
ENDBRANCH   8  13
TORSDOF 5
ENDMDL
MODEL 4
REMARK VINA RESULT:      -7.0      0.769      1.227
REMARK  Name = 
REMARK  6 active torsions:
REMARK  status: ('A' for Active; 'I' for Inactive)
REMARK    1  A    between atoms: C_1  and  N_2
REMARK    2  A    between atoms: C_4  and  C_5
REMARK    3  A    between atoms: C_10  and  N_11
REMARK    4  A    between atoms: N_11  and  S_12
REMARK    5  A    between atoms: S_12  and  C_15
REMARK    6  A    between atoms: C_15  and  C_16
REMARK                            x       y       z     vdW  Elec       q    Type
REMARK                         _______ _______ _______ _____ _____    ______ ____
ROOT
ATOM      1  C   UNL     1      -0.256   9.552  23.101  0.00  0.00    +0.000 C 
ATOM      2  N   UNL     1      -0.083   9.904  21.709  0.00  0.00    +0.000 N 
ATOM      3  C   UNL     1      -0.664  10.989  21.103  0.00  0.00    +0.000 A 
ATOM      4  C   UNL     1      -0.270  10.999  19.784  0.00  0.00    +0.000 A 
ATOM      5  C   UNL     1       0.590   9.879  19.577  0.00  0.00    +0.000 A 
ATOM      6  C   UNL     1       1.295   9.365  18.467  0.00  0.00    +0.000 A 
ATOM      7  C   UNL     1       2.064   8.200  18.608  0.00  0.00    +0.000 A 
ATOM      8  C   UNL     1       2.131   7.541  19.833  0.00  0.00    +0.000 A 
ATOM      9  C   UNL     1       1.444   8.028  20.948  0.00  0.00    +0.000 A 
ATOM     10  C   UNL     1       0.683   9.203  20.800  0.00  0.00    +0.000 A 
ENDROOT
BRANCH   4  11
ATOM     11  C   UNL     1      -0.668  11.973  18.815  0.00  0.00    +0.000 C 
ATOM     12  N   UNL     1      -0.984  12.765  18.023  0.00  0.00    +0.000 NA
ENDBRANCH   4  11
BRANCH   8  13
ATOM     13  N   UNL     1       2.863   6.331  19.964  0.00  0.00    +0.000 N 
ATOM     14  H   UNL     1       3.872   6.382  20.092  0.00  0.00    +0.000 HD
BRANCH  13  15
ATOM     15  S   UNL     1       2.301   4.889  19.306  0.00  0.00    +0.000 S 
ATOM     16  O   UNL     1       1.259   4.459  20.221  0.00  0.00    +0.000 OA
ATOM     17  O   UNL     1       2.025   5.113  17.901  0.00  0.00    +0.000 OA
BRANCH  15  18
ATOM     18  C   UNL     1       3.702   3.762  19.490  0.00  0.00    +0.000 C 
BRANCH  18  19
ATOM     19  C   UNL     1       4.735   4.046  18.421  0.00  0.00    +0.000 A 
ATOM     20  C   UNL     1       4.549   3.548  17.122  0.00  0.00    +0.000 A 
ATOM     21  C   UNL     1       5.504   3.766  16.127  0.00  0.00    +0.000 A 
ATOM     22  C   UNL     1       6.657   4.490  16.411  0.00  0.00    +0.000 A 
ATOM     23  C   UNL     1       6.850   5.010  17.690  0.00  0.00    +0.000 A 
ATOM     24  C   UNL     1       5.895   4.790  18.691  0.00  0.00    +0.000 A 
ENDBRANCH  18  19
ENDBRANCH  15  18
ENDBRANCH  13  15
ENDBRANCH   8  13
TORSDOF 5
ENDMDL
MODEL 5
REMARK VINA RESULT:      -6.7      3.145      6.897
REMARK  Name = 
REMARK  6 active torsions:
REMARK  status: ('A' for Active; 'I' for Inactive)
REMARK    1  A    between atoms: C_1  and  N_2
REMARK    2  A    between atoms: C_4  and  C_5
REMARK    3  A    between atoms: C_10  and  N_11
REMARK    4  A    between atoms: N_11  and  S_12
REMARK    5  A    between atoms: S_12  and  C_15
REMARK    6  A    between atoms: C_15  and  C_16
REMARK                            x       y       z     vdW  Elec       q    Type
REMARK                         _______ _______ _______ _____ _____    ______ ____
ROOT
ATOM      1  C   UNL     1       7.756   5.966  18.730  0.00  0.00    +0.000 C 
ATOM      2  N   UNL     1       7.039   5.288  17.673  0.00  0.00    +0.000 N 
ATOM      3  C   UNL     1       7.410   5.298  16.352  0.00  0.00    +0.000 A 
ATOM      4  C   UNL     1       6.494   4.547  15.649  0.00  0.00    +0.000 A 
ATOM      5  C   UNL     1       5.529   4.056  16.579  0.00  0.00    +0.000 A 
ATOM      6  C   UNL     1       4.376   3.249  16.471  0.00  0.00    +0.000 A 
ATOM      7  C   UNL     1       3.621   2.956  17.618  0.00  0.00    +0.000 A 
ATOM      8  C   UNL     1       3.997   3.462  18.859  0.00  0.00    +0.000 A 
ATOM      9  C   UNL     1       5.134   4.263  18.994  0.00  0.00    +0.000 A 
ATOM     10  C   UNL     1       5.891   4.544  17.840  0.00  0.00    +0.000 A 
ENDROOT
BRANCH   4  11
ATOM     11  C   UNL     1       6.530   4.319  14.238  0.00  0.00    +0.000 C 
ATOM     12  N   UNL     1       6.559   4.141  13.088  0.00  0.00    +0.000 NA
ENDBRANCH   4  11
BRANCH   8  13
ATOM     13  N   UNL     1       3.203   3.213  20.010  0.00  0.00    +0.000 N 
ATOM     14  H   UNL     1       3.225   2.285  20.428  0.00  0.00    +0.000 HD
BRANCH  13  15
ATOM     15  S   UNL     1       1.812   4.104  20.328  0.00  0.00    +0.000 S 
ATOM     16  O   UNL     1       1.267   4.398  19.015  0.00  0.00    +0.000 OA
ATOM     17  O   UNL     1       1.038   3.389  21.322  0.00  0.00    +0.000 OA
BRANCH  15  18
ATOM     18  C   UNL     1       2.444   5.647  21.026  0.00  0.00    +0.000 C 
BRANCH  18  19
ATOM     19  C   UNL     1       2.212   6.784  20.054  0.00  0.00    +0.000 A 
ATOM     20  C   UNL     1       2.815   6.752  18.787  0.00  0.00    +0.000 A 
ATOM     21  C   UNL     1       2.646   7.806  17.886  0.00  0.00    +0.000 A 
ATOM     22  C   UNL     1       1.867   8.904  18.233  0.00  0.00    +0.000 A 
ATOM     23  C   UNL     1       1.243   8.944  19.479  0.00  0.00    +0.000 A 
ATOM     24  C   UNL     1       1.414   7.891  20.386  0.00  0.00    +0.000 A 
ENDBRANCH  18  19
ENDBRANCH  15  18
ENDBRANCH  13  15
ENDBRANCH   8  13
TORSDOF 5
ENDMDL
MODEL 6
REMARK VINA RESULT:      -6.6      3.015      6.980
REMARK  Name = 
REMARK  6 active torsions:
REMARK  status: ('A' for Active; 'I' for Inactive)
REMARK    1  A    between atoms: C_1  and  N_2
REMARK    2  A    between atoms: C_4  and  C_5
REMARK    3  A    between atoms: C_10  and  N_11
REMARK    4  A    between atoms: N_11  and  S_12
REMARK    5  A    between atoms: S_12  and  C_15
REMARK    6  A    between atoms: C_15  and  C_16
REMARK                            x       y       z     vdW  Elec       q    Type
REMARK                         _______ _______ _______ _____ _____    ______ ____
ROOT
ATOM      1  C   UNL     1       7.631   6.267  18.052  0.00  0.00    +0.000 C 
ATOM      2  N   UNL     1       6.892   5.418  17.144  0.00  0.00    +0.000 N 
ATOM      3  C   UNL     1       7.190   5.254  15.815  0.00  0.00    +0.000 A 
ATOM      4  C   UNL     1       6.275   4.376  15.280  0.00  0.00    +0.000 A 
ATOM      5  C   UNL     1       5.386   3.983  16.325  0.00  0.00    +0.000 A 
ATOM      6  C   UNL     1       4.268   3.124  16.400  0.00  0.00    +0.000 A 
ATOM      7  C   UNL     1       3.591   2.967  17.619  0.00  0.00    +0.000 A 
ATOM      8  C   UNL     1       4.008   3.660  18.753  0.00  0.00    +0.000 A 
ATOM      9  C   UNL     1       5.111   4.516  18.706  0.00  0.00    +0.000 A 
ATOM     10  C   UNL     1       5.791   4.660  17.482  0.00  0.00    +0.000 A 
ENDROOT
BRANCH   4  11
ATOM     11  C   UNL     1       6.246   3.950  13.915  0.00  0.00    +0.000 C 
ATOM     12  N   UNL     1       6.223   3.597  12.806  0.00  0.00    +0.000 NA
ENDBRANCH   4  11
BRANCH   8  13
ATOM     13  N   UNL     1       3.290   3.546  19.973  0.00  0.00    +0.000 N 
ATOM     14  H   UNL     1       3.468   2.742  20.572  0.00  0.00    +0.000 HD
BRANCH  13  15
ATOM     15  S   UNL     1       1.782   4.265  20.176  0.00  0.00    +0.000 S 
ATOM     16  O   UNL     1       1.356   4.591  18.827  0.00  0.00    +0.000 OA
ATOM     17  O   UNL     1       0.987   3.407  21.031  0.00  0.00    +0.000 OA
BRANCH  15  18
ATOM     18  C   UNL     1       2.160   5.813  21.029  0.00  0.00    +0.000 C 
BRANCH  18  19
ATOM     19  C   UNL     1       2.048   6.974  20.064  0.00  0.00    +0.000 A 
ATOM     20  C   UNL     1       1.311   8.112  20.425  0.00  0.00    +0.000 A 
ATOM     21  C   UNL     1       1.162   9.181  19.539  0.00  0.00    +0.000 A 
ATOM     22  C   UNL     1       1.753   9.134  18.281  0.00  0.00    +0.000 A 
ATOM     23  C   UNL     1       2.505   8.020  17.912  0.00  0.00    +0.000 A 
ATOM     24  C   UNL     1       2.653   6.944  18.797  0.00  0.00    +0.000 A 
ENDBRANCH  18  19
ENDBRANCH  15  18
ENDBRANCH  13  15
ENDBRANCH   8  13
TORSDOF 5
ENDMDL
MODEL 7
REMARK VINA RESULT:      -6.6      4.144      6.209
REMARK  Name = 
REMARK  6 active torsions:
REMARK  status: ('A' for Active; 'I' for Inactive)
REMARK    1  A    between atoms: C_1  and  N_2
REMARK    2  A    between atoms: C_4  and  C_5
REMARK    3  A    between atoms: C_10  and  N_11
REMARK    4  A    between atoms: N_11  and  S_12
REMARK    5  A    between atoms: S_12  and  C_15
REMARK    6  A    between atoms: C_15  and  C_16
REMARK                            x       y       z     vdW  Elec       q    Type
REMARK                         _______ _______ _______ _____ _____    ______ ____
ROOT
ATOM      1  C   UNL     1       4.064   2.847  19.420  0.00  0.00    +0.000 C 
ATOM      2  N   UNL     1       3.619   4.221  19.344  0.00  0.00    +0.000 N 
ATOM      3  C   UNL     1       2.788   4.821  20.255  0.00  0.00    +0.000 A 
ATOM      4  C   UNL     1       2.589   6.123  19.854  0.00  0.00    +0.000 A 
ATOM      5  C   UNL     1       3.333   6.327  18.653  0.00  0.00    +0.000 A 
ATOM      6  C   UNL     1       3.528   7.424  17.787  0.00  0.00    +0.000 A 
ATOM      7  C   UNL     1       4.338   7.279  16.649  0.00  0.00    +0.000 A 
ATOM      8  C   UNL     1       4.944   6.058  16.366  0.00  0.00    +0.000 A 
ATOM      9  C   UNL     1       4.769   4.956  17.207  0.00  0.00    +0.000 A 
ATOM     10  C   UNL     1       3.963   5.114  18.350  0.00  0.00    +0.000 A 
ENDROOT
BRANCH   4  11
ATOM     11  C   UNL     1       1.776   7.079  20.540  0.00  0.00    +0.000 C 
ATOM     12  N   UNL     1       1.111   7.858  21.091  0.00  0.00    +0.000 NA
ENDBRANCH   4  11
BRANCH   8  13
ATOM     13  N   UNL     1       5.718   5.892  15.187  0.00  0.00    +0.000 N 
ATOM     14  H   UNL     1       5.406   6.346  14.330  0.00  0.00    +0.000 HD
BRANCH  13  15
ATOM     15  S   UNL     1       6.702   4.546  14.962  0.00  0.00    +0.000 S 
ATOM     16  O   UNL     1       7.861   4.807  15.796  0.00  0.00    +0.000 OA
ATOM     17  O   UNL     1       5.890   3.361  15.149  0.00  0.00    +0.000 OA
BRANCH  15  18
ATOM     18  C   UNL     1       7.218   4.679  13.235  0.00  0.00    +0.000 C 
BRANCH  18  19
ATOM     19  C   UNL     1       6.476   3.660  12.396  0.00  0.00    +0.000 A 
ATOM     20  C   UNL     1       5.100   3.813  12.167  0.00  0.00    +0.000 A 
ATOM     21  C   UNL     1       4.386   2.869  11.428  0.00  0.00    +0.000 A 
ATOM     22  C   UNL     1       5.036   1.759  10.899  0.00  0.00    +0.000 A 
ATOM     23  C   UNL     1       6.406   1.599  11.098  0.00  0.00    +0.000 A 
ATOM     24  C   UNL     1       7.124   2.543  11.843  0.00  0.00    +0.000 A 
ENDBRANCH  18  19
ENDBRANCH  15  18
ENDBRANCH  13  15
ENDBRANCH   8  13
TORSDOF 5
ENDMDL
MODEL 8
REMARK VINA RESULT:      -6.6      2.176      3.313
REMARK  Name = 
REMARK  6 active torsions:
REMARK  status: ('A' for Active; 'I' for Inactive)
REMARK    1  A    between atoms: C_1  and  N_2
REMARK    2  A    between atoms: C_4  and  C_5
REMARK    3  A    between atoms: C_10  and  N_11
REMARK    4  A    between atoms: N_11  and  S_12
REMARK    5  A    between atoms: S_12  and  C_15
REMARK    6  A    between atoms: C_15  and  C_16
REMARK                            x       y       z     vdW  Elec       q    Type
REMARK                         _______ _______ _______ _____ _____    ______ ____
ROOT
ATOM      1  C   UNL     1       2.264   9.158  17.459  0.00  0.00    +0.000 C 
ATOM      2  N   UNL     1       1.948   8.656  18.778  0.00  0.00    +0.000 N 
ATOM      3  C   UNL     1       1.634   9.444  19.856  0.00  0.00    +0.000 A 
ATOM      4  C   UNL     1       1.394   8.617  20.930  0.00  0.00    +0.000 A 
ATOM      5  C   UNL     1       1.564   7.270  20.490  0.00  0.00    +0.000 A 
ATOM      6  C   UNL     1       1.457   6.007  21.111  0.00  0.00    +0.000 A 
ATOM      7  C   UNL     1       1.710   4.842  20.369  0.00  0.00    +0.000 A 
ATOM      8  C   UNL     1       2.074   4.924  19.028  0.00  0.00    +0.000 A 
ATOM      9  C   UNL     1       2.186   6.162  18.388  0.00  0.00    +0.000 A 
ATOM     10  C   UNL     1       1.920   7.324  19.137  0.00  0.00    +0.000 A 
ENDROOT
BRANCH   4  11
ATOM     11  C   UNL     1       1.039   9.059  22.243  0.00  0.00    +0.000 C 
ATOM     12  N   UNL     1       0.759   9.420  23.313  0.00  0.00    +0.000 NA
ENDBRANCH   4  11
BRANCH   8  13
ATOM     13  N   UNL     1       2.385   3.751  18.291  0.00  0.00    +0.000 N 
ATOM     14  H   UNL     1       1.637   3.091  18.084  0.00  0.00    +0.000 HD
BRANCH  13  15
ATOM     15  S   UNL     1       3.933   3.092  18.300  0.00  0.00    +0.000 S 
ATOM     16  O   UNL     1       4.584   3.721  19.435  0.00  0.00    +0.000 OA
ATOM     17  O   UNL     1       3.809   1.652  18.205  0.00  0.00    +0.000 OA
BRANCH  15  18
ATOM     18  C   UNL     1       4.684   3.750  16.793  0.00  0.00    +0.000 C 
BRANCH  18  19
ATOM     19  C   UNL     1       5.633   4.877  17.141  0.00  0.00    +0.000 A 
ATOM     20  C   UNL     1       6.866   4.589  17.746  0.00  0.00    +0.000 A 
ATOM     21  C   UNL     1       7.744   5.613  18.109  0.00  0.00    +0.000 A 
ATOM     22  C   UNL     1       7.407   6.940  17.867  0.00  0.00    +0.000 A 
ATOM     23  C   UNL     1       6.196   7.245  17.249  0.00  0.00    +0.000 A 
ATOM     24  C   UNL     1       5.312   6.221  16.887  0.00  0.00    +0.000 A 
ENDBRANCH  18  19
ENDBRANCH  15  18
ENDBRANCH  13  15
ENDBRANCH   8  13
TORSDOF 5
ENDMDL
MODEL 9
REMARK VINA RESULT:      -6.5      1.474      2.524
REMARK  Name = 
REMARK  6 active torsions:
REMARK  status: ('A' for Active; 'I' for Inactive)
REMARK    1  A    between atoms: C_1  and  N_2
REMARK    2  A    between atoms: C_4  and  C_5
REMARK    3  A    between atoms: C_10  and  N_11
REMARK    4  A    between atoms: N_11  and  S_12
REMARK    5  A    between atoms: S_12  and  C_15
REMARK    6  A    between atoms: C_15  and  C_16
REMARK                            x       y       z     vdW  Elec       q    Type
REMARK                         _______ _______ _______ _____ _____    ______ ____
ROOT
ATOM      1  C   UNL     1       1.849  10.725  17.851  0.00  0.00    +0.000 C 
ATOM      2  N   UNL     1       1.421  10.116  19.091  0.00  0.00    +0.000 N 
ATOM      3  C   UNL     1       0.734  10.769  20.083  0.00  0.00    +0.000 A 
ATOM      4  C   UNL     1       0.501   9.872  21.100  0.00  0.00    +0.000 A 
ATOM      5  C   UNL     1       1.064   8.619  20.712  0.00  0.00    +0.000 A 
ATOM      6  C   UNL     1       1.147   7.344  21.314  0.00  0.00    +0.000 A 
ATOM      7  C   UNL     1       1.802   6.299  20.645  0.00  0.00    +0.000 A 
ATOM      8  C   UNL     1       2.379   6.512  19.396  0.00  0.00    +0.000 A 
ATOM      9  C   UNL     1       2.312   7.763  18.777  0.00  0.00    +0.000 A 
ATOM     10  C   UNL     1       1.644   8.803  19.451  0.00  0.00    +0.000 A 
ENDROOT
BRANCH   4  11
ATOM     11  C   UNL     1      -0.186  10.170  22.318  0.00  0.00    +0.000 C 
ATOM     12  N   UNL     1      -0.749  10.406  23.309  0.00  0.00    +0.000 NA
ENDBRANCH   4  11
BRANCH   8  13
ATOM     13  N   UNL     1       3.091   5.471  18.742  0.00  0.00    +0.000 N 
ATOM     14  H   UNL     1       3.910   5.713  18.187  0.00  0.00    +0.000 HD
BRANCH  13  15
ATOM     15  S   UNL     1       2.341   4.028  18.312  0.00  0.00    +0.000 S 
ATOM     16  O   UNL     1       2.049   3.384  19.579  0.00  0.00    +0.000 OA
ATOM     17  O   UNL     1       1.291   4.334  17.362  0.00  0.00    +0.000 OA
BRANCH  15  18
ATOM     18  C   UNL     1       3.656   3.090  17.501  0.00  0.00    +0.000 C 
BRANCH  18  19
ATOM     19  C   UNL     1       4.816   4.007  17.175  0.00  0.00    +0.000 A 
ATOM     20  C   UNL     1       5.819   4.230  18.132  0.00  0.00    +0.000 A 
ATOM     21  C   UNL     1       6.880   5.098  17.869  0.00  0.00    +0.000 A 
ATOM     22  C   UNL     1       6.962   5.752  16.644  0.00  0.00    +0.000 A 
ATOM     23  C   UNL     1       5.987   5.527  15.674  0.00  0.00    +0.000 A 
ATOM     24  C   UNL     1       4.919   4.659  15.936  0.00  0.00    +0.000 A 
ENDBRANCH  18  19
ENDBRANCH  15  18
ENDBRANCH  13  15
ENDBRANCH   8  13
TORSDOF 5
ENDMDL
