MODEL 1
REMARK VINA RESULT:      -9.0      0.000      0.000
REMARK  Name = 
REMARK  6 active torsions:
REMARK  status: ('A' for Active; 'I' for Inactive)
REMARK    1  A    between atoms: N_3  and  C_4
REMARK    2  A    between atoms: N_10  and  C_11
REMARK    3  A    between atoms: C_14  and  N_15
REMARK    4  A    between atoms: N_15  and  C_16
REMARK    5  A    between atoms: C_16  and  C_17
REMARK    6  A    between atoms: C_20  and  O_21
REMARK                            x       y       z     vdW  Elec       q    Type
REMARK                         _______ _______ _______ _____ _____    ______ ____
ROOT
ATOM      1  C   UNL     1       6.628   7.014  17.178  0.00  0.00    +0.000 A 
ATOM      2  C   UNL     1       7.363   5.830  17.245  0.00  0.00    +0.000 A 
ATOM      3  C   UNL     1       6.731   4.588  17.313  0.00  0.00    +0.000 A 
ATOM      4  C   UNL     1       5.343   4.487  17.356  0.00  0.00    +0.000 A 
ATOM      5  C   UNL     1       4.603   5.666  17.217  0.00  0.00    +0.000 A 
ATOM      6  C   UNL     1       5.235   6.919  17.144  0.00  0.00    +0.000 A 
ENDROOT
BRANCH   1  10
ATOM      7  O   UNL     1       8.739   8.031  18.867  0.00  0.00    +0.000 OA
ATOM      8  C   UNL     1       8.205   8.741  18.023  0.00  0.00    +0.000 C 
ATOM      9  N   UNL     1       8.503  10.084  17.857  0.00  0.00    +0.000 N 
ATOM     10  N   UNL     1       7.219   8.301  17.157  0.00  0.00    +0.000 N 
ATOM     11  H   UNL     1       7.843  10.642  17.338  0.00  0.00    +0.000 HD
ATOM     12  H   UNL     1       6.928   8.926  16.422  0.00  0.00    +0.000 HD
BRANCH   9  13
ATOM     13  C   UNL     1       9.462  10.785  18.633  0.00  0.00    +0.000 A 
ATOM     14  C   UNL     1      10.686  11.228  18.116  0.00  0.00    +0.000 A 
ATOM     15  C   UNL     1      11.639  11.831  18.936  0.00  0.00    +0.000 A 
ATOM     16  C   UNL     1      11.369  12.026  20.284  0.00  0.00    +0.000 A 
ATOM     17  C   UNL     1      10.136  11.634  20.804  0.00  0.00    +0.000 A 
ATOM     18  C   UNL     1       9.182  11.022  19.982  0.00  0.00    +0.000 A 
ENDBRANCH   9  13
ENDBRANCH   1  10
BRANCH   4  19
ATOM     19  N   UNL     1       4.777   3.217  17.421  0.00  0.00    +0.000 N 
ATOM     20  H   UNL     1       5.188   2.634  18.145  0.00  0.00    +0.000 HD
BRANCH  19  21
ATOM     21  C   UNL     1       3.331   3.058  17.349  0.00  0.00    +0.000 C 
BRANCH  21  22
ATOM     22  C   UNL     1       2.703   2.949  18.719  0.00  0.00    +0.000 A 
ATOM     23  C   UNL     1       1.335   3.170  18.952  0.00  0.00    +0.000 A 
ATOM     24  C   UNL     1       0.800   3.062  20.237  0.00  0.00    +0.000 A 
ATOM     25  C   UNL     1       1.634   2.726  21.298  0.00  0.00    +0.000 A 
ATOM     26  C   UNL     1       2.987   2.492  21.091  0.00  0.00    +0.000 A 
ATOM     27  C   UNL     1       3.521   2.600  19.806  0.00  0.00    +0.000 A 
BRANCH  25  28
ATOM     28  O   UNL     1       1.156   2.620  22.568  0.00  0.00    +0.000 OA
ATOM     29  H   UNL     1       0.596   3.393  22.748  0.00  0.00    +0.000 HD
ENDBRANCH  25  28
ENDBRANCH  21  22
ENDBRANCH  19  21
ENDBRANCH   4  19
TORSDOF 6
ENDMDL
MODEL 2
REMARK VINA RESULT:      -8.9      0.268      1.000
REMARK  Name = 
REMARK  6 active torsions:
REMARK  status: ('A' for Active; 'I' for Inactive)
REMARK    1  A    between atoms: N_3  and  C_4
REMARK    2  A    between atoms: N_10  and  C_11
REMARK    3  A    between atoms: C_14  and  N_15
REMARK    4  A    between atoms: N_15  and  C_16
REMARK    5  A    between atoms: C_16  and  C_17
REMARK    6  A    between atoms: C_20  and  O_21
REMARK                            x       y       z     vdW  Elec       q    Type
REMARK                         _______ _______ _______ _____ _____    ______ ____
ROOT
ATOM      1  C   UNL     1       6.585   6.938  17.077  0.00  0.00    +0.000 A 
ATOM      2  C   UNL     1       7.199   5.783  16.591  0.00  0.00    +0.000 A 
ATOM      3  C   UNL     1       6.579   4.538  16.690  0.00  0.00    +0.000 A 
ATOM      4  C   UNL     1       5.342   4.394  17.312  0.00  0.00    +0.000 A 
ATOM      5  C   UNL     1       4.693   5.559  17.736  0.00  0.00    +0.000 A 
ATOM      6  C   UNL     1       5.311   6.817  17.636  0.00  0.00    +0.000 A 
ENDROOT
BRANCH   1  10
ATOM      7  O   UNL     1       8.662   7.966  18.803  0.00  0.00    +0.000 OA
ATOM      8  C   UNL     1       8.159   8.665  17.930  0.00  0.00    +0.000 C 
ATOM      9  N   UNL     1       8.477  10.000  17.746  0.00  0.00    +0.000 N 
ATOM     10  N   UNL     1       7.191   8.218  17.047  0.00  0.00    +0.000 N 
ATOM     11  H   UNL     1       7.838  10.555  17.197  0.00  0.00    +0.000 HD
ATOM     12  H   UNL     1       6.928   8.830  16.292  0.00  0.00    +0.000 HD
BRANCH   9  13
ATOM     13  C   UNL     1       9.422  10.707  18.533  0.00  0.00    +0.000 A 
ATOM     14  C   UNL     1      10.625  11.206  18.017  0.00  0.00    +0.000 A 
ATOM     15  C   UNL     1      11.569  11.813  18.845  0.00  0.00    +0.000 A 
ATOM     16  C   UNL     1      11.309  11.955  20.202  0.00  0.00    +0.000 A 
ATOM     17  C   UNL     1      10.096  11.506  20.722  0.00  0.00    +0.000 A 
ATOM     18  C   UNL     1       9.152  10.891  19.892  0.00  0.00    +0.000 A 
ENDBRANCH   9  13
ENDBRANCH   1  10
BRANCH   4  19
ATOM     19  N   UNL     1       4.779   3.123  17.375  0.00  0.00    +0.000 N 
ATOM     20  H   UNL     1       5.230   2.521  18.057  0.00  0.00    +0.000 HD
BRANCH  19  21
ATOM     21  C   UNL     1       3.332   2.966  17.379  0.00  0.00    +0.000 C 
BRANCH  21  22
ATOM     22  C   UNL     1       2.778   2.849  18.781  0.00  0.00    +0.000 A 
ATOM     23  C   UNL     1       3.589   2.627  19.906  0.00  0.00    +0.000 A 
ATOM     24  C   UNL     1       3.032   2.522  21.182  0.00  0.00    +0.000 A 
ATOM     25  C   UNL     1       1.655   2.644  21.339  0.00  0.00    +0.000 A 
ATOM     26  C   UNL     1       0.835   2.876  20.242  0.00  0.00    +0.000 A 
ATOM     27  C   UNL     1       1.392   2.980  18.967  0.00  0.00    +0.000 A 
BRANCH  25  28
ATOM     28  O   UNL     1       1.070   2.539  22.562  0.00  0.00    +0.000 OA
ATOM     29  H   UNL     1       1.771   2.441  23.228  0.00  0.00    +0.000 HD
ENDBRANCH  25  28
ENDBRANCH  21  22
ENDBRANCH  19  21
ENDBRANCH   4  19
TORSDOF 6
ENDMDL
MODEL 3
REMARK VINA RESULT:      -8.6      1.681      2.345
REMARK  Name = 
REMARK  6 active torsions:
REMARK  status: ('A' for Active; 'I' for Inactive)
REMARK    1  A    between atoms: N_3  and  C_4
REMARK    2  A    between atoms: N_10  and  C_11
REMARK    3  A    between atoms: C_14  and  N_15
REMARK    4  A    between atoms: N_15  and  C_16
REMARK    5  A    between atoms: C_16  and  C_17
REMARK    6  A    between atoms: C_20  and  O_21
REMARK                            x       y       z     vdW  Elec       q    Type
REMARK                         _______ _______ _______ _____ _____    ______ ____
ROOT
ATOM      1  C   UNL     1       7.894   7.016  18.395  0.00  0.00    +0.000 A 
ATOM      2  C   UNL     1       7.199   7.072  17.186  0.00  0.00    +0.000 A 
ATOM      3  C   UNL     1       6.486   5.972  16.710  0.00  0.00    +0.000 A 
ATOM      4  C   UNL     1       6.472   4.765  17.404  0.00  0.00    +0.000 A 
ATOM      5  C   UNL     1       7.108   4.728  18.649  0.00  0.00    +0.000 A 
ATOM      6  C   UNL     1       7.825   5.834  19.136  0.00  0.00    +0.000 A 
ENDROOT
BRANCH   1  10
ATOM      7  O   UNL     1       7.888   9.778  17.548  0.00  0.00    +0.000 OA
ATOM      8  C   UNL     1       8.651   9.385  18.422  0.00  0.00    +0.000 C 
ATOM      9  N   UNL     1       9.610  10.190  19.015  0.00  0.00    +0.000 N 
ATOM     10  N   UNL     1       8.674   8.086  18.899  0.00  0.00    +0.000 N 
ATOM     11  H   UNL     1      10.354   9.728  19.516  0.00  0.00    +0.000 HD
ATOM     12  H   UNL     1       9.254   7.890  19.699  0.00  0.00    +0.000 HD
BRANCH   9  13
ATOM     13  C   UNL     1       9.811  11.555  18.689  0.00  0.00    +0.000 A 
ATOM     14  C   UNL     1       9.117  12.600  19.311  0.00  0.00    +0.000 A 
ATOM     15  C   UNL     1       9.276  13.921  18.896  0.00  0.00    +0.000 A 
ATOM     16  C   UNL     1      10.159  14.221  17.866  0.00  0.00    +0.000 A 
ATOM     17  C   UNL     1      10.893  13.199  17.268  0.00  0.00    +0.000 A 
ATOM     18  C   UNL     1      10.728  11.871  17.681  0.00  0.00    +0.000 A 
ENDBRANCH   9  13
ENDBRANCH   1  10
BRANCH   4  19
ATOM     19  N   UNL     1       5.738   3.708  16.873  0.00  0.00    +0.000 N 
ATOM     20  H   UNL     1       5.781   2.868  17.442  0.00  0.00    +0.000 HD
BRANCH  19  21
ATOM     21  C   UNL     1       4.402   3.942  16.343  0.00  0.00    +0.000 C 
BRANCH  21  22
ATOM     22  C   UNL     1       3.337   3.793  17.406  0.00  0.00    +0.000 A 
ATOM     23  C   UNL     1       2.876   4.871  18.180  0.00  0.00    +0.000 A 
ATOM     24  C   UNL     1       1.893   4.685  19.154  0.00  0.00    +0.000 A 
ATOM     25  C   UNL     1       1.361   3.416  19.354  0.00  0.00    +0.000 A 
ATOM     26  C   UNL     1       1.792   2.338  18.592  0.00  0.00    +0.000 A 
ATOM     27  C   UNL     1       2.775   2.524  17.620  0.00  0.00    +0.000 A 
BRANCH  25  28
ATOM     28  O   UNL     1       0.408   3.189  20.299  0.00  0.00    +0.000 OA
ATOM     29  H   UNL     1      -0.411   3.629  20.017  0.00  0.00    +0.000 HD
ENDBRANCH  25  28
ENDBRANCH  21  22
ENDBRANCH  19  21
ENDBRANCH   4  19
TORSDOF 6
ENDMDL
MODEL 4
REMARK VINA RESULT:      -8.5      1.654      2.227
REMARK  Name = 
REMARK  6 active torsions:
REMARK  status: ('A' for Active; 'I' for Inactive)
REMARK    1  A    between atoms: N_3  and  C_4
REMARK    2  A    between atoms: N_10  and  C_11
REMARK    3  A    between atoms: C_14  and  N_15
REMARK    4  A    between atoms: N_15  and  C_16
REMARK    5  A    between atoms: C_16  and  C_17
REMARK    6  A    between atoms: C_20  and  O_21
REMARK                            x       y       z     vdW  Elec       q    Type
REMARK                         _______ _______ _______ _____ _____    ______ ____
ROOT
ATOM      1  C   UNL     1       7.947   7.049  18.427  0.00  0.00    +0.000 A 
ATOM      2  C   UNL     1       7.197   7.144  17.254  0.00  0.00    +0.000 A 
ATOM      3  C   UNL     1       6.502   6.045  16.748  0.00  0.00    +0.000 A 
ATOM      4  C   UNL     1       6.563   4.803  17.374  0.00  0.00    +0.000 A 
ATOM      5  C   UNL     1       7.256   4.723  18.587  0.00  0.00    +0.000 A 
ATOM      6  C   UNL     1       7.954   5.828  19.103  0.00  0.00    +0.000 A 
ENDROOT
BRANCH   1  10
ATOM      7  O   UNL     1       7.887   9.833  17.654  0.00  0.00    +0.000 OA
ATOM      8  C   UNL     1       8.662   9.430  18.513  0.00  0.00    +0.000 C 
ATOM      9  N   UNL     1       9.610  10.236  19.123  0.00  0.00    +0.000 N 
ATOM     10  N   UNL     1       8.711   8.120  18.955  0.00  0.00    +0.000 N 
ATOM     11  H   UNL     1      10.364   9.775  19.607  0.00  0.00    +0.000 HD
ATOM     12  H   UNL     1       9.298   7.913  19.747  0.00  0.00    +0.000 HD
BRANCH   9  13
ATOM     13  C   UNL     1       9.784  11.613  18.832  0.00  0.00    +0.000 A 
ATOM     14  C   UNL     1      10.491  12.075  17.715  0.00  0.00    +0.000 A 
ATOM     15  C   UNL     1      10.719  13.436  17.516  0.00  0.00    +0.000 A 
ATOM     16  C   UNL     1      10.215  14.361  18.422  0.00  0.00    +0.000 A 
ATOM     17  C   UNL     1       9.469  13.921  19.513  0.00  0.00    +0.000 A 
ATOM     18  C   UNL     1       9.246  12.554  19.715  0.00  0.00    +0.000 A 
ENDBRANCH   9  13
ENDBRANCH   1  10
BRANCH   4  19
ATOM     19  N   UNL     1       5.844   3.749  16.817  0.00  0.00    +0.000 N 
ATOM     20  H   UNL     1       5.892   2.898  17.371  0.00  0.00    +0.000 HD
BRANCH  19  21
ATOM     21  C   UNL     1       4.510   3.979  16.282  0.00  0.00    +0.000 C 
BRANCH  21  22
ATOM     22  C   UNL     1       3.432   3.682  17.298  0.00  0.00    +0.000 A 
ATOM     23  C   UNL     1       3.142   2.382  17.746  0.00  0.00    +0.000 A 
ATOM     24  C   UNL     1       2.133   2.156  18.684  0.00  0.00    +0.000 A 
ATOM     25  C   UNL     1       1.410   3.233  19.184  0.00  0.00    +0.000 A 
ATOM     26  C   UNL     1       1.686   4.528  18.765  0.00  0.00    +0.000 A 
ATOM     27  C   UNL     1       2.695   4.754  17.827  0.00  0.00    +0.000 A 
BRANCH  25  28
ATOM     28  O   UNL     1       0.412   3.057  20.092  0.00  0.00    +0.000 OA
ATOM     29  H   UNL     1      -0.205   2.393  19.741  0.00  0.00    +0.000 HD
ENDBRANCH  25  28
ENDBRANCH  21  22
ENDBRANCH  19  21
ENDBRANCH   4  19
TORSDOF 6
ENDMDL
MODEL 5
REMARK VINA RESULT:      -8.3      1.611      1.999
REMARK  Name = 
REMARK  6 active torsions:
REMARK  status: ('A' for Active; 'I' for Inactive)
REMARK    1  A    between atoms: N_3  and  C_4
REMARK    2  A    between atoms: N_10  and  C_11
REMARK    3  A    between atoms: C_14  and  N_15
REMARK    4  A    between atoms: N_15  and  C_16
REMARK    5  A    between atoms: C_16  and  C_17
REMARK    6  A    between atoms: C_20  and  O_21
REMARK                            x       y       z     vdW  Elec       q    Type
REMARK                         _______ _______ _______ _____ _____    ______ ____
ROOT
ATOM      1  C   UNL     1       7.927   6.919  18.454  0.00  0.00    +0.000 A 
ATOM      2  C   UNL     1       7.609   5.787  19.205  0.00  0.00    +0.000 A 
ATOM      3  C   UNL     1       6.802   4.776  18.683  0.00  0.00    +0.000 A 
ATOM      4  C   UNL     1       6.252   4.877  17.408  0.00  0.00    +0.000 A 
ATOM      5  C   UNL     1       6.627   5.976  16.628  0.00  0.00    +0.000 A 
ATOM      6  C   UNL     1       7.442   6.996  17.147  0.00  0.00    +0.000 A 
ENDROOT
BRANCH   1  10
ATOM      7  O   UNL     1       7.819   9.700  17.676  0.00  0.00    +0.000 OA
ATOM      8  C   UNL     1       8.627   9.306  18.510  0.00  0.00    +0.000 C 
ATOM      9  N   UNL     1       9.588  10.121  19.084  0.00  0.00    +0.000 N 
ATOM     10  N   UNL     1       8.700   7.997  18.954  0.00  0.00    +0.000 N 
ATOM     11  H   UNL     1      10.362   9.667  19.544  0.00  0.00    +0.000 HD
ATOM     12  H   UNL     1       9.316   7.797  19.725  0.00  0.00    +0.000 HD
BRANCH   9  13
ATOM     13  C   UNL     1       9.742  11.498  18.784  0.00  0.00    +0.000 A 
ATOM     14  C   UNL     1       9.104  12.514  19.507  0.00  0.00    +0.000 A 
ATOM     15  C   UNL     1       9.208  13.850  19.121  0.00  0.00    +0.000 A 
ATOM     16  C   UNL     1       9.980  14.193  18.018  0.00  0.00    +0.000 A 
ATOM     17  C   UNL     1      10.660  13.199  17.317  0.00  0.00    +0.000 A 
ATOM     18  C   UNL     1      10.550  11.857  17.701  0.00  0.00    +0.000 A 
ENDBRANCH   9  13
ENDBRANCH   1  10
BRANCH   4  19
ATOM     19  N   UNL     1       5.457   3.831  16.948  0.00  0.00    +0.000 N 
ATOM     20  H   UNL     1       5.767   2.921  17.277  0.00  0.00    +0.000 HD
BRANCH  19  21
ATOM     21  C   UNL     1       4.007   3.955  16.968  0.00  0.00    +0.000 C 
BRANCH  21  22
ATOM     22  C   UNL     1       3.444   3.797  18.362  0.00  0.00    +0.000 A 
ATOM     23  C   UNL     1       2.563   4.728  18.939  0.00  0.00    +0.000 A 
ATOM     24  C   UNL     1       2.072   4.543  20.233  0.00  0.00    +0.000 A 
ATOM     25  C   UNL     1       2.456   3.419  20.956  0.00  0.00    +0.000 A 
ATOM     26  C   UNL     1       3.316   2.479  20.402  0.00  0.00    +0.000 A 
ATOM     27  C   UNL     1       3.807   2.665  19.109  0.00  0.00    +0.000 A 
BRANCH  25  28
ATOM     28  O   UNL     1       2.008   3.204  22.223  0.00  0.00    +0.000 OA
ATOM     29  H   UNL     1       2.461   2.421  22.577  0.00  0.00    +0.000 HD
ENDBRANCH  25  28
ENDBRANCH  21  22
ENDBRANCH  19  21
ENDBRANCH   4  19
TORSDOF 6
ENDMDL
MODEL 6
REMARK VINA RESULT:      -8.2      1.527      2.068
REMARK  Name = 
REMARK  6 active torsions:
REMARK  status: ('A' for Active; 'I' for Inactive)
REMARK    1  A    between atoms: N_3  and  C_4
REMARK    2  A    between atoms: N_10  and  C_11
REMARK    3  A    between atoms: C_14  and  N_15
REMARK    4  A    between atoms: N_15  and  C_16
REMARK    5  A    between atoms: C_16  and  C_17
REMARK    6  A    between atoms: C_20  and  O_21
REMARK                            x       y       z     vdW  Elec       q    Type
REMARK                         _______ _______ _______ _____ _____    ______ ____
ROOT
ATOM      1  C   UNL     1       7.796   6.936  18.297  0.00  0.00    +0.000 A 
ATOM      2  C   UNL     1       7.961   5.593  18.640  0.00  0.00    +0.000 A 
ATOM      3  C   UNL     1       7.143   4.602  18.098  0.00  0.00    +0.000 A 
ATOM      4  C   UNL     1       6.107   4.920  17.224  0.00  0.00    +0.000 A 
ATOM      5  C   UNL     1       5.984   6.255  16.824  0.00  0.00    +0.000 A 
ATOM      6  C   UNL     1       6.808   7.257  17.364  0.00  0.00    +0.000 A 
ENDROOT
BRANCH   1  10
ATOM      7  O   UNL     1       7.843   9.718  17.520  0.00  0.00    +0.000 OA
ATOM      8  C   UNL     1       8.570   9.297  18.412  0.00  0.00    +0.000 C 
ATOM      9  N   UNL     1       9.513  10.078  19.059  0.00  0.00    +0.000 N 
ATOM     10  N   UNL     1       8.565   7.986  18.856  0.00  0.00    +0.000 N 
ATOM     11  H   UNL     1      10.234   9.598  19.575  0.00  0.00    +0.000 HD
ATOM     12  H   UNL     1       9.113   7.766  19.672  0.00  0.00    +0.000 HD
BRANCH   9  13
ATOM     13  C   UNL     1       9.737  11.450  18.775  0.00  0.00    +0.000 A 
ATOM     14  C   UNL     1       9.115  12.487  19.481  0.00  0.00    +0.000 A 
ATOM     15  C   UNL     1       9.289  13.820  19.109  0.00  0.00    +0.000 A 
ATOM     16  C   UNL     1      10.117  14.136  18.039  0.00  0.00    +0.000 A 
ATOM     17  C   UNL     1      10.781  13.118  17.356  0.00  0.00    +0.000 A 
ATOM     18  C   UNL     1      10.600  11.780  17.726  0.00  0.00    +0.000 A 
ENDBRANCH   9  13
ENDBRANCH   1  10
BRANCH   4  19
ATOM     19  N   UNL     1       5.330   3.881  16.718  0.00  0.00    +0.000 N 
ATOM     20  H   UNL     1       5.707   2.962  16.930  0.00  0.00    +0.000 HD
BRANCH  19  21
ATOM     21  C   UNL     1       3.881   3.922  16.853  0.00  0.00    +0.000 C 
BRANCH  21  22
ATOM     22  C   UNL     1       3.438   3.701  18.281  0.00  0.00    +0.000 A 
ATOM     23  C   UNL     1       3.958   2.679  19.092  0.00  0.00    +0.000 A 
ATOM     24  C   UNL     1       3.514   2.510  20.405  0.00  0.00    +0.000 A 
ATOM     25  C   UNL     1       2.548   3.369  20.916  0.00  0.00    +0.000 A 
ATOM     26  C   UNL     1       2.027   4.394  20.136  0.00  0.00    +0.000 A 
ATOM     27  C   UNL     1       2.471   4.562  18.824  0.00  0.00    +0.000 A 
BRANCH  25  28
ATOM     28  O   UNL     1       2.080   3.234  22.186  0.00  0.00    +0.000 OA
ATOM     29  H   UNL     1       2.814   3.404  22.800  0.00  0.00    +0.000 HD
ENDBRANCH  25  28
ENDBRANCH  21  22
ENDBRANCH  19  21
ENDBRANCH   4  19
TORSDOF 6
ENDMDL
MODEL 7
REMARK VINA RESULT:      -8.2      0.597      1.464
REMARK  Name = 
REMARK  6 active torsions:
REMARK  status: ('A' for Active; 'I' for Inactive)
REMARK    1  A    between atoms: N_3  and  C_4
REMARK    2  A    between atoms: N_10  and  C_11
REMARK    3  A    between atoms: C_14  and  N_15
REMARK    4  A    between atoms: N_15  and  C_16
REMARK    5  A    between atoms: C_16  and  C_17
REMARK    6  A    between atoms: C_20  and  O_21
REMARK                            x       y       z     vdW  Elec       q    Type
REMARK                         _______ _______ _______ _____ _____    ______ ____
ROOT
ATOM      1  C   UNL     1       6.224   7.070  17.024  0.00  0.00    +0.000 A 
ATOM      2  C   UNL     1       4.868   6.956  17.335  0.00  0.00    +0.000 A 
ATOM      3  C   UNL     1       4.213   5.726  17.276  0.00  0.00    +0.000 A 
ATOM      4  C   UNL     1       4.878   4.573  16.867  0.00  0.00    +0.000 A 
ATOM      5  C   UNL     1       6.252   4.671  16.624  0.00  0.00    +0.000 A 
ATOM      6  C   UNL     1       6.918   5.906  16.685  0.00  0.00    +0.000 A 
ENDROOT
BRANCH   1  10
ATOM      7  O   UNL     1       8.428   7.871  18.711  0.00  0.00    +0.000 OA
ATOM      8  C   UNL     1       7.951   8.639  17.884  0.00  0.00    +0.000 C 
ATOM      9  N   UNL     1       8.363   9.954  17.737  0.00  0.00    +0.000 N 
ATOM     10  N   UNL     1       6.924   8.301  17.020  0.00  0.00    +0.000 N 
ATOM     11  H   UNL     1       7.750  10.576  17.233  0.00  0.00    +0.000 HD
ATOM     12  H   UNL     1       6.683   8.961  16.297  0.00  0.00    +0.000 HD
BRANCH   9  13
ATOM     13  C   UNL     1       9.384  10.556  18.516  0.00  0.00    +0.000 A 
ATOM     14  C   UNL     1       9.310  10.681  19.909  0.00  0.00    +0.000 A 
ATOM     15  C   UNL     1      10.292  11.363  20.627  0.00  0.00    +0.000 A 
ATOM     16  C   UNL     1      11.382  11.907  19.961  0.00  0.00    +0.000 A 
ATOM     17  C   UNL     1      11.496  11.750  18.580  0.00  0.00    +0.000 A 
ATOM     18  C   UNL     1      10.506  11.071  17.860  0.00  0.00    +0.000 A 
ENDBRANCH   9  13
ENDBRANCH   1  10
BRANCH   4  19
ATOM     19  N   UNL     1       4.165   3.378  16.832  0.00  0.00    +0.000 N 
ATOM     20  H   UNL     1       4.089   2.986  15.898  0.00  0.00    +0.000 HD
BRANCH  19  21
ATOM     21  C   UNL     1       4.410   2.353  17.837  0.00  0.00    +0.000 C 
BRANCH  21  22
ATOM     22  C   UNL     1       3.425   2.433  18.981  0.00  0.00    +0.000 A 
ATOM     23  C   UNL     1       2.034   2.479  18.788  0.00  0.00    +0.000 A 
ATOM     24  C   UNL     1       1.162   2.556  19.876  0.00  0.00    +0.000 A 
ATOM     25  C   UNL     1       1.680   2.583  21.167  0.00  0.00    +0.000 A 
ATOM     26  C   UNL     1       3.051   2.527  21.382  0.00  0.00    +0.000 A 
ATOM     27  C   UNL     1       3.922   2.450  20.294  0.00  0.00    +0.000 A 
BRANCH  25  28
ATOM     28  O   UNL     1       0.867   2.668  22.255  0.00  0.00    +0.000 OA
ATOM     29  H   UNL     1       0.795   3.603  22.508  0.00  0.00    +0.000 HD
ENDBRANCH  25  28
ENDBRANCH  21  22
ENDBRANCH  19  21
ENDBRANCH   4  19
TORSDOF 6
ENDMDL
MODEL 8
REMARK VINA RESULT:      -8.2      1.537      1.611
REMARK  Name = 
REMARK  6 active torsions:
REMARK  status: ('A' for Active; 'I' for Inactive)
REMARK    1  A    between atoms: N_3  and  C_4
REMARK    2  A    between atoms: N_10  and  C_11
REMARK    3  A    between atoms: C_14  and  N_15
REMARK    4  A    between atoms: N_15  and  C_16
REMARK    5  A    between atoms: C_16  and  C_17
REMARK    6  A    between atoms: C_20  and  O_21
REMARK                            x       y       z     vdW  Elec       q    Type
REMARK                         _______ _______ _______ _____ _____    ______ ____
ROOT
ATOM      1  C   UNL     1       6.546   6.721  17.162  0.00  0.00    +0.000 A 
ATOM      2  C   UNL     1       6.712   5.865  18.251  0.00  0.00    +0.000 A 
ATOM      3  C   UNL     1       6.103   4.611  18.287  0.00  0.00    +0.000 A 
ATOM      4  C   UNL     1       5.274   4.182  17.253  0.00  0.00    +0.000 A 
ATOM      5  C   UNL     1       5.163   5.007  16.129  0.00  0.00    +0.000 A 
ATOM      6  C   UNL     1       5.778   6.270  16.086  0.00  0.00    +0.000 A 
ENDROOT
BRANCH   1  10
ATOM      7  O   UNL     1       8.674   7.831  18.770  0.00  0.00    +0.000 OA
ATOM      8  C   UNL     1       8.098   8.508  17.926  0.00  0.00    +0.000 C 
ATOM      9  N   UNL     1       8.354   9.854  17.724  0.00  0.00    +0.000 N 
ATOM     10  N   UNL     1       7.100   8.023  17.098  0.00  0.00    +0.000 N 
ATOM     11  H   UNL     1       7.665  10.383  17.212  0.00  0.00    +0.000 HD
ATOM     12  H   UNL     1       6.772   8.623  16.358  0.00  0.00    +0.000 HD
BRANCH   9  13
ATOM     13  C   UNL     1       9.314  10.597  18.458  0.00  0.00    +0.000 A 
ATOM     14  C   UNL     1      10.443  11.180  17.868  0.00  0.00    +0.000 A 
ATOM     15  C   UNL     1      11.410  11.823  18.639  0.00  0.00    +0.000 A 
ATOM     16  C   UNL     1      11.246  11.917  20.015  0.00  0.00    +0.000 A 
ATOM     17  C   UNL     1      10.105  11.385  20.612  0.00  0.00    +0.000 A 
ATOM     18  C   UNL     1       9.138  10.733  19.838  0.00  0.00    +0.000 A 
ENDBRANCH   9  13
ENDBRANCH   1  10
BRANCH   4  19
ATOM     19  N   UNL     1       4.699   2.918  17.351  0.00  0.00    +0.000 N 
ATOM     20  H   UNL     1       5.273   2.258  17.868  0.00  0.00    +0.000 HD
BRANCH  19  21
ATOM     21  C   UNL     1       3.286   2.783  17.675  0.00  0.00    +0.000 C 
BRANCH  21  22
ATOM     22  C   UNL     1       2.800   3.900  18.570  0.00  0.00    +0.000 A 
ATOM     23  C   UNL     1       2.290   5.111  18.071  0.00  0.00    +0.000 A 
ATOM     24  C   UNL     1       1.857   6.116  18.938  0.00  0.00    +0.000 A 
ATOM     25  C   UNL     1       1.927   5.913  20.311  0.00  0.00    +0.000 A 
ATOM     26  C   UNL     1       2.417   4.719  20.827  0.00  0.00    +0.000 A 
ATOM     27  C   UNL     1       2.850   3.715  19.961  0.00  0.00    +0.000 A 
BRANCH  25  28
ATOM     28  O   UNL     1       1.525   6.869  21.191  0.00  0.00    +0.000 OA
ATOM     29  H   UNL     1       2.314   7.248  21.611  0.00  0.00    +0.000 HD
ENDBRANCH  25  28
ENDBRANCH  21  22
ENDBRANCH  19  21
ENDBRANCH   4  19
TORSDOF 6
ENDMDL
MODEL 9
REMARK VINA RESULT:      -8.2      2.112      2.681
REMARK  Name = 
REMARK  6 active torsions:
REMARK  status: ('A' for Active; 'I' for Inactive)
REMARK    1  A    between atoms: N_3  and  C_4
REMARK    2  A    between atoms: N_10  and  C_11
REMARK    3  A    between atoms: C_14  and  N_15
REMARK    4  A    between atoms: N_15  and  C_16
REMARK    5  A    between atoms: C_16  and  C_17
REMARK    6  A    between atoms: C_20  and  O_21
REMARK                            x       y       z     vdW  Elec       q    Type
REMARK                         _______ _______ _______ _____ _____    ______ ____
ROOT
ATOM      1  C   UNL     1       7.855   6.793  18.507  0.00  0.00    +0.000 A 
ATOM      2  C   UNL     1       7.389   5.779  19.345  0.00  0.00    +0.000 A 
ATOM      3  C   UNL     1       6.542   4.779  18.868  0.00  0.00    +0.000 A 
ATOM      4  C   UNL     1       6.099   4.777  17.548  0.00  0.00    +0.000 A 
ATOM      5  C   UNL     1       6.620   5.750  16.690  0.00  0.00    +0.000 A 
ATOM      6  C   UNL     1       7.477   6.758  17.164  0.00  0.00    +0.000 A 
ENDROOT
BRANCH   1  10
ATOM      7  O   UNL     1       7.728   9.577  17.743  0.00  0.00    +0.000 OA
ATOM      8  C   UNL     1       8.587   9.170  18.516  0.00  0.00    +0.000 C 
ATOM      9  N   UNL     1       9.598   9.972  19.022  0.00  0.00    +0.000 N 
ATOM     10  N   UNL     1       8.675   7.859  18.952  0.00  0.00    +0.000 N 
ATOM     11  H   UNL     1      10.397   9.507  19.425  0.00  0.00    +0.000 HD
ATOM     12  H   UNL     1       9.342   7.650  19.677  0.00  0.00    +0.000 HD
BRANCH   9  13
ATOM     13  C   UNL     1       9.748  11.348  18.714  0.00  0.00    +0.000 A 
ATOM     14  C   UNL     1       9.075  12.363  19.405  0.00  0.00    +0.000 A 
ATOM     15  C   UNL     1       9.178  13.696  19.010  0.00  0.00    +0.000 A 
ATOM     16  C   UNL     1       9.983  14.037  17.931  0.00  0.00    +0.000 A 
ATOM     17  C   UNL     1      10.697  13.045  17.262  0.00  0.00    +0.000 A 
ATOM     18  C   UNL     1      10.588  11.705  17.655  0.00  0.00    +0.000 A 
ENDBRANCH   9  13
ENDBRANCH   1  10
BRANCH   4  19
ATOM     19  N   UNL     1       5.256   3.747  17.138  0.00  0.00    +0.000 N 
ATOM     20  H   UNL     1       5.417   2.878  17.638  0.00  0.00    +0.000 HD
BRANCH  19  21
ATOM     21  C   UNL     1       3.838   4.005  16.930  0.00  0.00    +0.000 C 
BRANCH  21  22
ATOM     22  C   UNL     1       3.268   4.922  17.988  0.00  0.00    +0.000 A 
ATOM     23  C   UNL     1       3.145   6.310  17.808  0.00  0.00    +0.000 A 
ATOM     24  C   UNL     1       2.615   7.119  18.816  0.00  0.00    +0.000 A 
ATOM     25  C   UNL     1       2.201   6.540  20.010  0.00  0.00    +0.000 A 
ATOM     26  C   UNL     1       2.302   5.168  20.206  0.00  0.00    +0.000 A 
ATOM     27  C   UNL     1       2.832   4.361  19.198  0.00  0.00    +0.000 A 
BRANCH  25  28
ATOM     28  O   UNL     1       1.688   7.291  21.022  0.00  0.00    +0.000 OA
ATOM     29  H   UNL     1       1.722   8.225  20.755  0.00  0.00    +0.000 HD
ENDBRANCH  25  28
ENDBRANCH  21  22
ENDBRANCH  19  21
ENDBRANCH   4  19
TORSDOF 6
ENDMDL
