MODEL 1
REMARK VINA RESULT:      -8.3      0.000      0.000
REMARK  Name = 
REMARK  2 active torsions:
REMARK  status: ('A' for Active; 'I' for Inactive)
REMARK    1  A    between atoms: C_4  and  C_5
REMARK    2  A    between atoms: C_7  and  N_8
REMARK                            x       y       z     vdW  Elec       q    Type
REMARK                         _______ _______ _______ _____ _____    ______ ____
ROOT
ATOM      1  C   UNL     1       2.630   5.999  19.231  0.00  0.00    +0.000 A 
ATOM      2  C   UNL     1       3.643   5.858  18.276  0.00  0.00    +0.000 A 
ATOM      3  C   UNL     1       4.111   6.941  17.549  0.00  0.00    +0.000 A 
ATOM      4  N   UNL     1       3.557   8.161  17.713  0.00  0.00    +0.000 NA
ATOM      5  C   UNL     1       2.556   8.353  18.583  0.00  0.00    +0.000 A 
ATOM      6  N   UNL     1       1.995   9.580  18.650  0.00  0.00    +0.000 NA
ATOM      7  C   UNL     1       1.021   9.863  19.547  0.00  0.00    +0.000 A 
ATOM      8  N   UNL     1       0.438  11.116  19.577  0.00  0.00    +0.000 N 
ATOM      9  C   UNL     1       0.403  11.944  18.380  0.00  0.00    +0.000 C 
ATOM     10  C   UNL     1       1.121  13.271  18.621  0.00  0.00    +0.000 C 
ATOM     11  C   UNL     1       0.631  13.961  19.894  0.00  0.00    +0.000 C 
ATOM     12  C   UNL     1       0.716  13.019  21.089  0.00  0.00    +0.000 C 
ATOM     13  C   UNL     1      -0.034  11.718  20.822  0.00  0.00    +0.000 C 
ATOM     14  C   UNL     1       0.596   8.888  20.431  0.00  0.00    +0.000 A 
ATOM     15  C   UNL     1       1.159   7.630  20.388  0.00  0.00    +0.000 A 
ATOM     16  C   UNL     1       2.107   7.305  19.411  0.00  0.00    +0.000 A 
ENDROOT
BRANCH   1  20
ATOM     17  C   UNL     1       1.267   2.472  21.340  0.00  0.00    +0.000 A 
ATOM     18  C   UNL     1       0.777   2.765  20.074  0.00  0.00    +0.000 A 
ATOM     19  C   UNL     1       1.238   3.893  19.387  0.00  0.00    +0.000 A 
ATOM     20  C   UNL     1       2.166   4.784  19.963  0.00  0.00    +0.000 A 
ATOM     21  C   UNL     1       2.589   4.490  21.274  0.00  0.00    +0.000 A 
ATOM     22  C   UNL     1       2.182   3.328  21.938  0.00  0.00    +0.000 A 
ENDBRANCH   1  20
BRANCH   3  23
ATOM     23  N   UNL     1       5.175   6.768  16.678  0.00  0.00    +0.000 N 
ATOM     24  C   UNL     1       4.932   6.375  15.293  0.00  0.00    +0.000 C 
ATOM     25  C   UNL     1       5.587   5.028  14.992  0.00  0.00    +0.000 C 
ATOM     26  C   UNL     1       7.055   5.005  15.417  0.00  0.00    +0.000 C 
ATOM     27  C   UNL     1       7.201   5.412  16.880  0.00  0.00    +0.000 C 
ATOM     28  C   UNL     1       6.561   6.774  17.140  0.00  0.00    +0.000 C 
ENDBRANCH   3  23
TORSDOF 2
ENDMDL
MODEL 2
REMARK VINA RESULT:      -7.5      4.520      9.140
REMARK  Name = 
REMARK  2 active torsions:
REMARK  status: ('A' for Active; 'I' for Inactive)
REMARK    1  A    between atoms: C_4  and  C_5
REMARK    2  A    between atoms: C_7  and  N_8
REMARK                            x       y       z     vdW  Elec       q    Type
REMARK                         _______ _______ _______ _____ _____    ______ ____
ROOT
ATOM      1  C   UNL     1       6.282   5.770  17.383  0.00  0.00    +0.000 A 
ATOM      2  C   UNL     1       5.326   5.255  18.264  0.00  0.00    +0.000 A 
ATOM      3  C   UNL     1       4.511   4.192  17.910  0.00  0.00    +0.000 A 
ATOM      4  N   UNL     1       4.589   3.657  16.673  0.00  0.00    +0.000 NA
ATOM      5  C   UNL     1       5.458   4.133  15.770  0.00  0.00    +0.000 A 
ATOM      6  N   UNL     1       5.439   3.604  14.527  0.00  0.00    +0.000 NA
ATOM      7  C   UNL     1       6.327   3.993  13.581  0.00  0.00    +0.000 A 
ATOM      8  N   UNL     1       6.270   3.462  12.306  0.00  0.00    +0.000 N 
ATOM      9  C   UNL     1       5.014   2.956  11.771  0.00  0.00    +0.000 C 
ATOM     10  C   UNL     1       5.142   1.481  11.398  0.00  0.00    +0.000 C 
ATOM     11  C   UNL     1       6.366   1.219  10.520  0.00  0.00    +0.000 C 
ATOM     12  C   UNL     1       7.628   1.774  11.169  0.00  0.00    +0.000 C 
ATOM     13  C   UNL     1       7.472   3.255  11.502  0.00  0.00    +0.000 C 
ATOM     14  C   UNL     1       7.289   4.937  13.888  0.00  0.00    +0.000 A 
ATOM     15  C   UNL     1       7.334   5.486  15.153  0.00  0.00    +0.000 A 
ATOM     16  C   UNL     1       6.371   5.151  16.111  0.00  0.00    +0.000 A 
ENDROOT
BRANCH   1  20
ATOM     17  C   UNL     1       8.684   9.140  18.658  0.00  0.00    +0.000 A 
ATOM     18  C   UNL     1       7.779   9.279  17.613  0.00  0.00    +0.000 A 
ATOM     19  C   UNL     1       6.989   8.194  17.220  0.00  0.00    +0.000 A 
ATOM     20  C   UNL     1       7.112   6.928  17.829  0.00  0.00    +0.000 A 
ATOM     21  C   UNL     1       8.086   6.809  18.839  0.00  0.00    +0.000 A 
ATOM     22  C   UNL     1       8.831   7.908  19.280  0.00  0.00    +0.000 A 
ENDBRANCH   1  20
BRANCH   3  23
ATOM     23  N   UNL     1       3.639   3.659  18.847  0.00  0.00    +0.000 N 
ATOM     24  C   UNL     1       2.987   2.378  18.595  0.00  0.00    +0.000 C 
ATOM     25  C   UNL     1       1.468   2.545  18.550  0.00  0.00    +0.000 C 
ATOM     26  C   UNL     1       0.946   3.302  19.770  0.00  0.00    +0.000 C 
ATOM     27  C   UNL     1       1.677   4.631  19.935  0.00  0.00    +0.000 C 
ATOM     28  C   UNL     1       3.188   4.426  20.005  0.00  0.00    +0.000 C 
ENDBRANCH   3  23
TORSDOF 2
ENDMDL
MODEL 3
REMARK VINA RESULT:      -7.4      3.726      7.234
REMARK  Name = 
REMARK  2 active torsions:
REMARK  status: ('A' for Active; 'I' for Inactive)
REMARK    1  A    between atoms: C_4  and  C_5
REMARK    2  A    between atoms: C_7  and  N_8
REMARK                            x       y       z     vdW  Elec       q    Type
REMARK                         _______ _______ _______ _____ _____    ______ ____
ROOT
ATOM      1  C   UNL     1       0.624  10.617  18.744  0.00  0.00    +0.000 A 
ATOM      2  C   UNL     1       1.337  11.813  18.878  0.00  0.00    +0.000 A 
ATOM      3  C   UNL     1       0.701  13.044  18.839  0.00  0.00    +0.000 A 
ATOM      4  N   UNL     1      -0.628  13.117  18.617  0.00  0.00    +0.000 NA
ATOM      5  C   UNL     1      -1.360  12.008  18.442  0.00  0.00    +0.000 A 
ATOM      6  N   UNL     1      -2.672  12.148  18.153  0.00  0.00    +0.000 NA
ATOM      7  C   UNL     1      -3.485  11.072  18.022  0.00  0.00    +0.000 A 
ATOM      8  N   UNL     1      -4.818  11.236  17.694  0.00  0.00    +0.000 N 
ATOM      9  C   UNL     1      -5.258  12.409  16.951  0.00  0.00    +0.000 C 
ATOM     10  C   UNL     1      -6.295  13.196  17.749  0.00  0.00    +0.000 C 
ATOM     11  C   UNL     1      -7.422  12.298  18.258  0.00  0.00    +0.000 C 
ATOM     12  C   UNL     1      -6.863  11.110  19.031  0.00  0.00    +0.000 C 
ATOM     13  C   UNL     1      -5.852  10.333  18.193  0.00  0.00    +0.000 C 
ATOM     14  C   UNL     1      -2.976   9.800  18.204  0.00  0.00    +0.000 A 
ATOM     15  C   UNL     1      -1.641   9.631  18.508  0.00  0.00    +0.000 A 
ATOM     16  C   UNL     1      -0.777  10.730  18.564  0.00  0.00    +0.000 A 
ENDROOT
BRANCH   1  20
ATOM     17  C   UNL     1       2.814   6.883  18.870  0.00  0.00    +0.000 A 
ATOM     18  C   UNL     1       2.127   7.331  19.991  0.00  0.00    +0.000 A 
ATOM     19  C   UNL     1       1.402   8.526  19.938  0.00  0.00    +0.000 A 
ATOM     20  C   UNL     1       1.380   9.329  18.780  0.00  0.00    +0.000 A 
ATOM     21  C   UNL     1       2.142   8.875  17.686  0.00  0.00    +0.000 A 
ATOM     22  C   UNL     1       2.813   7.649  17.712  0.00  0.00    +0.000 A 
ENDBRANCH   1  20
BRANCH   3  23
ATOM     23  N   UNL     1       1.435  14.198  19.063  0.00  0.00    +0.000 N 
ATOM     24  C   UNL     1       0.755  15.448  19.388  0.00  0.00    +0.000 C 
ATOM     25  C   UNL     1       1.036  16.509  18.325  0.00  0.00    +0.000 C 
ATOM     26  C   UNL     1       2.532  16.646  18.045  0.00  0.00    +0.000 C 
ATOM     27  C   UNL     1       3.145  15.293  17.698  0.00  0.00    +0.000 C 
ATOM     28  C   UNL     1       2.870  14.266  18.793  0.00  0.00    +0.000 C 
ENDBRANCH   3  23
TORSDOF 2
ENDMDL
MODEL 4
REMARK VINA RESULT:      -7.2      3.690      7.178
REMARK  Name = 
REMARK  2 active torsions:
REMARK  status: ('A' for Active; 'I' for Inactive)
REMARK    1  A    between atoms: C_4  and  C_5
REMARK    2  A    between atoms: C_7  and  N_8
REMARK                            x       y       z     vdW  Elec       q    Type
REMARK                         _______ _______ _______ _____ _____    ______ ____
ROOT
ATOM      1  C   UNL     1       0.633  10.569  18.640  0.00  0.00    +0.000 A 
ATOM      2  C   UNL     1       1.365  11.761  18.655  0.00  0.00    +0.000 A 
ATOM      3  C   UNL     1       0.746  12.994  18.526  0.00  0.00    +0.000 A 
ATOM      4  N   UNL     1      -0.587  13.068  18.329  0.00  0.00    +0.000 NA
ATOM      5  C   UNL     1      -1.338  11.960  18.265  0.00  0.00    +0.000 A 
ATOM      6  N   UNL     1      -2.655  12.096  17.996  0.00  0.00    +0.000 NA
ATOM      7  C   UNL     1      -3.485  11.026  17.975  0.00  0.00    +0.000 A 
ATOM      8  N   UNL     1      -4.823  11.183  17.664  0.00  0.00    +0.000 N 
ATOM      9  C   UNL     1      -5.264  12.295  16.834  0.00  0.00    +0.000 C 
ATOM     10  C   UNL     1      -6.271  13.163  17.585  0.00  0.00    +0.000 C 
ATOM     11  C   UNL     1      -7.399  12.331  18.194  0.00  0.00    +0.000 C 
ATOM     12  C   UNL     1      -6.838  11.203  19.053  0.00  0.00    +0.000 C 
ATOM     13  C   UNL     1      -5.857  10.342  18.261  0.00  0.00    +0.000 C 
ATOM     14  C   UNL     1      -2.990   9.766  18.252  0.00  0.00    +0.000 A 
ATOM     15  C   UNL     1      -1.651   9.603  18.540  0.00  0.00    +0.000 A 
ATOM     16  C   UNL     1      -0.770  10.688  18.483  0.00  0.00    +0.000 A 
ENDROOT
BRANCH   1  20
ATOM     17  C   UNL     1       2.772   6.824  19.034  0.00  0.00    +0.000 A 
ATOM     18  C   UNL     1       2.072   7.349  20.113  0.00  0.00    +0.000 A 
ATOM     19  C   UNL     1       1.364   8.547  19.974  0.00  0.00    +0.000 A 
ATOM     20  C   UNL     1       1.372   9.277  18.768  0.00  0.00    +0.000 A 
ATOM     21  C   UNL     1       2.145   8.747  17.718  0.00  0.00    +0.000 A 
ATOM     22  C   UNL     1       2.801   7.517  17.831  0.00  0.00    +0.000 A 
ENDBRANCH   1  20
BRANCH   3  23
ATOM     23  N   UNL     1       1.502  14.151  18.634  0.00  0.00    +0.000 N 
ATOM     24  C   UNL     1       2.960  14.077  18.628  0.00  0.00    +0.000 C 
ATOM     25  C   UNL     1       3.533  14.611  19.940  0.00  0.00    +0.000 C 
ATOM     26  C   UNL     1       2.961  15.984  20.290  0.00  0.00    +0.000 C 
ATOM     27  C   UNL     1       1.436  15.952  20.288  0.00  0.00    +0.000 C 
ATOM     28  C   UNL     1       0.897  15.441  18.954  0.00  0.00    +0.000 C 
ENDBRANCH   3  23
TORSDOF 2
ENDMDL
MODEL 5
REMARK VINA RESULT:      -7.2      4.448      9.122
REMARK  Name = 
REMARK  2 active torsions:
REMARK  status: ('A' for Active; 'I' for Inactive)
REMARK    1  A    between atoms: C_4  and  C_5
REMARK    2  A    between atoms: C_7  and  N_8
REMARK                            x       y       z     vdW  Elec       q    Type
REMARK                         _______ _______ _______ _____ _____    ______ ____
ROOT
ATOM      1  C   UNL     1       6.031   6.043  17.219  0.00  0.00    +0.000 A 
ATOM      2  C   UNL     1       4.911   5.732  17.996  0.00  0.00    +0.000 A 
ATOM      3  C   UNL     1       3.981   4.790  17.584  0.00  0.00    +0.000 A 
ATOM      4  N   UNL     1       4.112   4.183  16.386  0.00  0.00    +0.000 NA
ATOM      5  C   UNL     1       5.142   4.468  15.577  0.00  0.00    +0.000 A 
ATOM      6  N   UNL     1       5.180   3.882  14.361  0.00  0.00    +0.000 NA
ATOM      7  C   UNL     1       6.221   4.076  13.516  0.00  0.00    +0.000 A 
ATOM      8  N   UNL     1       6.224   3.492  12.263  0.00  0.00    +0.000 N 
ATOM      9  C   UNL     1       4.972   3.160  11.598  0.00  0.00    +0.000 C 
ATOM     10  C   UNL     1       4.902   1.664  11.297  0.00  0.00    +0.000 C 
ATOM     11  C   UNL     1       6.159   1.168  10.583  0.00  0.00    +0.000 C 
ATOM     12  C   UNL     1       7.413   1.554  11.359  0.00  0.00    +0.000 C 
ATOM     13  C   UNL     1       7.461   3.057  11.618  0.00  0.00    +0.000 C 
ATOM     14  C   UNL     1       7.281   4.875  13.903  0.00  0.00    +0.000 A 
ATOM     15  C   UNL     1       7.269   5.477  15.143  0.00  0.00    +0.000 A 
ATOM     16  C   UNL     1       6.163   5.349  15.989  0.00  0.00    +0.000 A 
ENDROOT
BRANCH   1  20
ATOM     17  C   UNL     1       8.791   9.038  18.690  0.00  0.00    +0.000 A 
ATOM     18  C   UNL     1       8.798   7.755  19.223  0.00  0.00    +0.000 A 
ATOM     19  C   UNL     1       7.921   6.785  18.728  0.00  0.00    +0.000 A 
ATOM     20  C   UNL     1       6.981   7.080  17.720  0.00  0.00    +0.000 A 
ATOM     21  C   UNL     1       6.959   8.408  17.251  0.00  0.00    +0.000 A 
ATOM     22  C   UNL     1       7.878   9.364  17.696  0.00  0.00    +0.000 A 
ENDBRANCH   1  20
BRANCH   3  23
ATOM     23  N   UNL     1       2.934   4.451  18.427  0.00  0.00    +0.000 N 
ATOM     24  C   UNL     1       3.118   4.490  19.875  0.00  0.00    +0.000 C 
ATOM     25  C   UNL     1       2.916   3.102  20.482  0.00  0.00    +0.000 C 
ATOM     26  C   UNL     1       1.607   2.466  20.018  0.00  0.00    +0.000 C 
ATOM     27  C   UNL     1       1.519   2.457  18.495  0.00  0.00    +0.000 C 
ATOM     28  C   UNL     1       1.696   3.862  17.924  0.00  0.00    +0.000 C 
ENDBRANCH   3  23
TORSDOF 2
ENDMDL
MODEL 6
REMARK VINA RESULT:      -7.0      4.225      9.092
REMARK  Name = 
REMARK  2 active torsions:
REMARK  status: ('A' for Active; 'I' for Inactive)
REMARK    1  A    between atoms: C_4  and  C_5
REMARK    2  A    between atoms: C_7  and  N_8
REMARK                            x       y       z     vdW  Elec       q    Type
REMARK                         _______ _______ _______ _____ _____    ______ ____
ROOT
ATOM      1  C   UNL     1       6.076   5.905  17.298  0.00  0.00    +0.000 A 
ATOM      2  C   UNL     1       5.006   5.506  18.107  0.00  0.00    +0.000 A 
ATOM      3  C   UNL     1       4.122   4.517  17.706  0.00  0.00    +0.000 A 
ATOM      4  N   UNL     1       4.246   3.947  16.489  0.00  0.00    +0.000 NA
ATOM      5  C   UNL     1       5.226   4.314  15.651  0.00  0.00    +0.000 A 
ATOM      6  N   UNL     1       5.255   3.758  14.421  0.00  0.00    +0.000 NA
ATOM      7  C   UNL     1       6.250   4.036  13.544  0.00  0.00    +0.000 A 
ATOM      8  N   UNL     1       6.243   3.481  12.278  0.00  0.00    +0.000 N 
ATOM      9  C   UNL     1       4.990   3.085  11.650  0.00  0.00    +0.000 C 
ATOM     10  C   UNL     1       5.002   1.595  11.315  0.00  0.00    +0.000 C 
ATOM     11  C   UNL     1       6.260   1.194  10.545  0.00  0.00    +0.000 C 
ATOM     12  C   UNL     1       7.515   1.642  11.286  0.00  0.00    +0.000 C 
ATOM     13  C   UNL     1       7.479   3.139  11.579  0.00  0.00    +0.000 C 
ATOM     14  C   UNL     1       7.272   4.890  13.912  0.00  0.00    +0.000 A 
ATOM     15  C   UNL     1       7.269   5.464  15.167  0.00  0.00    +0.000 A 
ATOM     16  C   UNL     1       6.204   5.247  16.048  0.00  0.00    +0.000 A 
ENDROOT
BRANCH   1  20
ATOM     17  C   UNL     1       8.684   9.060  18.708  0.00  0.00    +0.000 A 
ATOM     18  C   UNL     1       7.752   9.314  17.711  0.00  0.00    +0.000 A 
ATOM     19  C   UNL     1       6.896   8.298  17.275  0.00  0.00    +0.000 A 
ATOM     20  C   UNL     1       6.977   6.988  17.790  0.00  0.00    +0.000 A 
ATOM     21  C   UNL     1       7.978   6.753  18.752  0.00  0.00    +0.000 A 
ATOM     22  C   UNL     1       8.792   7.781  19.239  0.00  0.00    +0.000 A 
ENDBRANCH   1  20
BRANCH   3  23
ATOM     23  N   UNL     1       3.131   4.095  18.577  0.00  0.00    +0.000 N 
ATOM     24  C   UNL     1       2.062   5.009  18.969  0.00  0.00    +0.000 C 
ATOM     25  C   UNL     1       2.082   5.249  20.478  0.00  0.00    +0.000 C 
ATOM     26  C   UNL     1       2.123   3.937  21.259  0.00  0.00    +0.000 C 
ATOM     27  C   UNL     1       3.282   3.063  20.790  0.00  0.00    +0.000 C 
ATOM     28  C   UNL     1       3.215   2.819  19.284  0.00  0.00    +0.000 C 
ENDBRANCH   3  23
TORSDOF 2
ENDMDL
MODEL 7
REMARK VINA RESULT:      -7.0      3.883      7.707
REMARK  Name = 
REMARK  2 active torsions:
REMARK  status: ('A' for Active; 'I' for Inactive)
REMARK    1  A    between atoms: C_4  and  C_5
REMARK    2  A    between atoms: C_7  and  N_8
REMARK                            x       y       z     vdW  Elec       q    Type
REMARK                         _______ _______ _______ _____ _____    ______ ____
ROOT
ATOM      1  C   UNL     1       0.037  10.594  18.850  0.00  0.00    +0.000 A 
ATOM      2  C   UNL     1      -1.351  10.415  18.868  0.00  0.00    +0.000 A 
ATOM      3  C   UNL     1      -2.222  11.485  18.737  0.00  0.00    +0.000 A 
ATOM      4  N   UNL     1      -1.745  12.743  18.640  0.00  0.00    +0.000 NA
ATOM      5  C   UNL     1      -0.426  12.985  18.658  0.00  0.00    +0.000 A 
ATOM      6  N   UNL     1      -0.012  14.270  18.629  0.00  0.00    +0.000 NA
ATOM      7  C   UNL     1       1.304  14.587  18.583  0.00  0.00    +0.000 A 
ATOM      8  N   UNL     1       1.707  15.909  18.588  0.00  0.00    +0.000 N 
ATOM      9  C   UNL     1       0.869  16.936  19.189  0.00  0.00    +0.000 C 
ATOM     10  C   UNL     1       0.495  17.999  18.158  0.00  0.00    +0.000 C 
ATOM     11  C   UNL     1       1.721  18.526  17.414  0.00  0.00    +0.000 C 
ATOM     12  C   UNL     1       2.526  17.380  16.812  0.00  0.00    +0.000 C 
ATOM     13  C   UNL     1       2.903  16.353  17.876  0.00  0.00    +0.000 C 
ATOM     14  C   UNL     1       2.252  13.581  18.546  0.00  0.00    +0.000 A 
ATOM     15  C   UNL     1       1.854  12.261  18.565  0.00  0.00    +0.000 A 
ATOM     16  C   UNL     1       0.502  11.925  18.695  0.00  0.00    +0.000 A 
ENDROOT
BRANCH   1  20
ATOM     17  C   UNL     1       2.576   7.121  19.343  0.00  0.00    +0.000 A 
ATOM     18  C   UNL     1       1.886   7.647  20.429  0.00  0.00    +0.000 A 
ATOM     19  C   UNL     1       1.050   8.754  20.260  0.00  0.00    +0.000 A 
ATOM     20  C   UNL     1       0.913   9.396  19.012  0.00  0.00    +0.000 A 
ATOM     21  C   UNL     1       1.677   8.876  17.951  0.00  0.00    +0.000 A 
ATOM     22  C   UNL     1       2.464   7.729  18.100  0.00  0.00    +0.000 A 
ENDBRANCH   1  20
BRANCH   3  23
ATOM     23  N   UNL     1      -3.586  11.249  18.673  0.00  0.00    +0.000 N 
ATOM     24  C   UNL     1      -4.161  10.587  17.506  0.00  0.00    +0.000 C 
ATOM     25  C   UNL     1      -5.161  11.504  16.803  0.00  0.00    +0.000 C 
ATOM     26  C   UNL     1      -6.183  12.083  17.781  0.00  0.00    +0.000 C 
ATOM     27  C   UNL     1      -5.484  12.766  18.952  0.00  0.00    +0.000 C 
ATOM     28  C   UNL     1      -4.515  11.815  19.648  0.00  0.00    +0.000 C 
ENDBRANCH   3  23
TORSDOF 2
ENDMDL
MODEL 8
REMARK VINA RESULT:      -6.7      3.704      7.597
REMARK  Name = 
REMARK  2 active torsions:
REMARK  status: ('A' for Active; 'I' for Inactive)
REMARK    1  A    between atoms: C_4  and  C_5
REMARK    2  A    between atoms: C_7  and  N_8
REMARK                            x       y       z     vdW  Elec       q    Type
REMARK                         _______ _______ _______ _____ _____    ______ ____
ROOT
ATOM      1  C   UNL     1       0.563  10.671  18.916  0.00  0.00    +0.000 A 
ATOM      2  C   UNL     1       1.250  11.857  19.193  0.00  0.00    +0.000 A 
ATOM      3  C   UNL     1       0.593  13.076  19.265  0.00  0.00    +0.000 A 
ATOM      4  N   UNL     1      -0.731  13.151  19.015  0.00  0.00    +0.000 NA
ATOM      5  C   UNL     1      -1.438  12.055  18.704  0.00  0.00    +0.000 A 
ATOM      6  N   UNL     1      -2.744  12.205  18.395  0.00  0.00    +0.000 NA
ATOM      7  C   UNL     1      -3.534  11.136  18.130  0.00  0.00    +0.000 A 
ATOM      8  N   UNL     1      -4.860  11.314  17.783  0.00  0.00    +0.000 N 
ATOM      9  C   UNL     1      -5.301  12.551  17.154  0.00  0.00    +0.000 C 
ATOM     10  C   UNL     1      -6.374  13.234  18.001  0.00  0.00    +0.000 C 
ATOM     11  C   UNL     1      -7.498  12.271  18.381  0.00  0.00    +0.000 C 
ATOM     12  C   UNL     1      -6.938  11.016  19.041  0.00  0.00    +0.000 C 
ATOM     13  C   UNL     1      -5.890  10.347  18.155  0.00  0.00    +0.000 C 
ATOM     14  C   UNL     1      -3.007   9.860  18.192  0.00  0.00    +0.000 A 
ATOM     15  C   UNL     1      -1.678   9.681  18.514  0.00  0.00    +0.000 A 
ATOM     16  C   UNL     1      -0.835  10.781  18.709  0.00  0.00    +0.000 A 
ENDROOT
BRANCH   1  20
ATOM     17  C   UNL     1       2.817   6.979  18.712  0.00  0.00    +0.000 A 
ATOM     18  C   UNL     1       2.152   7.332  19.880  0.00  0.00    +0.000 A 
ATOM     19  C   UNL     1       1.407   8.514  19.933  0.00  0.00    +0.000 A 
ATOM     20  C   UNL     1       1.340   9.399  18.838  0.00  0.00    +0.000 A 
ATOM     21  C   UNL     1       2.080   9.039  17.694  0.00  0.00    +0.000 A 
ATOM     22  C   UNL     1       2.772   7.827  17.614  0.00  0.00    +0.000 A 
ENDBRANCH   1  20
BRANCH   3  23
ATOM     23  N   UNL     1       1.300  14.211  19.629  0.00  0.00    +0.000 N 
ATOM     24  C   UNL     1       1.446  14.563  21.038  0.00  0.00    +0.000 C 
ATOM     25  C   UNL     1       0.806  15.921  21.325  0.00  0.00    +0.000 C 
ATOM     26  C   UNL     1       1.283  16.990  20.343  0.00  0.00    +0.000 C 
ATOM     27  C   UNL     1       1.072  16.535  18.902  0.00  0.00    +0.000 C 
ATOM     28  C   UNL     1       1.748  15.191  18.643  0.00  0.00    +0.000 C 
ENDBRANCH   3  23
TORSDOF 2
ENDMDL
MODEL 9
REMARK VINA RESULT:      -6.6      6.154      9.122
REMARK  Name = 
REMARK  2 active torsions:
REMARK  status: ('A' for Active; 'I' for Inactive)
REMARK    1  A    between atoms: C_4  and  C_5
REMARK    2  A    between atoms: C_7  and  N_8
REMARK                            x       y       z     vdW  Elec       q    Type
REMARK                         _______ _______ _______ _____ _____    ______ ____
ROOT
ATOM      1  C   UNL     1      -0.709  12.268  19.726  0.00  0.00    +0.000 A 
ATOM      2  C   UNL     1      -1.354  12.320  20.966  0.00  0.00    +0.000 A 
ATOM      3  C   UNL     1      -0.810  13.010  22.038  0.00  0.00    +0.000 A 
ATOM      4  N   UNL     1       0.394  13.610  21.921  0.00  0.00    +0.000 NA
ATOM      5  C   UNL     1       1.080  13.562  20.771  0.00  0.00    +0.000 A 
ATOM      6  N   UNL     1       2.309  14.120  20.737  0.00  0.00    +0.000 NA
ATOM      7  C   UNL     1       3.034  14.162  19.593  0.00  0.00    +0.000 A 
ATOM      8  N   UNL     1       4.304  14.709  19.588  0.00  0.00    +0.000 N 
ATOM      9  C   UNL     1       5.106  14.727  20.803  0.00  0.00    +0.000 C 
ATOM     10  C   UNL     1       5.476  16.159  21.184  0.00  0.00    +0.000 C 
ATOM     11  C   UNL     1       6.077  16.924  20.006  0.00  0.00    +0.000 C 
ATOM     12  C   UNL     1       5.161  16.857  18.790  0.00  0.00    +0.000 C 
ATOM     13  C   UNL     1       4.836  15.411  18.423  0.00  0.00    +0.000 C 
ATOM     14  C   UNL     1       2.507  13.641  18.426  0.00  0.00    +0.000 A 
ATOM     15  C   UNL     1       1.250  13.074  18.433  0.00  0.00    +0.000 A 
ATOM     16  C   UNL     1       0.528  12.953  19.625  0.00  0.00    +0.000 A 
ENDROOT
BRANCH   1  20
ATOM     17  C   UNL     1      -2.582  10.027  16.529  0.00  0.00    +0.000 A 
ATOM     18  C   UNL     1      -3.206  11.151  17.057  0.00  0.00    +0.000 A 
ATOM     19  C   UNL     1      -2.586  11.884  18.074  0.00  0.00    +0.000 A 
ATOM     20  C   UNL     1      -1.348  11.492  18.622  0.00  0.00    +0.000 A 
ATOM     21  C   UNL     1      -0.779  10.311  18.107  0.00  0.00    +0.000 A 
ATOM     22  C   UNL     1      -1.362   9.612  17.046  0.00  0.00    +0.000 A 
ENDBRANCH   1  20
BRANCH   3  23
ATOM     23  N   UNL     1      -1.526  13.107  23.221  0.00  0.00    +0.000 N 
ATOM     24  C   UNL     1      -2.523  12.096  23.558  0.00  0.00    +0.000 C 
ATOM     25  C   UNL     1      -3.911  12.724  23.675  0.00  0.00    +0.000 C 
ATOM     26  C   UNL     1      -3.903  13.948  24.589  0.00  0.00    +0.000 C 
ATOM     27  C   UNL     1      -2.843  14.950  24.143  0.00  0.00    +0.000 C 
ATOM     28  C   UNL     1      -1.465  14.297  24.065  0.00  0.00    +0.000 C 
ENDBRANCH   3  23
TORSDOF 2
ENDMDL
