MODEL 1
REMARK VINA RESULT:      -8.5      0.000      0.000
REMARK  Name = 
REMARK  7 active torsions:
REMARK  status: ('A' for Active; 'I' for Inactive)
REMARK    1  A    between atoms: C_2  and  O_3
REMARK    2  A    between atoms: C_2  and  C_4
REMARK    3  A    between atoms: C_4  and  C_5
REMARK    4  A    between atoms: C_5  and  C_6
REMARK    5  A    between atoms: N_8  and  C_9
REMARK    6  A    between atoms: C_9  and  C_10
REMARK    7  A    between atoms: C_10  and  C_11
REMARK                            x       y       z     vdW  Elec       q    Type
REMARK                         _______ _______ _______ _____ _____    ______ ____
ROOT
ATOM      1  C   UNL     1       5.796   6.351  16.632  0.00  0.00    +0.000 C 
ATOM      2  O   UNL     1       6.422   7.400  16.499  0.00  0.00    +0.000 OA
ATOM      3  N   UNL     1       4.451   6.367  16.904  0.00  0.00    +0.000 N 
ATOM      4  H   UNL     1       3.931   5.493  16.893  0.00  0.00    +0.000 HD
ENDROOT
BRANCH   1   5
ATOM      5  C   UNL     1       6.470   4.957  16.578  0.00  0.00    +0.000 C 
ATOM      6  C   UNL     1       7.716   5.045  15.622  0.00  0.00    +0.000 C 
ATOM      7  C   UNL     1       7.147   4.667  14.287  0.00  0.00    +0.000 A 
ATOM      8  C   UNL     1       7.696   4.849  13.021  0.00  0.00    +0.000 A 
ATOM      9  C   UNL     1       6.979   4.391  11.908  0.00  0.00    +0.000 A 
ATOM     10  C   UNL     1       5.741   3.751  12.071  0.00  0.00    +0.000 A 
ATOM     11  C   UNL     1       5.204   3.560  13.349  0.00  0.00    +0.000 A 
ATOM     12  C   UNL     1       5.916   4.031  14.442  0.00  0.00    +0.000 A 
ATOM     13  C   UNL     1       5.550   3.906  15.894  0.00  0.00    +0.000 C 
BRANCH   5  14
ATOM     14  C   UNL     1       6.935   4.522  17.999  0.00  0.00    +0.000 C 
BRANCH  14  16
ATOM     15  O   UNL     1       5.493   5.450  19.726  0.00  0.00    +0.000 OA
ATOM     16  C   UNL     1       5.859   4.482  19.072  0.00  0.00    +0.000 C 
BRANCH  16  17
ATOM     17  O   UNL     1       5.307   3.262  19.258  0.00  0.00    +0.000 OA
ATOM     18  H   UNL     1       4.507   3.227  19.818  0.00  0.00    +0.000 HD
ENDBRANCH  16  17
ENDBRANCH  14  16
ENDBRANCH   5  14
ENDBRANCH   1   5
BRANCH   3  19
ATOM     19  C   UNL     1       3.697   7.612  16.913  0.00  0.00    +0.000 C 
BRANCH  19  20
ATOM     20  C   UNL     1       2.799   7.765  18.144  0.00  0.00    +0.000 C 
BRANCH  20  21
ATOM     21  C   UNL     1       2.400   6.441  18.709  0.00  0.00    +0.000 A 
ATOM     22  C   UNL     1       1.890   5.323  18.082  0.00  0.00    +0.000 A 
ATOM     23  C   UNL     1       1.767   4.292  19.051  0.00  0.00    +0.000 A 
ATOM     24  C   UNL     1       1.351   2.949  19.000  0.00  0.00    +0.000 A 
ATOM     25  C   UNL     1       1.379   2.180  20.168  0.00  0.00    +0.000 A 
ATOM     26  C   UNL     1       1.809   2.735  21.372  0.00  0.00    +0.000 A 
ATOM     27  C   UNL     1       2.222   4.068  21.448  0.00  0.00    +0.000 A 
ATOM     28  C   UNL     1       2.190   4.821  20.270  0.00  0.00    +0.000 A 
ATOM     29  N   UNL     1       2.537   6.135  20.045  0.00  0.00    +0.000 N 
ATOM     30  H   UNL     1       2.902   6.755  20.758  0.00  0.00    +0.000 HD
ENDBRANCH  20  21
ENDBRANCH  19  20
ENDBRANCH   3  19
TORSDOF 7
ENDMDL
MODEL 2
REMARK VINA RESULT:      -8.3      1.040      1.087
REMARK  Name = 
REMARK  7 active torsions:
REMARK  status: ('A' for Active; 'I' for Inactive)
REMARK    1  A    between atoms: C_2  and  O_3
REMARK    2  A    between atoms: C_2  and  C_4
REMARK    3  A    between atoms: C_4  and  C_5
REMARK    4  A    between atoms: C_5  and  C_6
REMARK    5  A    between atoms: N_8  and  C_9
REMARK    6  A    between atoms: C_9  and  C_10
REMARK    7  A    between atoms: C_10  and  C_11
REMARK                            x       y       z     vdW  Elec       q    Type
REMARK                         _______ _______ _______ _____ _____    ______ ____
ROOT
ATOM      1  C   UNL     1       5.115   6.416  16.320  0.00  0.00    +0.000 C 
ATOM      2  O   UNL     1       5.022   7.027  15.258  0.00  0.00    +0.000 OA
ATOM      3  N   UNL     1       4.481   6.872  17.449  0.00  0.00    +0.000 N 
ATOM      4  H   UNL     1       4.472   6.291  18.283  0.00  0.00    +0.000 HD
ENDROOT
BRANCH   1   5
ATOM      5  C   UNL     1       5.993   5.151  16.487  0.00  0.00    +0.000 C 
ATOM      6  C   UNL     1       7.341   5.376  15.708  0.00  0.00    +0.000 C 
ATOM      7  C   UNL     1       7.044   4.820  14.348  0.00  0.00    +0.000 A 
ATOM      8  C   UNL     1       7.744   5.002  13.158  0.00  0.00    +0.000 A 
ATOM      9  C   UNL     1       7.281   4.359  12.003  0.00  0.00    +0.000 A 
ATOM     10  C   UNL     1       6.144   3.538  12.051  0.00  0.00    +0.000 A 
ATOM     11  C   UNL     1       5.455   3.349  13.255  0.00  0.00    +0.000 A 
ATOM     12  C   UNL     1       5.914   4.003  14.388  0.00  0.00    +0.000 A 
ATOM     13  C   UNL     1       5.357   3.919  15.781  0.00  0.00    +0.000 C 
BRANCH   5  14
ATOM     14  C   UNL     1       6.298   4.895  17.992  0.00  0.00    +0.000 C 
BRANCH  14  16
ATOM     15  O   UNL     1       7.664   6.851  18.474  0.00  0.00    +0.000 OA
ATOM     16  C   UNL     1       7.487   5.644  18.571  0.00  0.00    +0.000 C 
BRANCH  16  17
ATOM     17  O   UNL     1       8.366   4.860  19.235  0.00  0.00    +0.000 OA
ATOM     18  H   UNL     1       9.207   5.279  19.503  0.00  0.00    +0.000 HD
ENDBRANCH  16  17
ENDBRANCH  14  16
ENDBRANCH   5  14
ENDBRANCH   1   5
BRANCH   3  19
ATOM     19  C   UNL     1       3.577   8.011  17.399  0.00  0.00    +0.000 C 
BRANCH  19  20
ATOM     20  C   UNL     1       2.468   7.947  18.454  0.00  0.00    +0.000 C 
BRANCH  20  21
ATOM     21  C   UNL     1       2.188   6.544  18.883  0.00  0.00    +0.000 A 
ATOM     22  C   UNL     1       1.841   5.437  18.134  0.00  0.00    +0.000 A 
ATOM     23  C   UNL     1       1.780   4.318  19.006  0.00  0.00    +0.000 A 
ATOM     24  C   UNL     1       1.521   2.948  18.820  0.00  0.00    +0.000 A 
ATOM     25  C   UNL     1       1.568   2.087  19.921  0.00  0.00    +0.000 A 
ATOM     26  C   UNL     1       1.866   2.577  21.192  0.00  0.00    +0.000 A 
ATOM     27  C   UNL     1       2.123   3.934  21.402  0.00  0.00    +0.000 A 
ATOM     28  C   UNL     1       2.073   4.780  20.289  0.00  0.00    +0.000 A 
ATOM     29  N   UNL     1       2.283   6.138  20.195  0.00  0.00    +0.000 N 
ATOM     30  H   UNL     1       2.537   6.728  20.979  0.00  0.00    +0.000 HD
ENDBRANCH  20  21
ENDBRANCH  19  20
ENDBRANCH   3  19
TORSDOF 7
ENDMDL
MODEL 3
REMARK VINA RESULT:      -8.2      1.635      6.711
REMARK  Name = 
REMARK  7 active torsions:
REMARK  status: ('A' for Active; 'I' for Inactive)
REMARK    1  A    between atoms: C_2  and  O_3
REMARK    2  A    between atoms: C_2  and  C_4
REMARK    3  A    between atoms: C_4  and  C_5
REMARK    4  A    between atoms: C_5  and  C_6
REMARK    5  A    between atoms: N_8  and  C_9
REMARK    6  A    between atoms: C_9  and  C_10
REMARK    7  A    between atoms: C_10  and  C_11
REMARK                            x       y       z     vdW  Elec       q    Type
REMARK                         _______ _______ _______ _____ _____    ______ ____
ROOT
ATOM      1  C   UNL     1       4.490   4.262  19.331  0.00  0.00    +0.000 C 
ATOM      2  O   UNL     1       5.207   3.380  19.798  0.00  0.00    +0.000 OA
ATOM      3  N   UNL     1       5.036   5.423  18.843  0.00  0.00    +0.000 N 
ATOM      4  H   UNL     1       4.440   6.086  18.355  0.00  0.00    +0.000 HD
ENDROOT
BRANCH   1   5
ATOM      5  C   UNL     1       2.944   4.172  19.321  0.00  0.00    +0.000 C 
ATOM      6  C   UNL     1       2.412   4.901  18.032  0.00  0.00    +0.000 C 
ATOM      7  C   UNL     1       2.189   6.306  18.504  0.00  0.00    +0.000 A 
ATOM      8  C   UNL     1       2.007   7.462  17.751  0.00  0.00    +0.000 A 
ATOM      9  C   UNL     1       1.794   8.673  18.422  0.00  0.00    +0.000 A 
ATOM     10  C   UNL     1       1.751   8.714  19.824  0.00  0.00    +0.000 A 
ATOM     11  C   UNL     1       1.921   7.544  20.573  0.00  0.00    +0.000 A 
ATOM     12  C   UNL     1       2.146   6.354  19.898  0.00  0.00    +0.000 A 
ATOM     13  C   UNL     1       2.319   4.985  20.492  0.00  0.00    +0.000 C 
BRANCH   5  14
ATOM     14  C   UNL     1       2.485   2.685  19.304  0.00  0.00    +0.000 C 
BRANCH  14  16
ATOM     15  O   UNL     1       2.289   1.894  17.011  0.00  0.00    +0.000 OA
ATOM     16  C   UNL     1       2.883   1.875  18.081  0.00  0.00    +0.000 C 
BRANCH  16  17
ATOM     17  O   UNL     1       3.983   1.110  18.258  0.00  0.00    +0.000 OA
ATOM     18  H   UNL     1       4.817   1.453  17.878  0.00  0.00    +0.000 HD
ENDBRANCH  16  17
ENDBRANCH  14  16
ENDBRANCH   5  14
ENDBRANCH   1   5
BRANCH   3  19
ATOM     19  C   UNL     1       6.477   5.594  18.740  0.00  0.00    +0.000 C 
BRANCH  19  20
ATOM     20  C   UNL     1       6.902   6.413  17.516  0.00  0.00    +0.000 C 
BRANCH  20  21
ATOM     21  C   UNL     1       6.723   5.647  16.246  0.00  0.00    +0.000 A 
ATOM     22  C   UNL     1       5.692   4.822  15.842  0.00  0.00    +0.000 A 
ATOM     23  C   UNL     1       5.955   4.412  14.509  0.00  0.00    +0.000 A 
ATOM     24  C   UNL     1       5.261   3.617  13.577  0.00  0.00    +0.000 A 
ATOM     25  C   UNL     1       5.802   3.430  12.302  0.00  0.00    +0.000 A 
ATOM     26  C   UNL     1       7.016   4.019  11.952  0.00  0.00    +0.000 A 
ATOM     27  C   UNL     1       7.726   4.808  12.862  0.00  0.00    +0.000 A 
ATOM     28  C   UNL     1       7.169   4.986  14.133  0.00  0.00    +0.000 A 
ATOM     29  N   UNL     1       7.632   5.703  15.214  0.00  0.00    +0.000 N 
ATOM     30  H   UNL     1       8.489   6.243  15.210  0.00  0.00    +0.000 HD
ENDBRANCH  20  21
ENDBRANCH  19  20
ENDBRANCH   3  19
TORSDOF 7
ENDMDL
MODEL 4
REMARK VINA RESULT:      -8.1      3.660      6.170
REMARK  Name = 
REMARK  7 active torsions:
REMARK  status: ('A' for Active; 'I' for Inactive)
REMARK    1  A    between atoms: C_2  and  O_3
REMARK    2  A    between atoms: C_2  and  C_4
REMARK    3  A    between atoms: C_4  and  C_5
REMARK    4  A    between atoms: C_5  and  C_6
REMARK    5  A    between atoms: N_8  and  C_9
REMARK    6  A    between atoms: C_9  and  C_10
REMARK    7  A    between atoms: C_10  and  C_11
REMARK                            x       y       z     vdW  Elec       q    Type
REMARK                         _______ _______ _______ _____ _____    ______ ____
ROOT
ATOM      1  C   UNL     1       4.045   6.740  17.539  0.00  0.00    +0.000 C 
ATOM      2  O   UNL     1       4.377   7.088  16.408  0.00  0.00    +0.000 OA
ATOM      3  N   UNL     1       3.060   7.411  18.218  0.00  0.00    +0.000 N 
ATOM      4  H   UNL     1       2.719   7.036  19.100  0.00  0.00    +0.000 HD
ENDROOT
BRANCH   1   5
ATOM      5  C   UNL     1       4.746   5.588  18.303  0.00  0.00    +0.000 C 
ATOM      6  C   UNL     1       4.486   4.246  17.524  0.00  0.00    +0.000 C 
ATOM      7  C   UNL     1       3.234   3.721  18.160  0.00  0.00    +0.000 A 
ATOM      8  C   UNL     1       2.371   2.730  17.701  0.00  0.00    +0.000 A 
ATOM      9  C   UNL     1       1.261   2.392  18.486  0.00  0.00    +0.000 A 
ATOM     10  C   UNL     1       1.037   3.029  19.716  0.00  0.00    +0.000 A 
ATOM     11  C   UNL     1       1.918   4.013  20.177  0.00  0.00    +0.000 A 
ATOM     12  C   UNL     1       3.004   4.351  19.383  0.00  0.00    +0.000 A 
ATOM     13  C   UNL     1       4.088   5.345  19.692  0.00  0.00    +0.000 C 
BRANCH   5  14
ATOM     14  C   UNL     1       6.278   5.848  18.396  0.00  0.00    +0.000 C 
BRANCH  14  16
ATOM     15  O   UNL     1       7.290   5.661  16.191  0.00  0.00    +0.000 OA
ATOM     16  C   UNL     1       7.132   5.206  17.316  0.00  0.00    +0.000 C 
BRANCH  16  17
ATOM     17  O   UNL     1       7.738   4.059  17.698  0.00  0.00    +0.000 OA
ATOM     18  H   UNL     1       7.224   3.236  17.581  0.00  0.00    +0.000 HD
ENDBRANCH  16  17
ENDBRANCH  14  16
ENDBRANCH   5  14
ENDBRANCH   1   5
BRANCH   3  19
ATOM     19  C   UNL     1       2.287   8.465  17.579  0.00  0.00    +0.000 C 
BRANCH  19  20
ATOM     20  C   UNL     1       1.871   9.579  18.546  0.00  0.00    +0.000 C 
BRANCH  20  21
ATOM     21  C   UNL     1       0.437   9.961  18.371  0.00  0.00    +0.000 A 
ATOM     22  C   UNL     1      -0.358  10.800  19.125  0.00  0.00    +0.000 A 
ATOM     23  C   UNL     1      -1.621  10.901  18.484  0.00  0.00    +0.000 A 
ATOM     24  C   UNL     1      -2.798  11.624  18.754  0.00  0.00    +0.000 A 
ATOM     25  C   UNL     1      -3.882  11.516  17.878  0.00  0.00    +0.000 A 
ATOM     26  C   UNL     1      -3.805  10.701  16.750  0.00  0.00    +0.000 A 
ATOM     27  C   UNL     1      -2.648   9.971  16.463  0.00  0.00    +0.000 A 
ATOM     28  C   UNL     1      -1.573  10.092  17.349  0.00  0.00    +0.000 A 
ATOM     29  N   UNL     1      -0.327   9.506  17.320  0.00  0.00    +0.000 N 
ATOM     30  H   UNL     1      -0.011   8.882  16.586  0.00  0.00    +0.000 HD
ENDBRANCH  20  21
ENDBRANCH  19  20
ENDBRANCH   3  19
TORSDOF 7
ENDMDL
MODEL 5
REMARK VINA RESULT:      -8.1      3.046      5.583
REMARK  Name = 
REMARK  7 active torsions:
REMARK  status: ('A' for Active; 'I' for Inactive)
REMARK    1  A    between atoms: C_2  and  O_3
REMARK    2  A    between atoms: C_2  and  C_4
REMARK    3  A    between atoms: C_4  and  C_5
REMARK    4  A    between atoms: C_5  and  C_6
REMARK    5  A    between atoms: N_8  and  C_9
REMARK    6  A    between atoms: C_9  and  C_10
REMARK    7  A    between atoms: C_10  and  C_11
REMARK                            x       y       z     vdW  Elec       q    Type
REMARK                         _______ _______ _______ _____ _____    ______ ____
ROOT
ATOM      1  C   UNL     1       4.324   6.141  17.106  0.00  0.00    +0.000 C 
ATOM      2  O   UNL     1       4.578   6.650  16.017  0.00  0.00    +0.000 OA
ATOM      3  N   UNL     1       3.745   6.880  18.107  0.00  0.00    +0.000 N 
ATOM      4  H   UNL     1       3.435   6.413  18.955  0.00  0.00    +0.000 HD
ENDROOT
BRANCH   1   5
ATOM      5  C   UNL     1       4.694   4.678  17.458  0.00  0.00    +0.000 C 
ATOM      6  C   UNL     1       3.503   3.747  17.020  0.00  0.00    +0.000 C 
ATOM      7  C   UNL     1       2.653   3.681  18.253  0.00  0.00    +0.000 A 
ATOM      8  C   UNL     1       1.335   3.253  18.383  0.00  0.00    +0.000 A 
ATOM      9  C   UNL     1       0.749   3.265  19.655  0.00  0.00    +0.000 A 
ATOM     10  C   UNL     1       1.482   3.686  20.775  0.00  0.00    +0.000 A 
ATOM     11  C   UNL     1       2.812   4.101  20.637  0.00  0.00    +0.000 A 
ATOM     12  C   UNL     1       3.376   4.100  19.370  0.00  0.00    +0.000 A 
ATOM     13  C   UNL     1       4.784   4.468  18.997  0.00  0.00    +0.000 C 
BRANCH   5  14
ATOM     14  C   UNL     1       5.991   4.249  16.711  0.00  0.00    +0.000 C 
BRANCH  14  16
ATOM     15  O   UNL     1       7.533   6.078  17.158  0.00  0.00    +0.000 OA
ATOM     16  C   UNL     1       7.284   4.881  17.200  0.00  0.00    +0.000 C 
BRANCH  16  17
ATOM     17  O   UNL     1       8.172   3.999  17.712  0.00  0.00    +0.000 OA
ATOM     18  H   UNL     1       8.783   4.343  18.394  0.00  0.00    +0.000 HD
ENDBRANCH  16  17
ENDBRANCH  14  16
ENDBRANCH   5  14
ENDBRANCH   1   5
BRANCH   3  19
ATOM     19  C   UNL     1       3.294   8.244  17.874  0.00  0.00    +0.000 C 
BRANCH  19  20
ATOM     20  C   UNL     1       1.770   8.366  17.771  0.00  0.00    +0.000 C 
BRANCH  20  21
ATOM     21  C   UNL     1       1.185   9.045  18.966  0.00  0.00    +0.000 A 
ATOM     22  C   UNL     1       0.451  10.210  19.057  0.00  0.00    +0.000 A 
ATOM     23  C   UNL     1       0.049  10.372  20.409  0.00  0.00    +0.000 A 
ATOM     24  C   UNL     1      -0.731  11.327  21.087  0.00  0.00    +0.000 A 
ATOM     25  C   UNL     1      -0.963  11.170  22.458  0.00  0.00    +0.000 A 
ATOM     26  C   UNL     1      -0.427  10.085  23.149  0.00  0.00    +0.000 A 
ATOM     27  C   UNL     1       0.355   9.127  22.497  0.00  0.00    +0.000 A 
ATOM     28  C   UNL     1       0.575   9.298  21.126  0.00  0.00    +0.000 A 
ATOM     29  N   UNL     1       1.288   8.525  20.237  0.00  0.00    +0.000 N 
ATOM     30  H   UNL     1       1.759   7.663  20.486  0.00  0.00    +0.000 HD
ENDBRANCH  20  21
ENDBRANCH  19  20
ENDBRANCH   3  19
TORSDOF 7
ENDMDL
MODEL 6
REMARK VINA RESULT:      -8.1      1.086      1.555
REMARK  Name = 
REMARK  7 active torsions:
REMARK  status: ('A' for Active; 'I' for Inactive)
REMARK    1  A    between atoms: C_2  and  O_3
REMARK    2  A    between atoms: C_2  and  C_4
REMARK    3  A    between atoms: C_4  and  C_5
REMARK    4  A    between atoms: C_5  and  C_6
REMARK    5  A    between atoms: N_8  and  C_9
REMARK    6  A    between atoms: C_9  and  C_10
REMARK    7  A    between atoms: C_10  and  C_11
REMARK                            x       y       z     vdW  Elec       q    Type
REMARK                         _______ _______ _______ _____ _____    ______ ____
ROOT
ATOM      1  C   UNL     1       5.181   6.452  16.415  0.00  0.00    +0.000 C 
ATOM      2  O   UNL     1       5.093   7.069  15.356  0.00  0.00    +0.000 OA
ATOM      3  N   UNL     1       4.570   6.920  17.552  0.00  0.00    +0.000 N 
ATOM      4  H   UNL     1       4.555   6.336  18.384  0.00  0.00    +0.000 HD
ENDROOT
BRANCH   1   5
ATOM      5  C   UNL     1       6.031   5.165  16.571  0.00  0.00    +0.000 C 
ATOM      6  C   UNL     1       7.377   5.362  15.781  0.00  0.00    +0.000 C 
ATOM      7  C   UNL     1       7.056   4.819  14.422  0.00  0.00    +0.000 A 
ATOM      8  C   UNL     1       7.750   4.989  13.227  0.00  0.00    +0.000 A 
ATOM      9  C   UNL     1       7.262   4.361  12.074  0.00  0.00    +0.000 A 
ATOM     10  C   UNL     1       6.107   3.567  12.128  0.00  0.00    +0.000 A 
ATOM     11  C   UNL     1       5.423   3.390  13.336  0.00  0.00    +0.000 A 
ATOM     12  C   UNL     1       5.907   4.029  14.468  0.00  0.00    +0.000 A 
ATOM     13  C   UNL     1       5.359   3.952  15.865  0.00  0.00    +0.000 C 
BRANCH   5  14
ATOM     14  C   UNL     1       6.342   4.896  18.072  0.00  0.00    +0.000 C 
BRANCH  14  16
ATOM     15  O   UNL     1       7.731   6.889  18.226  0.00  0.00    +0.000 OA
ATOM     16  C   UNL     1       7.309   5.861  18.739  0.00  0.00    +0.000 C 
BRANCH  16  17
ATOM     17  O   UNL     1       7.679   5.499  19.988  0.00  0.00    +0.000 OA
ATOM     18  H   UNL     1       7.378   4.621  20.294  0.00  0.00    +0.000 HD
ENDBRANCH  16  17
ENDBRANCH  14  16
ENDBRANCH   5  14
ENDBRANCH   1   5
BRANCH   3  19
ATOM     19  C   UNL     1       3.693   8.080  17.514  0.00  0.00    +0.000 C 
BRANCH  19  20
ATOM     20  C   UNL     1       2.264   7.772  17.973  0.00  0.00    +0.000 C 
BRANCH  20  21
ATOM     21  C   UNL     1       2.176   6.454  18.672  0.00  0.00    +0.000 A 
ATOM     22  C   UNL     1       2.260   6.152  20.016  0.00  0.00    +0.000 A 
ATOM     23  C   UNL     1       2.018   4.762  20.170  0.00  0.00    +0.000 A 
ATOM     24  C   UNL     1       1.937   3.902  21.281  0.00  0.00    +0.000 A 
ATOM     25  C   UNL     1       1.647   2.549  21.079  0.00  0.00    +0.000 A 
ATOM     26  C   UNL     1       1.444   2.052  19.793  0.00  0.00    +0.000 A 
ATOM     27  C   UNL     1       1.525   2.885  18.674  0.00  0.00    +0.000 A 
ATOM     28  C   UNL     1       1.813   4.236  18.895  0.00  0.00    +0.000 A 
ATOM     29  N   UNL     1       1.947   5.274  18.000  0.00  0.00    +0.000 N 
ATOM     30  H   UNL     1       1.825   5.179  16.998  0.00  0.00    +0.000 HD
ENDBRANCH  20  21
ENDBRANCH  19  20
ENDBRANCH   3  19
TORSDOF 7
ENDMDL
MODEL 7
REMARK VINA RESULT:      -8.1      2.948      5.684
REMARK  Name = 
REMARK  7 active torsions:
REMARK  status: ('A' for Active; 'I' for Inactive)
REMARK    1  A    between atoms: C_2  and  O_3
REMARK    2  A    between atoms: C_2  and  C_4
REMARK    3  A    between atoms: C_4  and  C_5
REMARK    4  A    between atoms: C_5  and  C_6
REMARK    5  A    between atoms: N_8  and  C_9
REMARK    6  A    between atoms: C_9  and  C_10
REMARK    7  A    between atoms: C_10  and  C_11
REMARK                            x       y       z     vdW  Elec       q    Type
REMARK                         _______ _______ _______ _____ _____    ______ ____
ROOT
ATOM      1  C   UNL     1       4.555   5.776  18.144  0.00  0.00    +0.000 C 
ATOM      2  O   UNL     1       5.388   6.267  18.902  0.00  0.00    +0.000 OA
ATOM      3  N   UNL     1       3.551   6.546  17.614  0.00  0.00    +0.000 N 
ATOM      4  H   UNL     1       2.945   6.150  16.899  0.00  0.00    +0.000 HD
ENDROOT
BRANCH   1   5
ATOM      5  C   UNL     1       4.526   4.268  17.790  0.00  0.00    +0.000 C 
ATOM      6  C   UNL     1       3.068   3.895  17.329  0.00  0.00    +0.000 C 
ATOM      7  C   UNL     1       2.408   3.466  18.604  0.00  0.00    +0.000 A 
ATOM      8  C   UNL     1       1.052   3.306  18.875  0.00  0.00    +0.000 A 
ATOM      9  C   UNL     1       0.670   2.872  20.151  0.00  0.00    +0.000 A 
ATOM     10  C   UNL     1       1.637   2.592  21.129  0.00  0.00    +0.000 A 
ATOM     11  C   UNL     1       2.999   2.741  20.843  0.00  0.00    +0.000 A 
ATOM     12  C   UNL     1       3.364   3.186  19.581  0.00  0.00    +0.000 A 
ATOM     13  C   UNL     1       4.756   3.383  19.049  0.00  0.00    +0.000 C 
BRANCH   5  14
ATOM     14  C   UNL     1       5.530   3.958  16.641  0.00  0.00    +0.000 C 
BRANCH  14  16
ATOM     15  O   UNL     1       7.306   5.475  15.958  0.00  0.00    +0.000 OA
ATOM     16  C   UNL     1       6.889   4.632  16.740  0.00  0.00    +0.000 C 
BRANCH  16  17
ATOM     17  O   UNL     1       7.631   4.228  17.796  0.00  0.00    +0.000 OA
ATOM     18  H   UNL     1       8.449   4.734  17.971  0.00  0.00    +0.000 HD
ENDBRANCH  16  17
ENDBRANCH  14  16
ENDBRANCH   5  14
ENDBRANCH   1   5
BRANCH   3  19
ATOM     19  C   UNL     1       3.513   7.985  17.822  0.00  0.00    +0.000 C 
BRANCH  19  20
ATOM     20  C   UNL     1       2.119   8.588  17.623  0.00  0.00    +0.000 C 
BRANCH  20  21
ATOM     21  C   UNL     1       1.458   8.902  18.926  0.00  0.00    +0.000 A 
ATOM     22  C   UNL     1       1.587   8.294  20.158  0.00  0.00    +0.000 A 
ATOM     23  C   UNL     1       0.816   9.032  21.095  0.00  0.00    +0.000 A 
ATOM     24  C   UNL     1       0.593   8.919  22.480  0.00  0.00    +0.000 A 
ATOM     25  C   UNL     1      -0.224   9.856  23.119  0.00  0.00    +0.000 A 
ATOM     26  C   UNL     1      -0.818  10.890  22.396  0.00  0.00    +0.000 A 
ATOM     27  C   UNL     1      -0.615  11.020  21.019  0.00  0.00    +0.000 A 
ATOM     28  C   UNL     1       0.208  10.074  20.397  0.00  0.00    +0.000 A 
ATOM     29  N   UNL     1       0.585   9.956  19.078  0.00  0.00    +0.000 N 
ATOM     30  H   UNL     1       0.304  10.600  18.348  0.00  0.00    +0.000 HD
ENDBRANCH  20  21
ENDBRANCH  19  20
ENDBRANCH   3  19
TORSDOF 7
ENDMDL
MODEL 8
REMARK VINA RESULT:      -8.1      2.991      5.469
REMARK  Name = 
REMARK  7 active torsions:
REMARK  status: ('A' for Active; 'I' for Inactive)
REMARK    1  A    between atoms: C_2  and  O_3
REMARK    2  A    between atoms: C_2  and  C_4
REMARK    3  A    between atoms: C_4  and  C_5
REMARK    4  A    between atoms: C_5  and  C_6
REMARK    5  A    between atoms: N_8  and  C_9
REMARK    6  A    between atoms: C_9  and  C_10
REMARK    7  A    between atoms: C_10  and  C_11
REMARK                            x       y       z     vdW  Elec       q    Type
REMARK                         _______ _______ _______ _____ _____    ______ ____
ROOT
ATOM      1  C   UNL     1       4.470   6.165  17.477  0.00  0.00    +0.000 C 
ATOM      2  O   UNL     1       4.685   6.402  16.291  0.00  0.00    +0.000 OA
ATOM      3  N   UNL     1       3.824   7.082  18.269  0.00  0.00    +0.000 N 
ATOM      4  H   UNL     1       3.552   6.819  19.213  0.00  0.00    +0.000 HD
ENDROOT
BRANCH   1   5
ATOM      5  C   UNL     1       4.964   4.876  18.180  0.00  0.00    +0.000 C 
ATOM      6  C   UNL     1       4.294   3.639  17.475  0.00  0.00    +0.000 C 
ATOM      7  C   UNL     1       3.043   3.429  18.274  0.00  0.00    +0.000 A 
ATOM      8  C   UNL     1       1.917   2.678  17.951  0.00  0.00    +0.000 A 
ATOM      9  C   UNL     1       0.866   2.614  18.876  0.00  0.00    +0.000 A 
ATOM     10  C   UNL     1       0.958   3.282  20.107  0.00  0.00    +0.000 A 
ATOM     11  C   UNL     1       2.100   4.023  20.429  0.00  0.00    +0.000 A 
ATOM     12  C   UNL     1       3.127   4.091  19.499  0.00  0.00    +0.000 A 
ATOM     13  C   UNL     1       4.447   4.793  19.645  0.00  0.00    +0.000 C 
BRANCH   5  14
ATOM     14  C   UNL     1       6.513   4.758  18.077  0.00  0.00    +0.000 C 
BRANCH  14  16
ATOM     15  O   UNL     1       7.576   5.404  20.168  0.00  0.00    +0.000 OA
ATOM     16  C   UNL     1       7.316   5.659  19.000  0.00  0.00    +0.000 C 
BRANCH  16  17
ATOM     17  O   UNL     1       7.750   6.800  18.420  0.00  0.00    +0.000 OA
ATOM     18  H   UNL     1       8.694   6.830  18.170  0.00  0.00    +0.000 HD
ENDBRANCH  16  17
ENDBRANCH  14  16
ENDBRANCH   5  14
ENDBRANCH   1   5
BRANCH   3  19
ATOM     19  C   UNL     1       3.257   8.298  17.707  0.00  0.00    +0.000 C 
BRANCH  19  20
ATOM     20  C   UNL     1       1.725   8.310  17.716  0.00  0.00    +0.000 C 
BRANCH  20  21
ATOM     21  C   UNL     1       1.182   8.990  18.931  0.00  0.00    +0.000 A 
ATOM     22  C   UNL     1       0.460  10.160  19.047  0.00  0.00    +0.000 A 
ATOM     23  C   UNL     1       0.101  10.322  20.411  0.00  0.00    +0.000 A 
ATOM     24  C   UNL     1      -0.651  11.280  21.116  0.00  0.00    +0.000 A 
ATOM     25  C   UNL     1      -0.841  11.121  22.492  0.00  0.00    +0.000 A 
ATOM     26  C   UNL     1      -0.293  10.030  23.164  0.00  0.00    +0.000 A 
ATOM     27  C   UNL     1       0.461   9.068  22.485  0.00  0.00    +0.000 A 
ATOM     28  C   UNL     1       0.641   9.242  21.109  0.00  0.00    +0.000 A 
ATOM     29  N   UNL     1       1.320   8.465  20.196  0.00  0.00    +0.000 N 
ATOM     30  H   UNL     1       1.792   7.600  20.429  0.00  0.00    +0.000 HD
ENDBRANCH  20  21
ENDBRANCH  19  20
ENDBRANCH   3  19
TORSDOF 7
ENDMDL
MODEL 9
REMARK VINA RESULT:      -8.1      1.911      6.858
REMARK  Name = 
REMARK  7 active torsions:
REMARK  status: ('A' for Active; 'I' for Inactive)
REMARK    1  A    between atoms: C_2  and  O_3
REMARK    2  A    between atoms: C_2  and  C_4
REMARK    3  A    between atoms: C_4  and  C_5
REMARK    4  A    between atoms: C_5  and  C_6
REMARK    5  A    between atoms: N_8  and  C_9
REMARK    6  A    between atoms: C_9  and  C_10
REMARK    7  A    between atoms: C_10  and  C_11
REMARK                            x       y       z     vdW  Elec       q    Type
REMARK                         _______ _______ _______ _____ _____    ______ ____
ROOT
ATOM      1  C   UNL     1       4.451   4.431  19.343  0.00  0.00    +0.000 C 
ATOM      2  O   UNL     1       5.126   3.660  20.021  0.00  0.00    +0.000 OA
ATOM      3  N   UNL     1       5.043   5.459  18.654  0.00  0.00    +0.000 N 
ATOM      4  H   UNL     1       4.485   6.011  18.007  0.00  0.00    +0.000 HD
ENDROOT
BRANCH   1   5
ATOM      5  C   UNL     1       2.906   4.354  19.270  0.00  0.00    +0.000 C 
ATOM      6  C   UNL     1       2.432   5.102  17.970  0.00  0.00    +0.000 C 
ATOM      7  C   UNL     1       2.201   6.504  18.450  0.00  0.00    +0.000 A 
ATOM      8  C   UNL     1       2.059   7.670  17.703  0.00  0.00    +0.000 A 
ATOM      9  C   UNL     1       1.829   8.875  18.380  0.00  0.00    +0.000 A 
ATOM     10  C   UNL     1       1.730   8.899  19.780  0.00  0.00    +0.000 A 
ATOM     11  C   UNL     1       1.860   7.720  20.521  0.00  0.00    +0.000 A 
ATOM     12  C   UNL     1       2.103   6.536  19.841  0.00  0.00    +0.000 A 
ATOM     13  C   UNL     1       2.241   5.158  20.425  0.00  0.00    +0.000 C 
BRANCH   5  14
ATOM     14  C   UNL     1       2.436   2.871  19.217  0.00  0.00    +0.000 C 
BRANCH  14  16
ATOM     15  O   UNL     1       0.193   2.289  18.474  0.00  0.00    +0.000 OA
ATOM     16  C   UNL     1       0.943   2.635  19.377  0.00  0.00    +0.000 C 
BRANCH  16  17
ATOM     17  O   UNL     1       0.482   2.831  20.632  0.00  0.00    +0.000 OA
ATOM     18  H   UNL     1      -0.447   2.580  20.799  0.00  0.00    +0.000 HD
ENDBRANCH  16  17
ENDBRANCH  14  16
ENDBRANCH   5  14
ENDBRANCH   1   5
BRANCH   3  19
ATOM     19  C   UNL     1       6.491   5.593  18.593  0.00  0.00    +0.000 C 
BRANCH  19  20
ATOM     20  C   UNL     1       6.975   6.370  17.365  0.00  0.00    +0.000 C 
BRANCH  20  21
ATOM     21  C   UNL     1       6.766   5.600  16.102  0.00  0.00    +0.000 A 
ATOM     22  C   UNL     1       5.723   4.780  15.722  0.00  0.00    +0.000 A 
ATOM     23  C   UNL     1       5.957   4.362  14.386  0.00  0.00    +0.000 A 
ATOM     24  C   UNL     1       5.240   3.567  13.471  0.00  0.00    +0.000 A 
ATOM     25  C   UNL     1       5.755   3.371  12.186  0.00  0.00    +0.000 A 
ATOM     26  C   UNL     1       6.967   3.950  11.811  0.00  0.00    +0.000 A 
ATOM     27  C   UNL     1       7.698   4.739  12.703  0.00  0.00    +0.000 A 
ATOM     28  C   UNL     1       7.167   4.926  13.984  0.00  0.00    +0.000 A 
ATOM     29  N   UNL     1       7.656   5.645  15.052  0.00  0.00    +0.000 N 
ATOM     30  H   UNL     1       8.516   6.180  15.030  0.00  0.00    +0.000 HD
ENDBRANCH  20  21
ENDBRANCH  19  20
ENDBRANCH   3  19
TORSDOF 7
ENDMDL
