MODEL 1
REMARK VINA RESULT:      -8.0      0.000      0.000
REMARK  Name = 
REMARK  11 active torsions:
REMARK  status: ('A' for Active; 'I' for Inactive)
REMARK    1  A    between atoms: C_1  and  O_2
REMARK    2  A    between atoms: O_2  and  C_3
REMARK    3  A    between atoms: C_8  and  C_9
REMARK    4  A    between atoms: C_12  and  N_13
REMARK    5  A    between atoms: N_13  and  C_14
REMARK    6  A    between atoms: C_15  and  C_16
REMARK    7  A    between atoms: C_16  and  C_18
REMARK    8  A    between atoms: C_21  and  O_22
REMARK    9  A    between atoms: O_22  and  C_23
REMARK   10  A    between atoms: C_24  and  O_25
REMARK   11  A    between atoms: C_27  and  C_28
REMARK                            x       y       z     vdW  Elec       q    Type
REMARK                         _______ _______ _______ _____ _____    ______ ____
ROOT
ATOM      1  C   UNL     1       0.790   9.595  19.706  0.00  0.00    +0.000 A 
ATOM      2  C   UNL     1       1.278   9.986  18.461  0.00  0.00    +0.000 A 
ATOM      3  C   UNL     1       2.162   9.158  17.750  0.00  0.00    +0.000 A 
ATOM      4  C   UNL     1       2.598   7.912  18.243  0.00  0.00    +0.000 A 
ATOM      5  C   UNL     1       2.126   7.517  19.511  0.00  0.00    +0.000 A 
ATOM      6  C   UNL     1       2.519   6.256  20.231  0.00  0.00    +0.000 C 
ATOM      7  C   UNL     1       1.225   8.361  20.211  0.00  0.00    +0.000 A 
ENDROOT
BRANCH   1  13
ATOM      8  C   UNL     1      -2.889  13.152  23.247  0.00  0.00    +0.000 A 
ATOM      9  C   UNL     1      -3.120  13.645  21.965  0.00  0.00    +0.000 A 
ATOM     10  C   UNL     1      -2.472  13.086  20.860  0.00  0.00    +0.000 A 
ATOM     11  C   UNL     1      -1.572  12.014  21.036  0.00  0.00    +0.000 A 
ATOM     12  N   UNL     1      -0.856  11.393  20.034  0.00  0.00    +0.000 NA
ATOM     13  C   UNL     1      -0.117  10.419  20.529  0.00  0.00    +0.000 A 
ATOM     14  S   UNL     1      -0.236  10.221  22.235  0.00  0.00    +0.000 S 
ATOM     15  C   UNL     1      -1.358  11.524  22.323  0.00  0.00    +0.000 A 
ATOM     16  C   UNL     1      -2.007  12.081  23.440  0.00  0.00    +0.000 A 
BRANCH   8  18
ATOM     17  C   UNL     1      -2.931  14.834  24.926  0.00  0.00    +0.000 C 
ATOM     18  O   UNL     1      -3.464  13.626  24.396  0.00  0.00    +0.000 OA
ENDBRANCH   8  18
ENDBRANCH   1  13
BRANCH   4  19
ATOM     19  N   UNL     1       3.442   7.160  17.396  0.00  0.00    +0.000 N 
ATOM     20  H   UNL     1       2.969   6.482  16.795  0.00  0.00    +0.000 HD
BRANCH  19  21
ATOM     21  C   UNL     1       4.803   6.999  17.405  0.00  0.00    +0.000 C 
ATOM     22  C   UNL     1       5.528   5.921  17.061  0.00  0.00    +0.000 C 
BRANCH  22  23
ATOM     23  C   UNL     1       4.940   4.623  16.615  0.00  0.00    +0.000 C 
ATOM     24  O   UNL     1       5.115   4.197  15.477  0.00  0.00    +0.000 OA
BRANCH  23  25
ATOM     25  C   UNL     1       4.100   3.860  17.590  0.00  0.00    +0.000 A 
ATOM     26  C   UNL     1       4.651   3.504  18.828  0.00  0.00    +0.000 A 
ATOM     27  C   UNL     1       3.857   2.888  19.808  0.00  0.00    +0.000 A 
ATOM     28  C   UNL     1       2.502   2.627  19.580  0.00  0.00    +0.000 A 
ATOM     29  C   UNL     1       1.961   2.983  18.343  0.00  0.00    +0.000 A 
ATOM     30  C   UNL     1       2.752   3.578  17.349  0.00  0.00    +0.000 A 
BRANCH  28  31
ATOM     31  O   UNL     1       1.828   2.140  20.666  0.00  0.00    +0.000 OA
ATOM     32  C   UNL     1       1.960   2.831  21.902  0.00  0.00    +0.000 C 
ENDBRANCH  28  31
BRANCH  29  33
ATOM     33  O   UNL     1       0.633   2.866  18.044  0.00  0.00    +0.000 OA
ATOM     34  H   UNL     1       0.508   3.289  17.177  0.00  0.00    +0.000 HD
ENDBRANCH  29  33
ENDBRANCH  23  25
ENDBRANCH  22  23
ENDBRANCH  19  21
ENDBRANCH   4  19
TORSDOF 8
ENDMDL
MODEL 2
REMARK VINA RESULT:      -7.9      2.253      3.973
REMARK  Name = 
REMARK  11 active torsions:
REMARK  status: ('A' for Active; 'I' for Inactive)
REMARK    1  A    between atoms: C_1  and  O_2
REMARK    2  A    between atoms: O_2  and  C_3
REMARK    3  A    between atoms: C_8  and  C_9
REMARK    4  A    between atoms: C_12  and  N_13
REMARK    5  A    between atoms: N_13  and  C_14
REMARK    6  A    between atoms: C_15  and  C_16
REMARK    7  A    between atoms: C_16  and  C_18
REMARK    8  A    between atoms: C_21  and  O_22
REMARK    9  A    between atoms: O_22  and  C_23
REMARK   10  A    between atoms: C_24  and  O_25
REMARK   11  A    between atoms: C_27  and  C_28
REMARK                            x       y       z     vdW  Elec       q    Type
REMARK                         _______ _______ _______ _____ _____    ______ ____
ROOT
ATOM      1  C   UNL     1       1.208   8.989  19.467  0.00  0.00    +0.000 A 
ATOM      2  C   UNL     1       1.831   9.122  18.228  0.00  0.00    +0.000 A 
ATOM      3  C   UNL     1       2.638   8.091  17.721  0.00  0.00    +0.000 A 
ATOM      4  C   UNL     1       2.862   6.888  18.421  0.00  0.00    +0.000 A 
ATOM      5  C   UNL     1       2.253   6.753  19.685  0.00  0.00    +0.000 A 
ATOM      6  C   UNL     1       2.417   5.575  20.608  0.00  0.00    +0.000 C 
ATOM      7  C   UNL     1       1.432   7.801  20.177  0.00  0.00    +0.000 A 
ENDROOT
BRANCH   1  13
ATOM      8  C   UNL     1      -2.470  13.328  21.991  0.00  0.00    +0.000 A 
ATOM      9  C   UNL     1      -2.012  12.624  23.101  0.00  0.00    +0.000 A 
ATOM     10  C   UNL     1      -1.130  11.550  22.950  0.00  0.00    +0.000 A 
ATOM     11  C   UNL     1      -0.696  11.168  21.663  0.00  0.00    +0.000 A 
ATOM     12  N   UNL     1       0.152  10.118  21.380  0.00  0.00    +0.000 NA
ATOM     13  C   UNL     1       0.370  10.037  20.082  0.00  0.00    +0.000 A 
ATOM     14  S   UNL     1      -0.456  11.216  19.137  0.00  0.00    +0.000 S 
ATOM     15  C   UNL     1      -1.155  11.889  20.561  0.00  0.00    +0.000 A 
ATOM     16  C   UNL     1      -2.042  12.970  20.706  0.00  0.00    +0.000 A 
BRANCH   8  18
ATOM     17  C   UNL     1      -3.965  14.662  23.270  0.00  0.00    +0.000 C 
ATOM     18  O   UNL     1      -3.337  14.389  22.024  0.00  0.00    +0.000 OA
ENDBRANCH   8  18
ENDBRANCH   1  13
BRANCH   4  19
ATOM     19  N   UNL     1       3.650   5.916  17.767  0.00  0.00    +0.000 N 
ATOM     20  H   UNL     1       4.344   6.282  17.112  0.00  0.00    +0.000 HD
BRANCH  19  21
ATOM     21  C   UNL     1       3.491   4.559  17.663  0.00  0.00    +0.000 C 
ATOM     22  C   UNL     1       4.311   3.653  17.104  0.00  0.00    +0.000 C 
BRANCH  22  23
ATOM     23  C   UNL     1       5.599   3.991  16.429  0.00  0.00    +0.000 C 
ATOM     24  O   UNL     1       5.932   3.454  15.376  0.00  0.00    +0.000 OA
BRANCH  23  25
ATOM     25  C   UNL     1       6.497   4.989  17.090  0.00  0.00    +0.000 A 
ATOM     26  C   UNL     1       6.767   6.198  16.435  0.00  0.00    +0.000 A 
ATOM     27  C   UNL     1       7.512   7.201  17.074  0.00  0.00    +0.000 A 
ATOM     28  C   UNL     1       7.992   7.025  18.376  0.00  0.00    +0.000 A 
ATOM     29  C   UNL     1       7.721   5.816  19.021  0.00  0.00    +0.000 A 
ATOM     30  C   UNL     1       6.996   4.799  18.382  0.00  0.00    +0.000 A 
BRANCH  28  31
ATOM     31  O   UNL     1       8.592   8.130  18.913  0.00  0.00    +0.000 OA
ATOM     32  C   UNL     1       8.451   9.369  18.227  0.00  0.00    +0.000 C 
ENDBRANCH  28  31
BRANCH  29  33
ATOM     33  O   UNL     1       8.053   5.571  20.323  0.00  0.00    +0.000 OA
ATOM     34  H   UNL     1       8.344   4.644  20.362  0.00  0.00    +0.000 HD
ENDBRANCH  29  33
ENDBRANCH  23  25
ENDBRANCH  22  23
ENDBRANCH  19  21
ENDBRANCH   4  19
TORSDOF 8
ENDMDL
MODEL 3
REMARK VINA RESULT:      -7.9      0.956      1.275
REMARK  Name = 
REMARK  11 active torsions:
REMARK  status: ('A' for Active; 'I' for Inactive)
REMARK    1  A    between atoms: C_1  and  O_2
REMARK    2  A    between atoms: O_2  and  C_3
REMARK    3  A    between atoms: C_8  and  C_9
REMARK    4  A    between atoms: C_12  and  N_13
REMARK    5  A    between atoms: N_13  and  C_14
REMARK    6  A    between atoms: C_15  and  C_16
REMARK    7  A    between atoms: C_16  and  C_18
REMARK    8  A    between atoms: C_21  and  O_22
REMARK    9  A    between atoms: O_22  and  C_23
REMARK   10  A    between atoms: C_24  and  O_25
REMARK   11  A    between atoms: C_27  and  C_28
REMARK                            x       y       z     vdW  Elec       q    Type
REMARK                         _______ _______ _______ _____ _____    ______ ____
ROOT
ATOM      1  C   UNL     1       1.062   9.426  19.327  0.00  0.00    +0.000 A 
ATOM      2  C   UNL     1       1.647   9.762  18.108  0.00  0.00    +0.000 A 
ATOM      3  C   UNL     1       2.562   8.892  17.493  0.00  0.00    +0.000 A 
ATOM      4  C   UNL     1       2.935   7.657  18.060  0.00  0.00    +0.000 A 
ATOM      5  C   UNL     1       2.364   7.318  19.303  0.00  0.00    +0.000 A 
ATOM      6  C   UNL     1       2.678   6.077  20.094  0.00  0.00    +0.000 C 
ATOM      7  C   UNL     1       1.434   8.204  19.905  0.00  0.00    +0.000 A 
ENDROOT
BRANCH   1  13
ATOM      8  C   UNL     1      -3.061  13.008  22.309  0.00  0.00    +0.000 A 
ATOM      9  C   UNL     1      -2.486  12.270  23.340  0.00  0.00    +0.000 A 
ATOM     10  C   UNL     1      -1.480  11.337  23.073  0.00  0.00    +0.000 A 
ATOM     11  C   UNL     1      -1.039  11.133  21.749  0.00  0.00    +0.000 A 
ATOM     12  N   UNL     1      -0.073  10.231  21.355  0.00  0.00    +0.000 NA
ATOM     13  C   UNL     1       0.116  10.297  20.051  0.00  0.00    +0.000 A 
ATOM     14  S   UNL     1      -0.880  11.441  19.236  0.00  0.00    +0.000 S 
ATOM     15  C   UNL     1      -1.616  11.885  20.728  0.00  0.00    +0.000 A 
ATOM     16  C   UNL     1      -2.629  12.826  20.989  0.00  0.00    +0.000 A 
BRANCH   8  18
ATOM     17  C   UNL     1      -3.696  15.158  23.097  0.00  0.00    +0.000 C 
ATOM     18  O   UNL     1      -4.054  13.941  22.456  0.00  0.00    +0.000 OA
ENDBRANCH   8  18
ENDBRANCH   1  13
BRANCH   4  19
ATOM     19  N   UNL     1       3.822   6.859  17.304  0.00  0.00    +0.000 N 
ATOM     20  H   UNL     1       3.379   6.197  16.663  0.00  0.00    +0.000 HD
BRANCH  19  21
ATOM     21  C   UNL     1       5.167   6.636  17.446  0.00  0.00    +0.000 C 
ATOM     22  C   UNL     1       5.863   5.508  17.229  0.00  0.00    +0.000 C 
BRANCH  22  23
ATOM     23  C   UNL     1       5.253   4.214  16.803  0.00  0.00    +0.000 C 
ATOM     24  O   UNL     1       5.516   3.709  15.715  0.00  0.00    +0.000 OA
BRANCH  23  25
ATOM     25  C   UNL     1       4.279   3.557  17.730  0.00  0.00    +0.000 A 
ATOM     26  C   UNL     1       4.709   3.175  19.007  0.00  0.00    +0.000 A 
ATOM     27  C   UNL     1       3.796   2.660  19.940  0.00  0.00    +0.000 A 
ATOM     28  C   UNL     1       2.440   2.528  19.624  0.00  0.00    +0.000 A 
ATOM     29  C   UNL     1       2.020   2.909  18.348  0.00  0.00    +0.000 A 
ATOM     30  C   UNL     1       2.929   3.404  17.401  0.00  0.00    +0.000 A 
BRANCH  28  31
ATOM     31  O   UNL     1       1.651   2.131  20.669  0.00  0.00    +0.000 OA
ATOM     32  C   UNL     1       1.833   2.771  21.926  0.00  0.00    +0.000 C 
ENDBRANCH  28  31
BRANCH  29  33
ATOM     33  O   UNL     1       0.709   2.916  17.963  0.00  0.00    +0.000 OA
ATOM     34  H   UNL     1       0.209   2.495  18.682  0.00  0.00    +0.000 HD
ENDBRANCH  29  33
ENDBRANCH  23  25
ENDBRANCH  22  23
ENDBRANCH  19  21
ENDBRANCH   4  19
TORSDOF 8
ENDMDL
MODEL 4
REMARK VINA RESULT:      -7.9      2.081      4.304
REMARK  Name = 
REMARK  11 active torsions:
REMARK  status: ('A' for Active; 'I' for Inactive)
REMARK    1  A    between atoms: C_1  and  O_2
REMARK    2  A    between atoms: O_2  and  C_3
REMARK    3  A    between atoms: C_8  and  C_9
REMARK    4  A    between atoms: C_12  and  N_13
REMARK    5  A    between atoms: N_13  and  C_14
REMARK    6  A    between atoms: C_15  and  C_16
REMARK    7  A    between atoms: C_16  and  C_18
REMARK    8  A    between atoms: C_21  and  O_22
REMARK    9  A    between atoms: O_22  and  C_23
REMARK   10  A    between atoms: C_24  and  O_25
REMARK   11  A    between atoms: C_27  and  C_28
REMARK                            x       y       z     vdW  Elec       q    Type
REMARK                         _______ _______ _______ _____ _____    ______ ____
ROOT
ATOM      1  C   UNL     1      -0.343  10.903  21.973  0.00  0.00    +0.000 A 
ATOM      2  C   UNL     1       0.001   9.768  22.705  0.00  0.00    +0.000 A 
ATOM      3  C   UNL     1       0.690   8.708  22.095  0.00  0.00    +0.000 A 
ATOM      4  C   UNL     1       1.067   8.728  20.737  0.00  0.00    +0.000 A 
ATOM      5  C   UNL     1       0.706   9.863  19.983  0.00  0.00    +0.000 A 
ATOM      6  C   UNL     1       0.965  10.048  18.512  0.00  0.00    +0.000 C 
ATOM      7  C   UNL     1       0.018  10.929  20.618  0.00  0.00    +0.000 A 
ENDROOT
BRANCH   1  13
ATOM      8  C   UNL     1      -3.587  15.604  24.443  0.00  0.00    +0.000 A 
ATOM      9  C   UNL     1      -2.286  15.868  24.864  0.00  0.00    +0.000 A 
ATOM     10  C   UNL     1      -1.234  15.025  24.496  0.00  0.00    +0.000 A 
ATOM     11  C   UNL     1      -1.483  13.892  23.693  0.00  0.00    +0.000 A 
ATOM     12  N   UNL     1      -0.538  12.975  23.283  0.00  0.00    +0.000 NA
ATOM     13  C   UNL     1      -1.093  12.044  22.532  0.00  0.00    +0.000 A 
ATOM     14  S   UNL     1      -2.790  12.222  22.302  0.00  0.00    +0.000 S 
ATOM     15  C   UNL     1      -2.788  13.646  23.270  0.00  0.00    +0.000 A 
ATOM     16  C   UNL     1      -3.852  14.490  23.635  0.00  0.00    +0.000 A 
BRANCH   8  18
ATOM     17  C   UNL     1      -4.452  17.682  25.206  0.00  0.00    +0.000 C 
ATOM     18  O   UNL     1      -4.690  16.357  24.747  0.00  0.00    +0.000 OA
ENDBRANCH   8  18
ENDBRANCH   1  13
BRANCH   4  19
ATOM     19  N   UNL     1       1.806   7.618  20.272  0.00  0.00    +0.000 N 
ATOM     20  H   UNL     1       2.191   7.711  19.330  0.00  0.00    +0.000 HD
BRANCH  19  21
ATOM     21  C   UNL     1       1.899   6.339  20.756  0.00  0.00    +0.000 C 
ATOM     22  C   UNL     1       2.162   5.202  20.091  0.00  0.00    +0.000 C 
BRANCH  22  23
ATOM     23  C   UNL     1       2.382   5.124  18.617  0.00  0.00    +0.000 C 
ATOM     24  O   UNL     1       1.487   4.772  17.853  0.00  0.00    +0.000 OA
BRANCH  23  25
ATOM     25  C   UNL     1       3.741   5.460  18.090  0.00  0.00    +0.000 A 
ATOM     26  C   UNL     1       3.937   6.694  17.455  0.00  0.00    +0.000 A 
ATOM     27  C   UNL     1       5.222   7.088  17.051  0.00  0.00    +0.000 A 
ATOM     28  C   UNL     1       6.333   6.270  17.280  0.00  0.00    +0.000 A 
ATOM     29  C   UNL     1       6.129   5.042  17.911  0.00  0.00    +0.000 A 
ATOM     30  C   UNL     1       4.846   4.629  18.299  0.00  0.00    +0.000 A 
BRANCH  28  31
ATOM     31  O   UNL     1       7.532   6.837  16.945  0.00  0.00    +0.000 OA
ATOM     32  C   UNL     1       7.900   8.053  17.586  0.00  0.00    +0.000 C 
ENDBRANCH  28  31
BRANCH  29  33
ATOM     33  O   UNL     1       7.148   4.207  18.272  0.00  0.00    +0.000 OA
ATOM     34  H   UNL     1       7.877   4.777  18.572  0.00  0.00    +0.000 HD
ENDBRANCH  29  33
ENDBRANCH  23  25
ENDBRANCH  22  23
ENDBRANCH  19  21
ENDBRANCH   4  19
TORSDOF 8
ENDMDL
MODEL 5
REMARK VINA RESULT:      -7.9      2.151      3.820
REMARK  Name = 
REMARK  11 active torsions:
REMARK  status: ('A' for Active; 'I' for Inactive)
REMARK    1  A    between atoms: C_1  and  O_2
REMARK    2  A    between atoms: O_2  and  C_3
REMARK    3  A    between atoms: C_8  and  C_9
REMARK    4  A    between atoms: C_12  and  N_13
REMARK    5  A    between atoms: N_13  and  C_14
REMARK    6  A    between atoms: C_15  and  C_16
REMARK    7  A    between atoms: C_16  and  C_18
REMARK    8  A    between atoms: C_21  and  O_22
REMARK    9  A    between atoms: O_22  and  C_23
REMARK   10  A    between atoms: C_24  and  O_25
REMARK   11  A    between atoms: C_27  and  C_28
REMARK                            x       y       z     vdW  Elec       q    Type
REMARK                         _______ _______ _______ _____ _____    ______ ____
ROOT
ATOM      1  C   UNL     1       1.321   8.824  19.705  0.00  0.00    +0.000 A 
ATOM      2  C   UNL     1       1.868   9.037  18.441  0.00  0.00    +0.000 A 
ATOM      3  C   UNL     1       2.630   8.036  17.818  0.00  0.00    +0.000 A 
ATOM      4  C   UNL     1       2.883   6.787  18.420  0.00  0.00    +0.000 A 
ATOM      5  C   UNL     1       2.351   6.571  19.708  0.00  0.00    +0.000 A 
ATOM      6  C   UNL     1       2.558   5.333  20.537  0.00  0.00    +0.000 C 
ATOM      7  C   UNL     1       1.574   7.589  20.318  0.00  0.00    +0.000 A 
ENDROOT
BRANCH   1  13
ATOM      8  C   UNL     1      -1.857  13.105  22.916  0.00  0.00    +0.000 A 
ATOM      9  C   UNL     1      -1.585  13.755  21.715  0.00  0.00    +0.000 A 
ATOM     10  C   UNL     1      -0.879  13.106  20.698  0.00  0.00    +0.000 A 
ATOM     11  C   UNL     1      -0.433  11.780  20.882  0.00  0.00    +0.000 A 
ATOM     12  N   UNL     1       0.287  11.041  19.967  0.00  0.00    +0.000 NA
ATOM     13  C   UNL     1       0.534   9.835  20.439  0.00  0.00    +0.000 A 
ATOM     14  S   UNL     1      -0.077   9.542  22.023  0.00  0.00    +0.000 S 
ATOM     15  C   UNL     1      -0.722  11.138  22.084  0.00  0.00    +0.000 A 
ATOM     16  C   UNL     1      -1.432  11.784  23.112  0.00  0.00    +0.000 A 
BRANCH   8  18
ATOM     17  C   UNL     1      -2.043  14.880  24.485  0.00  0.00    +0.000 C 
ATOM     18  O   UNL     1      -2.533  13.645  23.978  0.00  0.00    +0.000 OA
ENDBRANCH   8  18
ENDBRANCH   1  13
BRANCH   4  19
ATOM     19  N   UNL     1       3.618   5.856  17.654  0.00  0.00    +0.000 N 
ATOM     20  H   UNL     1       4.205   6.257  16.920  0.00  0.00    +0.000 HD
BRANCH  19  21
ATOM     21  C   UNL     1       3.503   4.494  17.552  0.00  0.00    +0.000 C 
ATOM     22  C   UNL     1       4.360   3.612  17.011  0.00  0.00    +0.000 C 
BRANCH  22  23
ATOM     23  C   UNL     1       5.650   3.988  16.359  0.00  0.00    +0.000 C 
ATOM     24  O   UNL     1       6.007   3.476  15.302  0.00  0.00    +0.000 OA
BRANCH  23  25
ATOM     25  C   UNL     1       6.518   4.993  17.048  0.00  0.00    +0.000 A 
ATOM     26  C   UNL     1       6.746   6.230  16.431  0.00  0.00    +0.000 A 
ATOM     27  C   UNL     1       7.461   7.236  17.098  0.00  0.00    +0.000 A 
ATOM     28  C   UNL     1       7.951   7.035  18.393  0.00  0.00    +0.000 A 
ATOM     29  C   UNL     1       7.722   5.799  19.000  0.00  0.00    +0.000 A 
ATOM     30  C   UNL     1       7.028   4.779  18.332  0.00  0.00    +0.000 A 
BRANCH  28  31
ATOM     31  O   UNL     1       8.518   8.142  18.962  0.00  0.00    +0.000 OA
ATOM     32  C   UNL     1       8.510   9.356  18.219  0.00  0.00    +0.000 C 
ENDBRANCH  28  31
BRANCH  29  33
ATOM     33  O   UNL     1       8.068   5.524  20.292  0.00  0.00    +0.000 OA
ATOM     34  H   UNL     1       9.039   5.502  20.318  0.00  0.00    +0.000 HD
ENDBRANCH  29  33
ENDBRANCH  23  25
ENDBRANCH  22  23
ENDBRANCH  19  21
ENDBRANCH   4  19
TORSDOF 8
ENDMDL
MODEL 6
REMARK VINA RESULT:      -7.9      2.497      4.715
REMARK  Name = 
REMARK  11 active torsions:
REMARK  status: ('A' for Active; 'I' for Inactive)
REMARK    1  A    between atoms: C_1  and  O_2
REMARK    2  A    between atoms: O_2  and  C_3
REMARK    3  A    between atoms: C_8  and  C_9
REMARK    4  A    between atoms: C_12  and  N_13
REMARK    5  A    between atoms: N_13  and  C_14
REMARK    6  A    between atoms: C_15  and  C_16
REMARK    7  A    between atoms: C_16  and  C_18
REMARK    8  A    between atoms: C_21  and  O_22
REMARK    9  A    between atoms: O_22  and  C_23
REMARK   10  A    between atoms: C_24  and  O_25
REMARK   11  A    between atoms: C_27  and  C_28
REMARK                            x       y       z     vdW  Elec       q    Type
REMARK                         _______ _______ _______ _____ _____    ______ ____
ROOT
ATOM      1  C   UNL     1       2.230   6.593  20.091  0.00  0.00    +0.000 A 
ATOM      2  C   UNL     1       3.571   6.315  19.834  0.00  0.00    +0.000 A 
ATOM      3  C   UNL     1       4.039   4.992  19.844  0.00  0.00    +0.000 A 
ATOM      4  C   UNL     1       3.200   3.891  20.111  0.00  0.00    +0.000 A 
ATOM      5  C   UNL     1       1.846   4.164  20.394  0.00  0.00    +0.000 A 
ATOM      6  C   UNL     1       0.809   3.136  20.758  0.00  0.00    +0.000 C 
ATOM      7  C   UNL     1       1.388   5.507  20.368  0.00  0.00    +0.000 A 
ENDROOT
BRANCH   1  13
ATOM      8  C   UNL     1      -0.283  12.286  20.148  0.00  0.00    +0.000 A 
ATOM      9  C   UNL     1      -0.448  11.860  21.463  0.00  0.00    +0.000 A 
ATOM     10  C   UNL     1       0.008  10.602  21.866  0.00  0.00    +0.000 A 
ATOM     11  C   UNL     1       0.642   9.749  20.938  0.00  0.00    +0.000 A 
ATOM     12  N   UNL     1       1.116   8.482  21.206  0.00  0.00    +0.000 NA
ATOM     13  C   UNL     1       1.666   7.957  20.129  0.00  0.00    +0.000 A 
ATOM     14  S   UNL     1       1.620   8.965  18.733  0.00  0.00    +0.000 S 
ATOM     15  C   UNL     1       0.811  10.193  19.628  0.00  0.00    +0.000 A 
ATOM     16  C   UNL     1       0.354  11.457  19.215  0.00  0.00    +0.000 A 
BRANCH   8  18
ATOM     17  C   UNL     1      -1.494  14.301  20.499  0.00  0.00    +0.000 C 
ATOM     18  O   UNL     1      -0.695  13.492  19.645  0.00  0.00    +0.000 OA
ENDBRANCH   8  18
ENDBRANCH   1  13
BRANCH   4  19
ATOM     19  N   UNL     1       3.794   2.613  20.033  0.00  0.00    +0.000 N 
ATOM     20  H   UNL     1       4.477   2.400  20.763  0.00  0.00    +0.000 HD
BRANCH  19  21
ATOM     21  C   UNL     1       3.806   1.693  19.017  0.00  0.00    +0.000 C 
ATOM     22  C   UNL     1       3.652   1.891  17.697  0.00  0.00    +0.000 C 
BRANCH  22  23
ATOM     23  C   UNL     1       3.393   3.222  17.073  0.00  0.00    +0.000 C 
ATOM     24  O   UNL     1       2.260   3.573  16.757  0.00  0.00    +0.000 OA
BRANCH  23  25
ATOM     25  C   UNL     1       4.565   4.115  16.811  0.00  0.00    +0.000 A 
ATOM     26  C   UNL     1       4.335   5.450  16.454  0.00  0.00    +0.000 A 
ATOM     27  C   UNL     1       5.408   6.343  16.312  0.00  0.00    +0.000 A 
ATOM     28  C   UNL     1       6.726   5.928  16.534  0.00  0.00    +0.000 A 
ATOM     29  C   UNL     1       6.947   4.596  16.888  0.00  0.00    +0.000 A 
ATOM     30  C   UNL     1       5.882   3.690  17.010  0.00  0.00    +0.000 A 
BRANCH  28  31
ATOM     31  O   UNL     1       7.652   6.933  16.481  0.00  0.00    +0.000 OA
ATOM     32  C   UNL     1       7.642   7.909  17.517  0.00  0.00    +0.000 C 
ENDBRANCH  28  31
BRANCH  29  33
ATOM     33  O   UNL     1       8.176   4.104  17.222  0.00  0.00    +0.000 OA
ATOM     34  H   UNL     1       8.117   3.137  17.141  0.00  0.00    +0.000 HD
ENDBRANCH  29  33
ENDBRANCH  23  25
ENDBRANCH  22  23
ENDBRANCH  19  21
ENDBRANCH   4  19
TORSDOF 8
ENDMDL
MODEL 7
REMARK VINA RESULT:      -7.9      1.978      3.994
REMARK  Name = 
REMARK  11 active torsions:
REMARK  status: ('A' for Active; 'I' for Inactive)
REMARK    1  A    between atoms: C_1  and  O_2
REMARK    2  A    between atoms: O_2  and  C_3
REMARK    3  A    between atoms: C_8  and  C_9
REMARK    4  A    between atoms: C_12  and  N_13
REMARK    5  A    between atoms: N_13  and  C_14
REMARK    6  A    between atoms: C_15  and  C_16
REMARK    7  A    between atoms: C_16  and  C_18
REMARK    8  A    between atoms: C_21  and  O_22
REMARK    9  A    between atoms: O_22  and  C_23
REMARK   10  A    between atoms: C_24  and  O_25
REMARK   11  A    between atoms: C_27  and  C_28
REMARK                            x       y       z     vdW  Elec       q    Type
REMARK                         _______ _______ _______ _____ _____    ______ ____
ROOT
ATOM      1  C   UNL     1       0.397   9.960  20.838  0.00  0.00    +0.000 A 
ATOM      2  C   UNL     1       0.575   8.881  21.701  0.00  0.00    +0.000 A 
ATOM      3  C   UNL     1       1.309   7.756  21.292  0.00  0.00    +0.000 A 
ATOM      4  C   UNL     1       1.892   7.652  20.014  0.00  0.00    +0.000 A 
ATOM      5  C   UNL     1       1.699   8.730  19.126  0.00  0.00    +0.000 A 
ATOM      6  C   UNL     1       2.191   8.786  17.705  0.00  0.00    +0.000 C 
ATOM      7  C   UNL     1       0.964   9.864  19.559  0.00  0.00    +0.000 A 
ENDROOT
BRANCH   1  13
ATOM      8  C   UNL     1      -3.046  14.936  22.291  0.00  0.00    +0.000 A 
ATOM      9  C   UNL     1      -2.259  14.760  23.426  0.00  0.00    +0.000 A 
ATOM     10  C   UNL     1      -1.322  13.725  23.489  0.00  0.00    +0.000 A 
ATOM     11  C   UNL     1      -1.167  12.845  22.397  0.00  0.00    +0.000 A 
ATOM     12  N   UNL     1      -0.296  11.776  22.345  0.00  0.00    +0.000 NA
ATOM     13  C   UNL     1      -0.385  11.164  21.180  0.00  0.00    +0.000 A 
ATOM     14  S   UNL     1      -1.542  11.840  20.098  0.00  0.00    +0.000 S 
ATOM     15  C   UNL     1      -1.954  13.039  21.264  0.00  0.00    +0.000 A 
ATOM     16  C   UNL     1      -2.899  14.078  21.193  0.00  0.00    +0.000 A 
BRANCH   8  18
ATOM     17  C   UNL     1      -5.156  15.551  21.384  0.00  0.00    +0.000 C 
ATOM     18  O   UNL     1      -3.996  15.910  22.125  0.00  0.00    +0.000 OA
ENDBRANCH   8  18
ENDBRANCH   1  13
BRANCH   4  19
ATOM     19  N   UNL     1       2.650   6.488  19.759  0.00  0.00    +0.000 N 
ATOM     20  H   UNL     1       3.280   6.541  18.956  0.00  0.00    +0.000 HD
BRANCH  19  21
ATOM     21  C   UNL     1       2.518   5.212  20.243  0.00  0.00    +0.000 C 
ATOM     22  C   UNL     1       2.759   4.045  19.623  0.00  0.00    +0.000 C 
BRANCH  22  23
ATOM     23  C   UNL     1       3.208   3.926  18.204  0.00  0.00    +0.000 C 
ATOM     24  O   UNL     1       2.581   3.257  17.387  0.00  0.00    +0.000 OA
BRANCH  23  25
ATOM     25  C   UNL     1       4.469   4.625  17.805  0.00  0.00    +0.000 A 
ATOM     26  C   UNL     1       4.412   5.616  16.817  0.00  0.00    +0.000 A 
ATOM     27  C   UNL     1       5.553   6.369  16.499  0.00  0.00    +0.000 A 
ATOM     28  C   UNL     1       6.765   6.157  17.165  0.00  0.00    +0.000 A 
ATOM     29  C   UNL     1       6.814   5.166  18.147  0.00  0.00    +0.000 A 
ATOM     30  C   UNL     1       5.685   4.393  18.455  0.00  0.00    +0.000 A 
BRANCH  28  31
ATOM     31  O   UNL     1       7.753   7.045  16.839  0.00  0.00    +0.000 OA
ATOM     32  C   UNL     1       7.884   8.222  17.628  0.00  0.00    +0.000 C 
ENDBRANCH  28  31
BRANCH  29  33
ATOM     33  O   UNL     1       7.912   4.938  18.926  0.00  0.00    +0.000 OA
ATOM     34  H   UNL     1       7.578   4.657  19.796  0.00  0.00    +0.000 HD
ENDBRANCH  29  33
ENDBRANCH  23  25
ENDBRANCH  22  23
ENDBRANCH  19  21
ENDBRANCH   4  19
TORSDOF 8
ENDMDL
MODEL 8
REMARK VINA RESULT:      -7.8      1.821      3.849
REMARK  Name = 
REMARK  11 active torsions:
REMARK  status: ('A' for Active; 'I' for Inactive)
REMARK    1  A    between atoms: C_1  and  O_2
REMARK    2  A    between atoms: O_2  and  C_3
REMARK    3  A    between atoms: C_8  and  C_9
REMARK    4  A    between atoms: C_12  and  N_13
REMARK    5  A    between atoms: N_13  and  C_14
REMARK    6  A    between atoms: C_15  and  C_16
REMARK    7  A    between atoms: C_16  and  C_18
REMARK    8  A    between atoms: C_21  and  O_22
REMARK    9  A    between atoms: O_22  and  C_23
REMARK   10  A    between atoms: C_24  and  O_25
REMARK   11  A    between atoms: C_27  and  C_28
REMARK                            x       y       z     vdW  Elec       q    Type
REMARK                         _______ _______ _______ _____ _____    ______ ____
ROOT
ATOM      1  C   UNL     1       0.125  10.440  21.041  0.00  0.00    +0.000 A 
ATOM      2  C   UNL     1       0.371   9.392  21.925  0.00  0.00    +0.000 A 
ATOM      3  C   UNL     1       1.082   8.257  21.504  0.00  0.00    +0.000 A 
ATOM      4  C   UNL     1       1.576   8.113  20.191  0.00  0.00    +0.000 A 
ATOM      5  C   UNL     1       1.313   9.160  19.284  0.00  0.00    +0.000 A 
ATOM      6  C   UNL     1       1.704   9.169  17.830  0.00  0.00    +0.000 C 
ATOM      7  C   UNL     1       0.602  10.304  19.729  0.00  0.00    +0.000 A 
ENDROOT
BRANCH   1  13
ATOM      8  C   UNL     1      -2.967  15.594  22.655  0.00  0.00    +0.000 A 
ATOM      9  C   UNL     1      -2.573  15.864  21.348  0.00  0.00    +0.000 A 
ATOM     10  C   UNL     1      -1.847  14.922  20.614  0.00  0.00    +0.000 A 
ATOM     11  C   UNL     1      -1.503  13.684  21.197  0.00  0.00    +0.000 A 
ATOM     12  N   UNL     1      -0.774  12.685  20.588  0.00  0.00    +0.000 NA
ATOM     13  C   UNL     1      -0.639  11.652  21.397  0.00  0.00    +0.000 A 
ATOM     14  S   UNL     1      -1.372  11.848  22.943  0.00  0.00    +0.000 S 
ATOM     15  C   UNL     1      -1.913  13.423  22.503  0.00  0.00    +0.000 A 
ATOM     16  C   UNL     1      -2.644  14.366  23.247  0.00  0.00    +0.000 A 
BRANCH   8  18
ATOM     17  C   UNL     1      -3.635  16.177  24.861  0.00  0.00    +0.000 C 
ATOM     18  O   UNL     1      -3.674  16.444  23.465  0.00  0.00    +0.000 OA
ENDBRANCH   8  18
ENDBRANCH   1  13
BRANCH   4  19
ATOM     19  N   UNL     1       2.321   6.944  19.923  0.00  0.00    +0.000 N 
ATOM     20  H   UNL     1       2.977   7.011  19.141  0.00  0.00    +0.000 HD
BRANCH  19  21
ATOM     21  C   UNL     1       2.155   5.657  20.363  0.00  0.00    +0.000 C 
ATOM     22  C   UNL     1       2.275   4.508  19.677  0.00  0.00    +0.000 C 
BRANCH  22  23
ATOM     23  C   UNL     1       2.597   4.430  18.222  0.00  0.00    +0.000 C 
ATOM     24  O   UNL     1       1.800   3.965  17.412  0.00  0.00    +0.000 OA
BRANCH  23  25
ATOM     25  C   UNL     1       3.942   4.910  17.773  0.00  0.00    +0.000 A 
ATOM     26  C   UNL     1       4.023   6.066  16.987  0.00  0.00    +0.000 A 
ATOM     27  C   UNL     1       5.272   6.606  16.644  0.00  0.00    +0.000 A 
ATOM     28  C   UNL     1       6.460   6.015  17.086  0.00  0.00    +0.000 A 
ATOM     29  C   UNL     1       6.370   4.861  17.868  0.00  0.00    +0.000 A 
ATOM     30  C   UNL     1       5.127   4.301  18.197  0.00  0.00    +0.000 A 
BRANCH  28  31
ATOM     31  O   UNL     1       7.592   6.719  16.780  0.00  0.00    +0.000 OA
ATOM     32  C   UNL     1       7.867   7.900  17.524  0.00  0.00    +0.000 C 
ENDBRANCH  28  31
BRANCH  29  33
ATOM     33  O   UNL     1       7.455   4.255  18.435  0.00  0.00    +0.000 OA
ATOM     34  H   UNL     1       7.790   3.621  17.778  0.00  0.00    +0.000 HD
ENDBRANCH  29  33
ENDBRANCH  23  25
ENDBRANCH  22  23
ENDBRANCH  19  21
ENDBRANCH   4  19
TORSDOF 8
ENDMDL
MODEL 9
REMARK VINA RESULT:      -7.8      2.251      4.275
REMARK  Name = 
REMARK  11 active torsions:
REMARK  status: ('A' for Active; 'I' for Inactive)
REMARK    1  A    between atoms: C_1  and  O_2
REMARK    2  A    between atoms: O_2  and  C_3
REMARK    3  A    between atoms: C_8  and  C_9
REMARK    4  A    between atoms: C_12  and  N_13
REMARK    5  A    between atoms: N_13  and  C_14
REMARK    6  A    between atoms: C_15  and  C_16
REMARK    7  A    between atoms: C_16  and  C_18
REMARK    8  A    between atoms: C_21  and  O_22
REMARK    9  A    between atoms: O_22  and  C_23
REMARK   10  A    between atoms: C_24  and  O_25
REMARK   11  A    between atoms: C_27  and  C_28
REMARK                            x       y       z     vdW  Elec       q    Type
REMARK                         _______ _______ _______ _____ _____    ______ ____
ROOT
ATOM      1  C   UNL     1      -0.285  10.841  21.836  0.00  0.00    +0.000 A 
ATOM      2  C   UNL     1       0.107   9.777  22.647  0.00  0.00    +0.000 A 
ATOM      3  C   UNL     1       0.800   8.685  22.102  0.00  0.00    +0.000 A 
ATOM      4  C   UNL     1       1.131   8.600  20.735  0.00  0.00    +0.000 A 
ATOM      5  C   UNL     1       0.720   9.661  19.903  0.00  0.00    +0.000 A 
ATOM      6  C   UNL     1       0.927   9.730  18.414  0.00  0.00    +0.000 C 
ATOM      7  C   UNL     1       0.030  10.763  20.472  0.00  0.00    +0.000 A 
ENDROOT
BRANCH   1  13
ATOM      8  C   UNL     1      -3.516  15.812  23.728  0.00  0.00    +0.000 A 
ATOM      9  C   UNL     1      -4.312  14.747  24.142  0.00  0.00    +0.000 A 
ATOM     10  C   UNL     1      -3.915  13.428  23.907  0.00  0.00    +0.000 A 
ATOM     11  C   UNL     1      -2.699  13.163  23.242  0.00  0.00    +0.000 A 
ATOM     12  N   UNL     1      -2.209  11.912  22.933  0.00  0.00    +0.000 NA
ATOM     13  C   UNL     1      -1.043  12.009  22.325  0.00  0.00    +0.000 A 
ATOM     14  S   UNL     1      -0.491  13.622  22.080  0.00  0.00    +0.000 S 
ATOM     15  C   UNL     1      -1.908  14.238  22.843  0.00  0.00    +0.000 A 
ATOM     16  C   UNL     1      -2.300  15.568  23.076  0.00  0.00    +0.000 A 
BRANCH   8  18
ATOM     17  C   UNL     1      -3.764  17.635  25.233  0.00  0.00    +0.000 C 
ATOM     18  O   UNL     1      -3.810  17.139  23.901  0.00  0.00    +0.000 OA
ENDBRANCH   8  18
ENDBRANCH   1  13
BRANCH   4  19
ATOM     19  N   UNL     1       1.880   7.470  20.336  0.00  0.00    +0.000 N 
ATOM     20  H   UNL     1       2.459   7.598  19.504  0.00  0.00    +0.000 HD
BRANCH  19  21
ATOM     21  C   UNL     1       1.788   6.157  20.718  0.00  0.00    +0.000 C 
ATOM     22  C   UNL     1       2.080   5.051  20.014  0.00  0.00    +0.000 C 
BRANCH  22  23
ATOM     23  C   UNL     1       2.553   5.058  18.598  0.00  0.00    +0.000 C 
ATOM     24  O   UNL     1       1.807   4.756  17.671  0.00  0.00    +0.000 OA
BRANCH  23  25
ATOM     25  C   UNL     1       3.982   5.419  18.337  0.00  0.00    +0.000 A 
ATOM     26  C   UNL     1       4.289   6.213  17.225  0.00  0.00    +0.000 A 
ATOM     27  C   UNL     1       5.602   6.663  17.013  0.00  0.00    +0.000 A 
ATOM     28  C   UNL     1       6.627   6.341  17.909  0.00  0.00    +0.000 A 
ATOM     29  C   UNL     1       6.313   5.547  19.014  0.00  0.00    +0.000 A 
ATOM     30  C   UNL     1       5.009   5.074  19.221  0.00  0.00    +0.000 A 
BRANCH  28  31
ATOM     31  O   UNL     1       7.823   6.950  17.643  0.00  0.00    +0.000 OA
ATOM     32  C   UNL     1       7.870   8.372  17.663  0.00  0.00    +0.000 C 
ENDBRANCH  28  31
BRANCH  29  33
ATOM     33  O   UNL     1       7.208   5.252  20.002  0.00  0.00    +0.000 OA
ATOM     34  H   UNL     1       7.684   4.455  19.713  0.00  0.00    +0.000 HD
ENDBRANCH  29  33
ENDBRANCH  23  25
ENDBRANCH  22  23
ENDBRANCH  19  21
ENDBRANCH   4  19
TORSDOF 8
ENDMDL
