MODEL 1
REMARK VINA RESULT:      -7.6      0.000      0.000
REMARK  Name = 
REMARK  16 active torsions:
REMARK  status: ('A' for Active; 'I' for Inactive)
REMARK    1  A    between atoms: C_1  and  C_2
REMARK    2  A    between atoms: C_4  and  C_5
REMARK    3  A    between atoms: C_8  and  C_9
REMARK    4  A    between atoms: C_12  and  C_13
REMARK    5  A    between atoms: C_13  and  C_14
REMARK    6  A    between atoms: C_14  and  C_15
REMARK    7  A    between atoms: C_14  and  C_16
REMARK    8  A    between atoms: C_20  and  C_21
REMARK    9  A    between atoms: C_22  and  O_23
REMARK   10  A    between atoms: O_23  and  C_24
REMARK   11  A    between atoms: C_24  and  C_25
REMARK   12  A    between atoms: C_25  and  O_26
REMARK   13  A    between atoms: C_25  and  C_27
REMARK   14  A    between atoms: C_27  and  N_28
REMARK   15  A    between atoms: C_29  and  C_31
REMARK   16  A    between atoms: C_31  and  O_32
REMARK                            x       y       z     vdW  Elec       q    Type
REMARK                         _______ _______ _______ _____ _____    ______ ____
ROOT
ATOM      1  C   UNL     1       4.776   6.978  16.055  0.00  0.00    +0.000 C 
ATOM      2  C   UNL     1       3.992   6.856  17.338  0.00  0.00    +0.000 A 
ATOM      3  C   UNL     1       3.127   7.935  17.628  0.00  0.00    +0.000 A 
ATOM      4  C   UNL     1       2.295   7.947  18.752  0.00  0.00    +0.000 A 
ATOM      5  C   UNL     1       2.320   6.842  19.605  0.00  0.00    +0.000 A 
ATOM      6  C   UNL     1       3.166   5.748  19.345  0.00  0.00    +0.000 A 
ATOM      7  C   UNL     1       3.132   4.572  20.289  0.00  0.00    +0.000 C 
ATOM      8  C   UNL     1       4.029   5.759  18.221  0.00  0.00    +0.000 A 
ENDROOT
BRANCH   4   9
ATOM      9  C   UNL     1       1.418   9.083  19.016  0.00  0.00    +0.000 A 
ATOM     10  N   UNL     1       1.113  10.020  18.104  0.00  0.00    +0.000 NA
ATOM     11  O   UNL     1       0.284  10.891  18.795  0.00  0.00    +0.000 OA
ATOM     12  C   UNL     1       0.155  10.413  20.070  0.00  0.00    +0.000 A 
ATOM     13  N   UNL     1       0.835   9.293  20.247  0.00  0.00    +0.000 NA
BRANCH  12  14
ATOM     14  C   UNL     1      -0.610  11.042  21.102  0.00  0.00    +0.000 A 
ATOM     15  C   UNL     1      -0.754  10.614  22.407  0.00  0.00    +0.000 A 
ATOM     16  C   UNL     1      -1.569  11.486  23.184  0.00  0.00    +0.000 A 
ATOM     17  C   UNL     1      -2.005  12.577  22.459  0.00  0.00    +0.000 A 
ATOM     18  S   UNL     1      -1.475  12.496  20.831  0.00  0.00    +0.000 S 
BRANCH  17  19
ATOM     19  C   UNL     1      -2.836  13.741  22.926  0.00  0.00    +0.000 C 
BRANCH  19  20
ATOM     20  C   UNL     1      -4.145  13.905  22.128  0.00  0.00    +0.000 C 
ATOM     21  C   UNL     1      -4.950  12.605  22.045  0.00  0.00    +0.000 C 
ATOM     22  C   UNL     1      -5.010  14.997  22.762  0.00  0.00    +0.000 C 
ENDBRANCH  19  20
ENDBRANCH  17  19
ENDBRANCH  12  14
ENDBRANCH   4   9
BRANCH   8  23
ATOM     23  O   UNL     1       4.785   4.620  18.099  0.00  0.00    +0.000 OA
BRANCH  23  24
ATOM     24  C   UNL     1       6.099   4.607  18.655  0.00  0.00    +0.000 C 
BRANCH  24  25
ATOM     25  C   UNL     1       7.146   4.678  17.532  0.00  0.00    +0.000 C 
BRANCH  25  26
ATOM     26  O   UNL     1       8.346   3.999  17.931  0.00  0.00    +0.000 OA
ATOM     27  H   UNL     1       8.147   3.560  18.780  0.00  0.00    +0.000 HD
ENDBRANCH  25  26
BRANCH  25  28
ATOM     28  C   UNL     1       6.645   4.066  16.218  0.00  0.00    +0.000 C 
BRANCH  28  29
ATOM     29  N   UNL     1       7.311   4.677  15.074  0.00  0.00    +0.000 N 
ATOM     30  C   UNL     1       6.813   4.555  13.800  0.00  0.00    +0.000 C 
ATOM     31  O   UNL     1       5.747   4.001  13.531  0.00  0.00    +0.000 OA
ATOM     32  H   UNL     1       8.250   5.029  15.226  0.00  0.00    +0.000 HD
BRANCH  30  33
ATOM     33  C   UNL     1       7.680   5.173  12.701  0.00  0.00    +0.000 C 
BRANCH  33  34
ATOM     34  O   UNL     1       8.751   5.930  13.241  0.00  0.00    +0.000 OA
ATOM     35  H   UNL     1       9.540   5.356  13.176  0.00  0.00    +0.000 HD
ENDBRANCH  33  34
ENDBRANCH  30  33
ENDBRANCH  28  29
ENDBRANCH  25  28
ENDBRANCH  24  25
ENDBRANCH  23  24
ENDBRANCH   8  23
TORSDOF 12
ENDMDL
MODEL 2
REMARK VINA RESULT:      -7.4      1.612      2.753
REMARK  Name = 
REMARK  16 active torsions:
REMARK  status: ('A' for Active; 'I' for Inactive)
REMARK    1  A    between atoms: C_1  and  C_2
REMARK    2  A    between atoms: C_4  and  C_5
REMARK    3  A    between atoms: C_8  and  C_9
REMARK    4  A    between atoms: C_12  and  C_13
REMARK    5  A    between atoms: C_13  and  C_14
REMARK    6  A    between atoms: C_14  and  C_15
REMARK    7  A    between atoms: C_14  and  C_16
REMARK    8  A    between atoms: C_20  and  C_21
REMARK    9  A    between atoms: C_22  and  O_23
REMARK   10  A    between atoms: O_23  and  C_24
REMARK   11  A    between atoms: C_24  and  C_25
REMARK   12  A    between atoms: C_25  and  O_26
REMARK   13  A    between atoms: C_25  and  C_27
REMARK   14  A    between atoms: C_27  and  N_28
REMARK   15  A    between atoms: C_29  and  C_31
REMARK   16  A    between atoms: C_31  and  O_32
REMARK                            x       y       z     vdW  Elec       q    Type
REMARK                         _______ _______ _______ _____ _____    ______ ____
ROOT
ATOM      1  C   UNL     1       2.203   4.224  20.833  0.00  0.00    +0.000 C 
ATOM      2  C   UNL     1       2.213   5.567  20.147  0.00  0.00    +0.000 A 
ATOM      3  C   UNL     1       1.629   6.628  20.877  0.00  0.00    +0.000 A 
ATOM      4  C   UNL     1       1.609   7.943  20.401  0.00  0.00    +0.000 A 
ATOM      5  C   UNL     1       2.198   8.207  19.164  0.00  0.00    +0.000 A 
ATOM      6  C   UNL     1       2.792   7.177  18.411  0.00  0.00    +0.000 A 
ATOM      7  C   UNL     1       3.434   7.527  17.093  0.00  0.00    +0.000 C 
ATOM      8  C   UNL     1       2.780   5.842  18.888  0.00  0.00    +0.000 A 
ENDROOT
BRANCH   4   9
ATOM      9  C   UNL     1       0.993   9.009  21.186  0.00  0.00    +0.000 A 
ATOM     10  N   UNL     1       1.296   9.262  22.469  0.00  0.00    +0.000 NA
ATOM     11  O   UNL     1       0.469  10.326  22.796  0.00  0.00    +0.000 OA
ATOM     12  C   UNL     1      -0.271  10.629  21.686  0.00  0.00    +0.000 A 
ATOM     13  N   UNL     1       0.027   9.843  20.666  0.00  0.00    +0.000 NA
BRANCH  12  14
ATOM     14  C   UNL     1      -1.258  11.662  21.622  0.00  0.00    +0.000 A 
ATOM     15  C   UNL     1      -1.546  12.470  20.540  0.00  0.00    +0.000 A 
ATOM     16  C   UNL     1      -2.606  13.384  20.804  0.00  0.00    +0.000 A 
ATOM     17  C   UNL     1      -3.122  13.231  22.075  0.00  0.00    +0.000 A 
ATOM     18  S   UNL     1      -2.274  12.028  22.953  0.00  0.00    +0.000 S 
BRANCH  17  19
ATOM     19  C   UNL     1      -4.271  13.964  22.714  0.00  0.00    +0.000 C 
BRANCH  19  20
ATOM     20  C   UNL     1      -5.502  13.067  22.950  0.00  0.00    +0.000 C 
ATOM     21  C   UNL     1      -6.609  13.781  23.730  0.00  0.00    +0.000 C 
ATOM     22  C   UNL     1      -6.060  12.581  21.609  0.00  0.00    +0.000 C 
ENDBRANCH  19  20
ENDBRANCH  17  19
ENDBRANCH  12  14
ENDBRANCH   4   9
BRANCH   8  23
ATOM     23  O   UNL     1       3.404   4.955  18.047  0.00  0.00    +0.000 OA
BRANCH  23  24
ATOM     24  C   UNL     1       4.552   4.252  18.521  0.00  0.00    +0.000 C 
BRANCH  24  25
ATOM     25  C   UNL     1       5.789   5.161  18.454  0.00  0.00    +0.000 C 
BRANCH  25  26
ATOM     26  O   UNL     1       6.185   5.556  19.777  0.00  0.00    +0.000 OA
ATOM     27  H   UNL     1       6.677   4.803  20.155  0.00  0.00    +0.000 HD
ENDBRANCH  25  26
BRANCH  25  28
ATOM     28  C   UNL     1       6.981   4.487  17.762  0.00  0.00    +0.000 C 
BRANCH  28  29
ATOM     29  N   UNL     1       6.610   4.010  16.436  0.00  0.00    +0.000 N 
ATOM     30  C   UNL     1       6.964   4.694  15.299  0.00  0.00    +0.000 C 
ATOM     31  O   UNL     1       7.673   5.700  15.296  0.00  0.00    +0.000 OA
ATOM     32  H   UNL     1       5.924   3.265  16.393  0.00  0.00    +0.000 HD
BRANCH  30  33
ATOM     33  C   UNL     1       6.417   4.112  13.994  0.00  0.00    +0.000 C 
BRANCH  33  34
ATOM     34  O   UNL     1       5.006   4.241  13.912  0.00  0.00    +0.000 OA
ATOM     35  H   UNL     1       4.840   5.160  13.624  0.00  0.00    +0.000 HD
ENDBRANCH  33  34
ENDBRANCH  30  33
ENDBRANCH  28  29
ENDBRANCH  25  28
ENDBRANCH  24  25
ENDBRANCH  23  24
ENDBRANCH   8  23
TORSDOF 12
ENDMDL
MODEL 3
REMARK VINA RESULT:      -7.3      1.232      2.323
REMARK  Name = 
REMARK  16 active torsions:
REMARK  status: ('A' for Active; 'I' for Inactive)
REMARK    1  A    between atoms: C_1  and  C_2
REMARK    2  A    between atoms: C_4  and  C_5
REMARK    3  A    between atoms: C_8  and  C_9
REMARK    4  A    between atoms: C_12  and  C_13
REMARK    5  A    between atoms: C_13  and  C_14
REMARK    6  A    between atoms: C_14  and  C_15
REMARK    7  A    between atoms: C_14  and  C_16
REMARK    8  A    between atoms: C_20  and  C_21
REMARK    9  A    between atoms: C_22  and  O_23
REMARK   10  A    between atoms: O_23  and  C_24
REMARK   11  A    between atoms: C_24  and  C_25
REMARK   12  A    between atoms: C_25  and  O_26
REMARK   13  A    between atoms: C_25  and  C_27
REMARK   14  A    between atoms: C_27  and  N_28
REMARK   15  A    between atoms: C_29  and  C_31
REMARK   16  A    between atoms: C_31  and  O_32
REMARK                            x       y       z     vdW  Elec       q    Type
REMARK                         _______ _______ _______ _____ _____    ______ ____
ROOT
ATOM      1  C   UNL     1       2.509   5.010  20.710  0.00  0.00    +0.000 C 
ATOM      2  C   UNL     1       2.652   6.092  19.670  0.00  0.00    +0.000 A 
ATOM      3  C   UNL     1       1.885   7.258  19.893  0.00  0.00    +0.000 A 
ATOM      4  C   UNL     1       1.950   8.370  19.048  0.00  0.00    +0.000 A 
ATOM      5  C   UNL     1       2.815   8.320  17.954  0.00  0.00    +0.000 A 
ATOM      6  C   UNL     1       3.596   7.177  17.702  0.00  0.00    +0.000 A 
ATOM      7  C   UNL     1       4.529   7.189  16.517  0.00  0.00    +0.000 C 
ATOM      8  C   UNL     1       3.500   6.043  18.546  0.00  0.00    +0.000 A 
ENDROOT
BRANCH   4   9
ATOM      9  C   UNL     1       1.139   9.555  19.315  0.00  0.00    +0.000 A 
ATOM     10  N   UNL     1       1.159  10.660  18.554  0.00  0.00    +0.000 NA
ATOM     11  O   UNL     1       0.262  11.508  19.187  0.00  0.00    +0.000 OA
ATOM     12  C   UNL     1      -0.225  10.849  20.282  0.00  0.00    +0.000 A 
ATOM     13  N   UNL     1       0.286   9.636  20.394  0.00  0.00    +0.000 NA
BRANCH  12  14
ATOM     14  C   UNL     1      -1.167  11.397  21.209  0.00  0.00    +0.000 A 
ATOM     15  C   UNL     1      -1.196  11.201  22.576  0.00  0.00    +0.000 A 
ATOM     16  C   UNL     1      -2.255  11.912  23.209  0.00  0.00    +0.000 A 
ATOM     17  C   UNL     1      -2.993  12.658  22.312  0.00  0.00    +0.000 A 
ATOM     18  S   UNL     1      -2.433  12.436  20.707  0.00  0.00    +0.000 S 
BRANCH  17  19
ATOM     19  C   UNL     1      -4.153  13.577  22.587  0.00  0.00    +0.000 C 
BRANCH  19  20
ATOM     20  C   UNL     1      -3.719  15.033  22.849  0.00  0.00    +0.000 C 
ATOM     21  C   UNL     1      -4.782  16.049  22.421  0.00  0.00    +0.000 C 
ATOM     22  C   UNL     1      -3.403  15.226  24.335  0.00  0.00    +0.000 C 
ENDBRANCH  19  20
ENDBRANCH  17  19
ENDBRANCH  12  14
ENDBRANCH   4   9
BRANCH   8  23
ATOM     23  O   UNL     1       4.328   5.012  18.175  0.00  0.00    +0.000 OA
BRANCH  23  24
ATOM     24  C   UNL     1       5.322   4.566  19.098  0.00  0.00    +0.000 C 
BRANCH  24  25
ATOM     25  C   UNL     1       6.463   5.592  19.179  0.00  0.00    +0.000 C 
BRANCH  25  26
ATOM     26  O   UNL     1       7.336   5.275  20.275  0.00  0.00    +0.000 OA
ATOM     27  H   UNL     1       7.396   4.302  20.307  0.00  0.00    +0.000 HD
ENDBRANCH  25  26
BRANCH  25  28
ATOM     28  C   UNL     1       7.291   5.659  17.890  0.00  0.00    +0.000 C 
BRANCH  28  29
ATOM     29  N   UNL     1       6.806   4.695  16.911  0.00  0.00    +0.000 N 
ATOM     30  C   UNL     1       6.994   4.880  15.563  0.00  0.00    +0.000 C 
ATOM     31  O   UNL     1       7.640   5.811  15.082  0.00  0.00    +0.000 OA
ATOM     32  H   UNL     1       6.162   3.986  17.245  0.00  0.00    +0.000 HD
BRANCH  30  33
ATOM     33  C   UNL     1       6.342   3.827  14.665  0.00  0.00    +0.000 C 
BRANCH  33  34
ATOM     34  O   UNL     1       5.821   2.744  15.419  0.00  0.00    +0.000 OA
ATOM     35  H   UNL     1       5.375   2.162  14.772  0.00  0.00    +0.000 HD
ENDBRANCH  33  34
ENDBRANCH  30  33
ENDBRANCH  28  29
ENDBRANCH  25  28
ENDBRANCH  24  25
ENDBRANCH  23  24
ENDBRANCH   8  23
TORSDOF 12
ENDMDL
MODEL 4
REMARK VINA RESULT:      -7.1      2.177      3.219
REMARK  Name = 
REMARK  16 active torsions:
REMARK  status: ('A' for Active; 'I' for Inactive)
REMARK    1  A    between atoms: C_1  and  C_2
REMARK    2  A    between atoms: C_4  and  C_5
REMARK    3  A    between atoms: C_8  and  C_9
REMARK    4  A    between atoms: C_12  and  C_13
REMARK    5  A    between atoms: C_13  and  C_14
REMARK    6  A    between atoms: C_14  and  C_15
REMARK    7  A    between atoms: C_14  and  C_16
REMARK    8  A    between atoms: C_20  and  C_21
REMARK    9  A    between atoms: C_22  and  O_23
REMARK   10  A    between atoms: O_23  and  C_24
REMARK   11  A    between atoms: C_24  and  C_25
REMARK   12  A    between atoms: C_25  and  O_26
REMARK   13  A    between atoms: C_25  and  C_27
REMARK   14  A    between atoms: C_27  and  N_28
REMARK   15  A    between atoms: C_29  and  C_31
REMARK   16  A    between atoms: C_31  and  O_32
REMARK                            x       y       z     vdW  Elec       q    Type
REMARK                         _______ _______ _______ _____ _____    ______ ____
ROOT
ATOM      1  C   UNL     1       1.415   3.803  20.098  0.00  0.00    +0.000 C 
ATOM      2  C   UNL     1       1.765   5.182  19.598  0.00  0.00    +0.000 A 
ATOM      3  C   UNL     1       1.330   6.254  20.412  0.00  0.00    +0.000 A 
ATOM      4  C   UNL     1       1.623   7.588  20.113  0.00  0.00    +0.000 A 
ATOM      5  C   UNL     1       2.381   7.859  18.973  0.00  0.00    +0.000 A 
ATOM      6  C   UNL     1       2.834   6.818  18.141  0.00  0.00    +0.000 A 
ATOM      7  C   UNL     1       3.669   7.170  16.936  0.00  0.00    +0.000 C 
ATOM      8  C   UNL     1       2.506   5.471  18.436  0.00  0.00    +0.000 A 
ENDROOT
BRANCH   4   9
ATOM      9  C   UNL     1       1.153   8.664  20.979  0.00  0.00    +0.000 A 
ATOM     10  N   UNL     1       1.573   8.846  22.241  0.00  0.00    +0.000 NA
ATOM     11  O   UNL     1       0.856   9.954  22.668  0.00  0.00    +0.000 OA
ATOM     12  C   UNL     1       0.057  10.352  21.632  0.00  0.00    +0.000 A 
ATOM     13  N   UNL     1       0.215   9.586  20.566  0.00  0.00    +0.000 NA
BRANCH  12  14
ATOM     14  C   UNL     1      -0.852  11.455  21.681  0.00  0.00    +0.000 A 
ATOM     15  C   UNL     1      -1.237  12.262  20.628  0.00  0.00    +0.000 A 
ATOM     16  C   UNL     1      -2.177  13.258  21.017  0.00  0.00    +0.000 A 
ATOM     17  C   UNL     1      -2.510  13.170  22.353  0.00  0.00    +0.000 A 
ATOM     18  S   UNL     1      -1.630  11.923  23.134  0.00  0.00    +0.000 S 
BRANCH  17  19
ATOM     19  C   UNL     1      -3.496  14.000  23.130  0.00  0.00    +0.000 C 
BRANCH  19  20
ATOM     20  C   UNL     1      -2.818  15.016  24.072  0.00  0.00    +0.000 C 
ATOM     21  C   UNL     1      -1.883  15.973  23.328  0.00  0.00    +0.000 C 
ATOM     22  C   UNL     1      -3.881  15.825  24.819  0.00  0.00    +0.000 C 
ENDBRANCH  19  20
ENDBRANCH  17  19
ENDBRANCH  12  14
ENDBRANCH   4   9
BRANCH   8  23
ATOM     23  O   UNL     1       3.026   4.572  17.538  0.00  0.00    +0.000 OA
BRANCH  23  24
ATOM     24  C   UNL     1       3.805   3.482  18.032  0.00  0.00    +0.000 C 
BRANCH  24  25
ATOM     25  C   UNL     1       4.991   4.014  18.851  0.00  0.00    +0.000 C 
BRANCH  25  26
ATOM     26  O   UNL     1       5.374   3.053  19.848  0.00  0.00    +0.000 OA
ATOM     27  H   UNL     1       4.699   2.349  19.826  0.00  0.00    +0.000 HD
ENDBRANCH  25  26
BRANCH  25  28
ATOM     28  C   UNL     1       6.213   4.338  17.982  0.00  0.00    +0.000 C 
BRANCH  28  29
ATOM     29  N   UNL     1       6.677   5.697  18.225  0.00  0.00    +0.000 N 
ATOM     30  C   UNL     1       7.270   6.445  17.237  0.00  0.00    +0.000 C 
ATOM     31  O   UNL     1       7.387   6.070  16.071  0.00  0.00    +0.000 OA
ATOM     32  H   UNL     1       6.720   6.000  19.192  0.00  0.00    +0.000 HD
BRANCH  30  33
ATOM     33  C   UNL     1       7.786   7.815  17.680  0.00  0.00    +0.000 C 
BRANCH  33  34
ATOM     34  O   UNL     1       8.583   7.724  18.850  0.00  0.00    +0.000 OA
ATOM     35  H   UNL     1       9.158   6.944  18.719  0.00  0.00    +0.000 HD
ENDBRANCH  33  34
ENDBRANCH  30  33
ENDBRANCH  28  29
ENDBRANCH  25  28
ENDBRANCH  24  25
ENDBRANCH  23  24
ENDBRANCH   8  23
TORSDOF 12
ENDMDL
MODEL 5
REMARK VINA RESULT:      -7.1      1.419      2.581
REMARK  Name = 
REMARK  16 active torsions:
REMARK  status: ('A' for Active; 'I' for Inactive)
REMARK    1  A    between atoms: C_1  and  C_2
REMARK    2  A    between atoms: C_4  and  C_5
REMARK    3  A    between atoms: C_8  and  C_9
REMARK    4  A    between atoms: C_12  and  C_13
REMARK    5  A    between atoms: C_13  and  C_14
REMARK    6  A    between atoms: C_14  and  C_15
REMARK    7  A    between atoms: C_14  and  C_16
REMARK    8  A    between atoms: C_20  and  C_21
REMARK    9  A    between atoms: C_22  and  O_23
REMARK   10  A    between atoms: O_23  and  C_24
REMARK   11  A    between atoms: C_24  and  C_25
REMARK   12  A    between atoms: C_25  and  O_26
REMARK   13  A    between atoms: C_25  and  C_27
REMARK   14  A    between atoms: C_27  and  N_28
REMARK   15  A    between atoms: C_29  and  C_31
REMARK   16  A    between atoms: C_31  and  O_32
REMARK                            x       y       z     vdW  Elec       q    Type
REMARK                         _______ _______ _______ _____ _____    ______ ____
ROOT
ATOM      1  C   UNL     1       4.850   7.037  15.873  0.00  0.00    +0.000 C 
ATOM      2  C   UNL     1       4.039   6.861  17.132  0.00  0.00    +0.000 A 
ATOM      3  C   UNL     1       3.226   7.960  17.492  0.00  0.00    +0.000 A 
ATOM      4  C   UNL     1       2.376   7.932  18.601  0.00  0.00    +0.000 A 
ATOM      5  C   UNL     1       2.328   6.766  19.368  0.00  0.00    +0.000 A 
ATOM      6  C   UNL     1       3.120   5.651  19.038  0.00  0.00    +0.000 A 
ATOM      7  C   UNL     1       3.009   4.411  19.889  0.00  0.00    +0.000 C 
ATOM      8  C   UNL     1       4.002   5.701  17.929  0.00  0.00    +0.000 A 
ENDROOT
BRANCH   4   9
ATOM      9  C   UNL     1       1.555   9.090  18.939  0.00  0.00    +0.000 A 
ATOM     10  N   UNL     1       1.382  10.146  18.128  0.00  0.00    +0.000 NA
ATOM     11  O   UNL     1       0.559  10.989  18.860  0.00  0.00    +0.000 OA
ATOM     12  C   UNL     1       0.302  10.377  20.056  0.00  0.00    +0.000 A 
ATOM     13  N   UNL     1       0.893   9.199  20.143  0.00  0.00    +0.000 NA
BRANCH  12  14
ATOM     14  C   UNL     1      -0.499  10.937  21.101  0.00  0.00    +0.000 A 
ATOM     15  C   UNL     1      -0.562  10.516  22.415  0.00  0.00    +0.000 A 
ATOM     16  C   UNL     1      -1.445  11.308  23.202  0.00  0.00    +0.000 A 
ATOM     17  C   UNL     1      -2.015  12.335  22.476  0.00  0.00    +0.000 A 
ATOM     18  S   UNL     1      -1.522  12.285  20.835  0.00  0.00    +0.000 S 
BRANCH  17  19
ATOM     19  C   UNL     1      -2.954  13.410  22.951  0.00  0.00    +0.000 C 
BRANCH  19  20
ATOM     20  C   UNL     1      -4.343  12.867  23.341  0.00  0.00    +0.000 C 
ATOM     21  C   UNL     1      -4.358  12.235  24.736  0.00  0.00    +0.000 C 
ATOM     22  C   UNL     1      -5.379  13.993  23.285  0.00  0.00    +0.000 C 
ENDBRANCH  19  20
ENDBRANCH  17  19
ENDBRANCH  12  14
ENDBRANCH   4   9
BRANCH   8  23
ATOM     23  O   UNL     1       4.700   4.535  17.732  0.00  0.00    +0.000 OA
BRANCH  23  24
ATOM     24  C   UNL     1       4.622   3.898  16.457  0.00  0.00    +0.000 C 
BRANCH  24  25
ATOM     25  C   UNL     1       6.033   3.567  15.947  0.00  0.00    +0.000 C 
BRANCH  25  26
ATOM     26  O   UNL     1       6.003   3.318  14.533  0.00  0.00    +0.000 OA
ATOM     27  H   UNL     1       5.702   2.397  14.422  0.00  0.00    +0.000 HD
ENDBRANCH  25  26
BRANCH  25  28
ATOM     28  C   UNL     1       7.042   4.688  16.230  0.00  0.00    +0.000 C 
BRANCH  28  29
ATOM     29  N   UNL     1       7.680   4.497  17.526  0.00  0.00    +0.000 N 
ATOM     30  C   UNL     1       7.872   5.542  18.397  0.00  0.00    +0.000 C 
ATOM     31  O   UNL     1       7.462   6.685  18.197  0.00  0.00    +0.000 OA
ATOM     32  H   UNL     1       8.146   3.609  17.681  0.00  0.00    +0.000 HD
BRANCH  30  33
ATOM     33  C   UNL     1       8.640   5.192  19.673  0.00  0.00    +0.000 C 
BRANCH  33  34
ATOM     34  O   UNL     1       7.894   5.508  20.838  0.00  0.00    +0.000 OA
ATOM     35  H   UNL     1       7.008   5.119  20.698  0.00  0.00    +0.000 HD
ENDBRANCH  33  34
ENDBRANCH  30  33
ENDBRANCH  28  29
ENDBRANCH  25  28
ENDBRANCH  24  25
ENDBRANCH  23  24
ENDBRANCH   8  23
TORSDOF 12
ENDMDL
MODEL 6
REMARK VINA RESULT:      -7.1      1.819      3.049
REMARK  Name = 
REMARK  16 active torsions:
REMARK  status: ('A' for Active; 'I' for Inactive)
REMARK    1  A    between atoms: C_1  and  C_2
REMARK    2  A    between atoms: C_4  and  C_5
REMARK    3  A    between atoms: C_8  and  C_9
REMARK    4  A    between atoms: C_12  and  C_13
REMARK    5  A    between atoms: C_13  and  C_14
REMARK    6  A    between atoms: C_14  and  C_15
REMARK    7  A    between atoms: C_14  and  C_16
REMARK    8  A    between atoms: C_20  and  C_21
REMARK    9  A    between atoms: C_22  and  O_23
REMARK   10  A    between atoms: O_23  and  C_24
REMARK   11  A    between atoms: C_24  and  C_25
REMARK   12  A    between atoms: C_25  and  O_26
REMARK   13  A    between atoms: C_25  and  C_27
REMARK   14  A    between atoms: C_27  and  N_28
REMARK   15  A    between atoms: C_29  and  C_31
REMARK   16  A    between atoms: C_31  and  O_32
REMARK                            x       y       z     vdW  Elec       q    Type
REMARK                         _______ _______ _______ _____ _____    ______ ____
ROOT
ATOM      1  C   UNL     1       1.973   4.544  21.066  0.00  0.00    +0.000 C 
ATOM      2  C   UNL     1       1.920   5.919  20.451  0.00  0.00    +0.000 A 
ATOM      3  C   UNL     1       1.298   6.916  21.238  0.00  0.00    +0.000 A 
ATOM      4  C   UNL     1       1.219   8.251  20.831  0.00  0.00    +0.000 A 
ATOM      5  C   UNL     1       1.786   8.603  19.605  0.00  0.00    +0.000 A 
ATOM      6  C   UNL     1       2.416   7.639  18.797  0.00  0.00    +0.000 A 
ATOM      7  C   UNL     1       3.032   8.083  17.494  0.00  0.00    +0.000 C 
ATOM      8  C   UNL     1       2.465   6.282  19.204  0.00  0.00    +0.000 A 
ENDROOT
BRANCH   4   9
ATOM      9  C   UNL     1       0.565   9.248  21.673  0.00  0.00    +0.000 A 
ATOM     10  N   UNL     1       0.859   9.439  22.969  0.00  0.00    +0.000 NA
ATOM     11  O   UNL     1      -0.006  10.453  23.354  0.00  0.00    +0.000 OA
ATOM     12  C   UNL     1      -0.756  10.791  22.261  0.00  0.00    +0.000 A 
ATOM     13  N   UNL     1      -0.430  10.075  21.199  0.00  0.00    +0.000 NA
BRANCH  12  14
ATOM     14  C   UNL     1      -1.780  11.790  22.254  0.00  0.00    +0.000 A 
ATOM     15  C   UNL     1      -2.572  12.174  23.318  0.00  0.00    +0.000 A 
ATOM     16  C   UNL     1      -3.480  13.217  22.977  0.00  0.00    +0.000 A 
ATOM     17  C   UNL     1      -3.339  13.625  21.665  0.00  0.00    +0.000 A 
ATOM     18  S   UNL     1      -2.153  12.694  20.848  0.00  0.00    +0.000 S 
BRANCH  17  19
ATOM     19  C   UNL     1      -4.069  14.723  20.941  0.00  0.00    +0.000 C 
BRANCH  19  20
ATOM     20  C   UNL     1      -5.564  14.414  20.728  0.00  0.00    +0.000 C 
ATOM     21  C   UNL     1      -6.322  15.584  20.093  0.00  0.00    +0.000 C 
ATOM     22  C   UNL     1      -5.721  13.171  19.848  0.00  0.00    +0.000 C 
ENDBRANCH  19  20
ENDBRANCH  17  19
ENDBRANCH  12  14
ENDBRANCH   4   9
BRANCH   8  23
ATOM     23  O   UNL     1       3.118   5.466  18.314  0.00  0.00    +0.000 OA
BRANCH  23  24
ATOM     24  C   UNL     1       3.517   4.165  18.744  0.00  0.00    +0.000 C 
BRANCH  24  25
ATOM     25  C   UNL     1       4.995   4.180  19.163  0.00  0.00    +0.000 C 
BRANCH  25  26
ATOM     26  O   UNL     1       5.459   2.841  19.392  0.00  0.00    +0.000 OA
ATOM     27  H   UNL     1       6.247   2.915  19.962  0.00  0.00    +0.000 HD
ENDBRANCH  25  26
BRANCH  25  28
ATOM     28  C   UNL     1       5.900   4.845  18.118  0.00  0.00    +0.000 C 
BRANCH  28  29
ATOM     29  N   UNL     1       5.436   4.552  16.768  0.00  0.00    +0.000 N 
ATOM     30  C   UNL     1       6.301   4.510  15.701  0.00  0.00    +0.000 C 
ATOM     31  O   UNL     1       7.521   4.636  15.803  0.00  0.00    +0.000 OA
ATOM     32  H   UNL     1       4.434   4.568  16.615  0.00  0.00    +0.000 HD
BRANCH  30  33
ATOM     33  C   UNL     1       5.642   4.283  14.340  0.00  0.00    +0.000 C 
BRANCH  33  34
ATOM     34  O   UNL     1       6.605   4.057  13.322  0.00  0.00    +0.000 OA
ATOM     35  H   UNL     1       6.743   4.924  12.891  0.00  0.00    +0.000 HD
ENDBRANCH  33  34
ENDBRANCH  30  33
ENDBRANCH  28  29
ENDBRANCH  25  28
ENDBRANCH  24  25
ENDBRANCH  23  24
ENDBRANCH   8  23
TORSDOF 12
ENDMDL
MODEL 7
REMARK VINA RESULT:      -7.0      2.681      4.341
REMARK  Name = 
REMARK  16 active torsions:
REMARK  status: ('A' for Active; 'I' for Inactive)
REMARK    1  A    between atoms: C_1  and  C_2
REMARK    2  A    between atoms: C_4  and  C_5
REMARK    3  A    between atoms: C_8  and  C_9
REMARK    4  A    between atoms: C_12  and  C_13
REMARK    5  A    between atoms: C_13  and  C_14
REMARK    6  A    between atoms: C_14  and  C_15
REMARK    7  A    between atoms: C_14  and  C_16
REMARK    8  A    between atoms: C_20  and  C_21
REMARK    9  A    between atoms: C_22  and  O_23
REMARK   10  A    between atoms: O_23  and  C_24
REMARK   11  A    between atoms: C_24  and  C_25
REMARK   12  A    between atoms: C_25  and  O_26
REMARK   13  A    between atoms: C_25  and  C_27
REMARK   14  A    between atoms: C_27  and  N_28
REMARK   15  A    between atoms: C_29  and  C_31
REMARK   16  A    between atoms: C_31  and  O_32
REMARK                            x       y       z     vdW  Elec       q    Type
REMARK                         _______ _______ _______ _____ _____    ______ ____
ROOT
ATOM      1  C   UNL     1       2.127   4.921  21.248  0.00  0.00    +0.000 C 
ATOM      2  C   UNL     1       1.927   6.272  20.609  0.00  0.00    +0.000 A 
ATOM      3  C   UNL     1       1.232   7.220  21.393  0.00  0.00    +0.000 A 
ATOM      4  C   UNL     1       1.015   8.533  20.963  0.00  0.00    +0.000 A 
ATOM      5  C   UNL     1       1.516   8.912  19.716  0.00  0.00    +0.000 A 
ATOM      6  C   UNL     1       2.215   7.995  18.910  0.00  0.00    +0.000 A 
ATOM      7  C   UNL     1       2.754   8.469  17.583  0.00  0.00    +0.000 C 
ATOM      8  C   UNL     1       2.404   6.658  19.341  0.00  0.00    +0.000 A 
ENDROOT
BRANCH   4   9
ATOM      9  C   UNL     1       0.290   9.481  21.804  0.00  0.00    +0.000 A 
ATOM     10  N   UNL     1      -0.054   9.238  23.079  0.00  0.00    +0.000 NA
ATOM     11  O   UNL     1      -0.728  10.389  23.460  0.00  0.00    +0.000 OA
ATOM     12  C   UNL     1      -0.742  11.233  22.384  0.00  0.00    +0.000 A 
ATOM     13  N   UNL     1      -0.117  10.714  21.342  0.00  0.00    +0.000 NA
BRANCH  12  14
ATOM     14  C   UNL     1      -1.360  12.523  22.370  0.00  0.00    +0.000 A 
ATOM     15  C   UNL     1      -0.761  13.728  22.058  0.00  0.00    +0.000 A 
ATOM     16  C   UNL     1      -1.669  14.823  22.117  0.00  0.00    +0.000 A 
ATOM     17  C   UNL     1      -2.949  14.424  22.446  0.00  0.00    +0.000 A 
ATOM     18  S   UNL     1      -3.019  12.736  22.741  0.00  0.00    +0.000 S 
BRANCH  17  19
ATOM     19  C   UNL     1      -4.193  15.263  22.560  0.00  0.00    +0.000 C 
BRANCH  19  20
ATOM     20  C   UNL     1      -4.704  15.389  24.009  0.00  0.00    +0.000 C 
ATOM     21  C   UNL     1      -3.688  16.067  24.934  0.00  0.00    +0.000 C 
ATOM     22  C   UNL     1      -6.016  16.177  24.034  0.00  0.00    +0.000 C 
ENDBRANCH  19  20
ENDBRANCH  17  19
ENDBRANCH  12  14
ENDBRANCH   4   9
BRANCH   8  23
ATOM     23  O   UNL     1       3.110   5.890  18.450  0.00  0.00    +0.000 OA
BRANCH  23  24
ATOM     24  C   UNL     1       4.421   5.453  18.810  0.00  0.00    +0.000 C 
BRANCH  24  25
ATOM     25  C   UNL     1       5.069   4.708  17.633  0.00  0.00    +0.000 C 
BRANCH  25  26
ATOM     26  O   UNL     1       6.215   3.971  18.085  0.00  0.00    +0.000 OA
ATOM     27  H   UNL     1       6.142   3.914  19.056  0.00  0.00    +0.000 HD
ENDBRANCH  25  26
BRANCH  25  28
ATOM     28  C   UNL     1       4.101   3.740  16.940  0.00  0.00    +0.000 C 
BRANCH  28  29
ATOM     29  N   UNL     1       3.401   2.918  17.918  0.00  0.00    +0.000 N 
ATOM     30  C   UNL     1       2.031   2.935  18.027  0.00  0.00    +0.000 C 
ATOM     31  O   UNL     1       1.292   3.572  17.276  0.00  0.00    +0.000 OA
ATOM     32  H   UNL     1       3.966   2.480  18.637  0.00  0.00    +0.000 HD
BRANCH  30  33
ATOM     33  C   UNL     1       1.459   2.087  19.164  0.00  0.00    +0.000 C 
BRANCH  33  34
ATOM     34  O   UNL     1       0.172   2.536  19.558  0.00  0.00    +0.000 OA
ATOM     35  H   UNL     1      -0.461   2.073  18.973  0.00  0.00    +0.000 HD
ENDBRANCH  33  34
ENDBRANCH  30  33
ENDBRANCH  28  29
ENDBRANCH  25  28
ENDBRANCH  24  25
ENDBRANCH  23  24
ENDBRANCH   8  23
TORSDOF 12
ENDMDL
MODEL 8
REMARK VINA RESULT:      -7.0      2.794      4.417
REMARK  Name = 
REMARK  16 active torsions:
REMARK  status: ('A' for Active; 'I' for Inactive)
REMARK    1  A    between atoms: C_1  and  C_2
REMARK    2  A    between atoms: C_4  and  C_5
REMARK    3  A    between atoms: C_8  and  C_9
REMARK    4  A    between atoms: C_12  and  C_13
REMARK    5  A    between atoms: C_13  and  C_14
REMARK    6  A    between atoms: C_14  and  C_15
REMARK    7  A    between atoms: C_14  and  C_16
REMARK    8  A    between atoms: C_20  and  C_21
REMARK    9  A    between atoms: C_22  and  O_23
REMARK   10  A    between atoms: O_23  and  C_24
REMARK   11  A    between atoms: C_24  and  C_25
REMARK   12  A    between atoms: C_25  and  O_26
REMARK   13  A    between atoms: C_25  and  C_27
REMARK   14  A    between atoms: C_27  and  N_28
REMARK   15  A    between atoms: C_29  and  C_31
REMARK   16  A    between atoms: C_31  and  O_32
REMARK                            x       y       z     vdW  Elec       q    Type
REMARK                         _______ _______ _______ _____ _____    ______ ____
ROOT
ATOM      1  C   UNL     1       2.270   5.017  20.865  0.00  0.00    +0.000 C 
ATOM      2  C   UNL     1       1.990   6.403  20.340  0.00  0.00    +0.000 A 
ATOM      3  C   UNL     1       1.337   7.275  21.241  0.00  0.00    +0.000 A 
ATOM      4  C   UNL     1       1.057   8.608  20.923  0.00  0.00    +0.000 A 
ATOM      5  C   UNL     1       1.449   9.086  19.672  0.00  0.00    +0.000 A 
ATOM      6  C   UNL     1       2.104   8.247  18.751  0.00  0.00    +0.000 A 
ATOM      7  C   UNL     1       2.525   8.826  17.424  0.00  0.00    +0.000 C 
ATOM      8  C   UNL     1       2.356   6.889  19.071  0.00  0.00    +0.000 A 
ENDROOT
BRANCH   4   9
ATOM      9  C   UNL     1       0.379   9.474  21.883  0.00  0.00    +0.000 A 
ATOM     10  N   UNL     1       0.356   9.251  23.206  0.00  0.00    +0.000 NA
ATOM     11  O   UNL     1      -0.403  10.300  23.702  0.00  0.00    +0.000 OA
ATOM     12  C   UNL     1      -0.782  11.072  22.638  0.00  0.00    +0.000 A 
ATOM     13  N   UNL     1      -0.314  10.601  21.496  0.00  0.00    +0.000 NA
BRANCH  12  14
ATOM     14  C   UNL     1      -1.595  12.246  22.733  0.00  0.00    +0.000 A 
ATOM     15  C   UNL     1      -2.972  12.297  22.823  0.00  0.00    +0.000 A 
ATOM     16  C   UNL     1      -3.465  13.629  22.928  0.00  0.00    +0.000 A 
ATOM     17  C   UNL     1      -2.448  14.563  22.945  0.00  0.00    +0.000 A 
ATOM     18  S   UNL     1      -0.914  13.818  22.769  0.00  0.00    +0.000 S 
BRANCH  17  19
ATOM     19  C   UNL     1      -2.550  16.057  23.093  0.00  0.00    +0.000 C 
BRANCH  19  20
ATOM     20  C   UNL     1      -2.896  16.499  24.529  0.00  0.00    +0.000 C 
ATOM     21  C   UNL     1      -4.403  16.475  24.804  0.00  0.00    +0.000 C 
ATOM     22  C   UNL     1      -2.183  15.597  25.539  0.00  0.00    +0.000 C 
ENDBRANCH  19  20
ENDBRANCH  17  19
ENDBRANCH  12  14
ENDBRANCH   4   9
BRANCH   8  23
ATOM     23  O   UNL     1       3.008   6.204  18.075  0.00  0.00    +0.000 OA
BRANCH  23  24
ATOM     24  C   UNL     1       4.409   5.969  18.210  0.00  0.00    +0.000 C 
BRANCH  24  25
ATOM     25  C   UNL     1       4.797   4.672  17.482  0.00  0.00    +0.000 C 
BRANCH  25  26
ATOM     26  O   UNL     1       5.401   3.750  18.401  0.00  0.00    +0.000 OA
ATOM     27  H   UNL     1       5.002   3.927  19.273  0.00  0.00    +0.000 HD
ENDBRANCH  25  26
BRANCH  25  28
ATOM     28  C   UNL     1       3.598   3.989  16.812  0.00  0.00    +0.000 C 
BRANCH  28  29
ATOM     29  N   UNL     1       2.652   3.505  17.810  0.00  0.00    +0.000 N 
ATOM     30  C   UNL     1       2.685   2.209  18.266  0.00  0.00    +0.000 C 
ATOM     31  O   UNL     1       3.542   1.389  17.938  0.00  0.00    +0.000 OA
ATOM     32  H   UNL     1       1.856   4.099  18.013  0.00  0.00    +0.000 HD
BRANCH  30  33
ATOM     33  C   UNL     1       1.567   1.835  19.241  0.00  0.00    +0.000 C 
BRANCH  33  34
ATOM     34  O   UNL     1       0.299   2.269  18.777  0.00  0.00    +0.000 OA
ATOM     35  H   UNL     1       0.371   2.307  17.803  0.00  0.00    +0.000 HD
ENDBRANCH  33  34
ENDBRANCH  30  33
ENDBRANCH  28  29
ENDBRANCH  25  28
ENDBRANCH  24  25
ENDBRANCH  23  24
ENDBRANCH   8  23
TORSDOF 12
ENDMDL
MODEL 9
REMARK VINA RESULT:      -7.0      2.389      3.977
REMARK  Name = 
REMARK  16 active torsions:
REMARK  status: ('A' for Active; 'I' for Inactive)
REMARK    1  A    between atoms: C_1  and  C_2
REMARK    2  A    between atoms: C_4  and  C_5
REMARK    3  A    between atoms: C_8  and  C_9
REMARK    4  A    between atoms: C_12  and  C_13
REMARK    5  A    between atoms: C_13  and  C_14
REMARK    6  A    between atoms: C_14  and  C_15
REMARK    7  A    between atoms: C_14  and  C_16
REMARK    8  A    between atoms: C_20  and  C_21
REMARK    9  A    between atoms: C_22  and  O_23
REMARK   10  A    between atoms: O_23  and  C_24
REMARK   11  A    between atoms: C_24  and  C_25
REMARK   12  A    between atoms: C_25  and  O_26
REMARK   13  A    between atoms: C_25  and  C_27
REMARK   14  A    between atoms: C_27  and  N_28
REMARK   15  A    between atoms: C_29  and  C_31
REMARK   16  A    between atoms: C_31  and  O_32
REMARK                            x       y       z     vdW  Elec       q    Type
REMARK                         _______ _______ _______ _____ _____    ______ ____
ROOT
ATOM      1  C   UNL     1       2.194   9.357  17.333  0.00  0.00    +0.000 C 
ATOM      2  C   UNL     1       1.906   8.728  18.673  0.00  0.00    +0.000 A 
ATOM      3  C   UNL     1       1.167   9.529  19.575  0.00  0.00    +0.000 A 
ATOM      4  C   UNL     1       0.774   9.068  20.835  0.00  0.00    +0.000 A 
ATOM      5  C   UNL     1       1.120   7.767  21.202  0.00  0.00    +0.000 A 
ATOM      6  C   UNL     1       1.852   6.941  20.329  0.00  0.00    +0.000 A 
ATOM      7  C   UNL     1       2.176   5.535  20.770  0.00  0.00    +0.000 C 
ATOM      8  C   UNL     1       2.272   7.427  19.065  0.00  0.00    +0.000 A 
ENDROOT
BRANCH   4   9
ATOM      9  C   UNL     1       0.014   9.929  21.737  0.00  0.00    +0.000 A 
ATOM     10  N   UNL     1       0.124   9.892  23.075  0.00  0.00    +0.000 NA
ATOM     11  O   UNL     1      -0.781  10.852  23.503  0.00  0.00    +0.000 OA
ATOM     12  C   UNL     1      -1.369  11.388  22.391  0.00  0.00    +0.000 A 
ATOM     13  N   UNL     1      -0.901  10.851  21.279  0.00  0.00    +0.000 NA
BRANCH  12  14
ATOM     14  C   UNL     1      -2.377  12.403  22.413  0.00  0.00    +0.000 A 
ATOM     15  C   UNL     1      -2.919  13.059  21.325  0.00  0.00    +0.000 A 
ATOM     16  C   UNL     1      -3.923  13.999  21.696  0.00  0.00    +0.000 A 
ATOM     17  C   UNL     1      -4.144  14.018  23.058  0.00  0.00    +0.000 A 
ATOM     18  S   UNL     1      -3.087  12.944  23.876  0.00  0.00    +0.000 S 
BRANCH  17  19
ATOM     19  C   UNL     1      -5.146  14.829  23.834  0.00  0.00    +0.000 C 
BRANCH  19  20
ATOM     20  C   UNL     1      -6.582  14.282  23.720  0.00  0.00    +0.000 C 
ATOM     21  C   UNL     1      -7.225  14.597  22.366  0.00  0.00    +0.000 C 
ATOM     22  C   UNL     1      -6.583  12.767  23.941  0.00  0.00    +0.000 C 
ENDBRANCH  19  20
ENDBRANCH  17  19
ENDBRANCH  12  14
ENDBRANCH   4   9
BRANCH   8  23
ATOM     23  O   UNL     1       2.968   6.502  18.327  0.00  0.00    +0.000 OA
BRANCH  23  24
ATOM     24  C   UNL     1       4.252   6.860  17.815  0.00  0.00    +0.000 C 
BRANCH  24  25
ATOM     25  C   UNL     1       4.612   5.959  16.623  0.00  0.00    +0.000 C 
BRANCH  25  26
ATOM     26  O   UNL     1       5.231   6.735  15.586  0.00  0.00    +0.000 OA
ATOM     27  H   UNL     1       6.167   6.839  15.839  0.00  0.00    +0.000 HD
ENDBRANCH  25  26
BRANCH  25  28
ATOM     28  C   UNL     1       5.555   4.813  17.012  0.00  0.00    +0.000 C 
BRANCH  28  29
ATOM     29  N   UNL     1       4.857   3.816  17.814  0.00  0.00    +0.000 N 
ATOM     30  C   UNL     1       5.077   3.694  19.165  0.00  0.00    +0.000 C 
ATOM     31  O   UNL     1       5.805   4.448  19.811  0.00  0.00    +0.000 OA
ATOM     32  H   UNL     1       4.351   3.096  17.311  0.00  0.00    +0.000 HD
BRANCH  30  33
ATOM     33  C   UNL     1       4.337   2.540  19.842  0.00  0.00    +0.000 C 
BRANCH  33  34
ATOM     34  O   UNL     1       5.231   1.527  20.277  0.00  0.00    +0.000 OA
ATOM     35  H   UNL     1       5.444   1.742  21.206  0.00  0.00    +0.000 HD
ENDBRANCH  33  34
ENDBRANCH  30  33
ENDBRANCH  28  29
ENDBRANCH  25  28
ENDBRANCH  24  25
ENDBRANCH  23  24
ENDBRANCH   8  23
TORSDOF 12
ENDMDL
