MODEL 1
REMARK VINA RESULT:      -8.0      0.000      0.000
REMARK  Name = 
REMARK  7 active torsions:
REMARK  status: ('A' for Active; 'I' for Inactive)
REMARK    1  A    between atoms: C_1  and  C_2
REMARK    2  A    between atoms: C_2  and  O_3
REMARK    3  A    between atoms: O_3  and  N_4
REMARK    4  A    between atoms: C_5  and  C_6
REMARK    5  A    between atoms: C_5  and  C_7
REMARK    6  A    between atoms: C_13  and  C_14
REMARK    7  A    between atoms: C_14  and  C_15
REMARK                            x       y       z     vdW  Elec       q    Type
REMARK                         _______ _______ _______ _____ _____    ______ ____
ROOT
ATOM      1  C   UNL     1       4.279   4.838  17.503  0.00  0.00    +0.000 A 
ATOM      2  C   UNL     1       3.554   3.669  16.931  0.00  0.00    +0.000 A 
ATOM      3  C   UNL     1       2.437   3.274  17.551  0.00  0.00    +0.000 A 
ATOM      4  C   UNL     1       1.996   3.970  18.697  0.00  0.00    +0.000 A 
ATOM      5  N   UNL     1       0.950   3.778  19.469  0.00  0.00    +0.000 NA
ATOM      6  C   UNL     1       0.999   4.786  20.395  0.00  0.00    +0.000 A 
ATOM      7  C   UNL     1       2.088   5.610  20.187  0.00  0.00    +0.000 A 
ATOM      8  N   UNL     1       2.747   5.062  19.108  0.00  0.00    +0.000 N 
ATOM      9  N   UNL     1       3.903   5.529  18.543  0.00  0.00    +0.000 NA
ENDROOT
BRANCH   1  11
ATOM     10  N   UNL     1       6.146   4.386  16.021  0.00  0.00    +0.000 NA
ATOM     11  C   UNL     1       5.555   5.264  16.780  0.00  0.00    +0.000 C 
ATOM     12  C   UNL     1       6.006   6.683  17.015  0.00  0.00    +0.000 C 
BRANCH  10  13
ATOM     13  O   UNL     1       7.285   4.934  15.410  0.00  0.00    +0.000 OA
BRANCH  13  15
ATOM     14  C   UNL     1       6.040   3.843  13.696  0.00  0.00    +0.000 C 
ATOM     15  C   UNL     1       7.166   4.814  13.992  0.00  0.00    +0.000 C 
ENDBRANCH  13  15
ENDBRANCH  10  13
ENDBRANCH   1  11
BRANCH   7  16
ATOM     16  C   UNL     1       2.472   6.882  20.853  0.00  0.00    +0.000 C 
BRANCH  16  17
ATOM     17  C   UNL     1       1.460   7.998  20.764  0.00  0.00    +0.000 A 
ATOM     18  C   UNL     1       0.748   8.426  21.890  0.00  0.00    +0.000 A 
ATOM     19  C   UNL     1      -0.042   9.589  21.842  0.00  0.00    +0.000 A 
ATOM     20  C   UNL     1      -0.706  10.067  22.979  0.00  0.00    +0.000 A 
ATOM     21  C   UNL     1      -1.414  11.262  22.915  0.00  0.00    +0.000 A 
ATOM     22  C   UNL     1      -1.449  11.929  21.705  0.00  0.00    +0.000 A 
ATOM     23  N   UNL     1      -0.850  11.483  20.580  0.00  0.00    +0.000 NA
ATOM     24  C   UNL     1      -0.152  10.334  20.649  0.00  0.00    +0.000 A 
ATOM     25  C   UNL     1       0.507   9.869  19.525  0.00  0.00    +0.000 A 
ATOM     26  C   UNL     1       1.303   8.727  19.581  0.00  0.00    +0.000 A 
ATOM     27  F   UNL     1       1.965   8.357  18.475  0.00  0.00    +0.000 F 
ENDBRANCH  16  17
ENDBRANCH   7  16
TORSDOF 5
ENDMDL
MODEL 2
REMARK VINA RESULT:      -7.9      2.971      5.657
REMARK  Name = 
REMARK  7 active torsions:
REMARK  status: ('A' for Active; 'I' for Inactive)
REMARK    1  A    between atoms: C_1  and  C_2
REMARK    2  A    between atoms: C_2  and  O_3
REMARK    3  A    between atoms: O_3  and  N_4
REMARK    4  A    between atoms: C_5  and  C_6
REMARK    5  A    between atoms: C_5  and  C_7
REMARK    6  A    between atoms: C_13  and  C_14
REMARK    7  A    between atoms: C_14  and  C_15
REMARK                            x       y       z     vdW  Elec       q    Type
REMARK                         _______ _______ _______ _____ _____    ______ ____
ROOT
ATOM      1  C   UNL     1       5.565   3.918  12.800  0.00  0.00    +0.000 A 
ATOM      2  C   UNL     1       6.959   4.321  12.461  0.00  0.00    +0.000 A 
ATOM      3  C   UNL     1       7.692   4.878  13.431  0.00  0.00    +0.000 A 
ATOM      4  C   UNL     1       7.128   5.054  14.713  0.00  0.00    +0.000 A 
ATOM      5  N   UNL     1       7.636   5.568  15.811  0.00  0.00    +0.000 NA
ATOM      6  C   UNL     1       6.654   5.430  16.756  0.00  0.00    +0.000 A 
ATOM      7  C   UNL     1       5.531   4.821  16.234  0.00  0.00    +0.000 A 
ATOM      8  N   UNL     1       5.829   4.607  14.906  0.00  0.00    +0.000 N 
ATOM      9  N   UNL     1       5.005   4.037  13.972  0.00  0.00    +0.000 NA
ENDROOT
BRANCH   1  11
ATOM     10  N   UNL     1       3.763   3.985  11.177  0.00  0.00    +0.000 NA
ATOM     11  C   UNL     1       4.747   3.292  11.673  0.00  0.00    +0.000 C 
ATOM     12  C   UNL     1       5.173   1.914  11.235  0.00  0.00    +0.000 C 
BRANCH  10  13
ATOM     13  O   UNL     1       3.127   3.287  10.139  0.00  0.00    +0.000 OA
BRANCH  13  15
ATOM     14  C   UNL     1       2.003   5.004   8.927  0.00  0.00    +0.000 C 
ATOM     15  C   UNL     1       3.190   4.060   8.940  0.00  0.00    +0.000 C 
ENDBRANCH  13  15
ENDBRANCH  10  13
ENDBRANCH   1  11
BRANCH   7  16
ATOM     16  C   UNL     1       4.287   4.359  16.905  0.00  0.00    +0.000 C 
BRANCH  16  17
ATOM     17  C   UNL     1       3.708   5.303  17.929  0.00  0.00    +0.000 A 
ATOM     18  C   UNL     1       3.258   6.578  17.570  0.00  0.00    +0.000 A 
ATOM     19  C   UNL     1       2.543   7.373  18.485  0.00  0.00    +0.000 A 
ATOM     20  C   UNL     1       2.027   8.623  18.119  0.00  0.00    +0.000 A 
ATOM     21  C   UNL     1       1.258   9.345  19.024  0.00  0.00    +0.000 A 
ATOM     22  C   UNL     1       1.048   8.799  20.276  0.00  0.00    +0.000 A 
ATOM     23  N   UNL     1       1.556   7.613  20.676  0.00  0.00    +0.000 NA
ATOM     24  C   UNL     1       2.287   6.908  19.793  0.00  0.00    +0.000 A 
ATOM     25  C   UNL     1       2.789   5.672  20.157  0.00  0.00    +0.000 A 
ATOM     26  C   UNL     1       3.481   4.880  19.242  0.00  0.00    +0.000 A 
ATOM     27  F   UNL     1       3.893   3.666  19.634  0.00  0.00    +0.000 F 
ENDBRANCH  16  17
ENDBRANCH   7  16
TORSDOF 5
ENDMDL
MODEL 3
REMARK VINA RESULT:      -7.9      1.022      1.205
REMARK  Name = 
REMARK  7 active torsions:
REMARK  status: ('A' for Active; 'I' for Inactive)
REMARK    1  A    between atoms: C_1  and  C_2
REMARK    2  A    between atoms: C_2  and  O_3
REMARK    3  A    between atoms: O_3  and  N_4
REMARK    4  A    between atoms: C_5  and  C_6
REMARK    5  A    between atoms: C_5  and  C_7
REMARK    6  A    between atoms: C_13  and  C_14
REMARK    7  A    between atoms: C_14  and  C_15
REMARK                            x       y       z     vdW  Elec       q    Type
REMARK                         _______ _______ _______ _____ _____    ______ ____
ROOT
ATOM      1  C   UNL     1       4.579   4.172  17.702  0.00  0.00    +0.000 A 
ATOM      2  C   UNL     1       3.857   2.950  17.251  0.00  0.00    +0.000 A 
ATOM      3  C   UNL     1       2.677   2.685  17.824  0.00  0.00    +0.000 A 
ATOM      4  C   UNL     1       2.172   3.560  18.809  0.00  0.00    +0.000 A 
ATOM      5  N   UNL     1       1.059   3.516  19.507  0.00  0.00    +0.000 NA
ATOM      6  C   UNL     1       1.072   4.653  20.271  0.00  0.00    +0.000 A 
ATOM      7  C   UNL     1       2.207   5.405  20.038  0.00  0.00    +0.000 A 
ATOM      8  N   UNL     1       2.930   4.681  19.116  0.00  0.00    +0.000 N 
ATOM      9  N   UNL     1       4.147   5.024  18.590  0.00  0.00    +0.000 NA
ENDROOT
BRANCH   1  11
ATOM     10  N   UNL     1       5.984   4.400  15.738  0.00  0.00    +0.000 NA
ATOM     11  C   UNL     1       5.926   4.447  17.038  0.00  0.00    +0.000 C 
ATOM     12  C   UNL     1       7.070   4.759  17.968  0.00  0.00    +0.000 C 
BRANCH  10  13
ATOM     13  O   UNL     1       7.277   4.697  15.280  0.00  0.00    +0.000 OA
BRANCH  13  15
ATOM     14  C   UNL     1       6.200   3.822  13.343  0.00  0.00    +0.000 C 
ATOM     15  C   UNL     1       7.271   4.766  13.854  0.00  0.00    +0.000 C 
ENDBRANCH  13  15
ENDBRANCH  10  13
ENDBRANCH   1  11
BRANCH   7  16
ATOM     16  C   UNL     1       2.585   6.754  20.537  0.00  0.00    +0.000 C 
BRANCH  16  17
ATOM     17  C   UNL     1       1.754   7.900  20.016  0.00  0.00    +0.000 A 
ATOM     18  C   UNL     1       0.902   8.622  20.859  0.00  0.00    +0.000 A 
ATOM     19  C   UNL     1       0.284   9.805  20.416  0.00  0.00    +0.000 A 
ATOM     20  C   UNL     1      -0.517  10.574  21.270  0.00  0.00    +0.000 A 
ATOM     21  C   UNL     1      -1.047  11.779  20.821  0.00  0.00    +0.000 A 
ATOM     22  C   UNL     1      -0.772  12.164  19.523  0.00  0.00    +0.000 A 
ATOM     23  N   UNL     1      -0.031  11.434  18.661  0.00  0.00    +0.000 NA
ATOM     24  C   UNL     1       0.493  10.275  19.102  0.00  0.00    +0.000 A 
ATOM     25  C   UNL     1       1.289   9.523  18.257  0.00  0.00    +0.000 A 
ATOM     26  C   UNL     1       1.914   8.361  18.706  0.00  0.00    +0.000 A 
ATOM     27  F   UNL     1       2.721   7.704  17.860  0.00  0.00    +0.000 F 
ENDBRANCH  16  17
ENDBRANCH   7  16
TORSDOF 5
ENDMDL
MODEL 4
REMARK VINA RESULT:      -7.8      1.183      1.296
REMARK  Name = 
REMARK  7 active torsions:
REMARK  status: ('A' for Active; 'I' for Inactive)
REMARK    1  A    between atoms: C_1  and  C_2
REMARK    2  A    between atoms: C_2  and  O_3
REMARK    3  A    between atoms: O_3  and  N_4
REMARK    4  A    between atoms: C_5  and  C_6
REMARK    5  A    between atoms: C_5  and  C_7
REMARK    6  A    between atoms: C_13  and  C_14
REMARK    7  A    between atoms: C_14  and  C_15
REMARK                            x       y       z     vdW  Elec       q    Type
REMARK                         _______ _______ _______ _____ _____    ______ ____
ROOT
ATOM      1  C   UNL     1       5.048   4.609  18.467  0.00  0.00    +0.000 A 
ATOM      2  C   UNL     1       4.645   3.265  18.969  0.00  0.00    +0.000 A 
ATOM      3  C   UNL     1       3.555   3.197  19.742  0.00  0.00    +0.000 A 
ATOM      4  C   UNL     1       2.842   4.379  20.041  0.00  0.00    +0.000 A 
ATOM      5  N   UNL     1       1.763   4.570  20.766  0.00  0.00    +0.000 NA
ATOM      6  C   UNL     1       1.495   5.909  20.660  0.00  0.00    +0.000 A 
ATOM      7  C   UNL     1       2.420   6.548  19.858  0.00  0.00    +0.000 A 
ATOM      8  N   UNL     1       3.307   5.562  19.485  0.00  0.00    +0.000 N 
ATOM      9  N   UNL     1       4.413   5.725  18.694  0.00  0.00    +0.000 NA
ENDROOT
BRANCH   1  11
ATOM     10  N   UNL     1       6.178   4.331  16.339  0.00  0.00    +0.000 NA
ATOM     11  C   UNL     1       6.299   4.658  17.594  0.00  0.00    +0.000 C 
ATOM     12  C   UNL     1       7.568   5.094  18.280  0.00  0.00    +0.000 C 
BRANCH  10  13
ATOM     13  O   UNL     1       7.405   4.450  15.666  0.00  0.00    +0.000 OA
BRANCH  13  15
ATOM     14  C   UNL     1       6.131   3.947  13.716  0.00  0.00    +0.000 C 
ATOM     15  C   UNL     1       7.169   4.870  14.322  0.00  0.00    +0.000 C 
ENDBRANCH  13  15
ENDBRANCH  10  13
ENDBRANCH   1  11
BRANCH   7  16
ATOM     16  C   UNL     1       2.459   7.950  19.364  0.00  0.00    +0.000 C 
BRANCH  16  17
ATOM     17  C   UNL     1       1.292   8.817  19.767  0.00  0.00    +0.000 A 
ATOM     18  C   UNL     1       0.926   8.966  21.110  0.00  0.00    +0.000 A 
ATOM     19  C   UNL     1      -0.030   9.924  21.493  0.00  0.00    +0.000 A 
ATOM     20  C   UNL     1      -0.357  10.131  22.839  0.00  0.00    +0.000 A 
ATOM     21  C   UNL     1      -1.247  11.141  23.187  0.00  0.00    +0.000 A 
ATOM     22  C   UNL     1      -1.797  11.898  22.170  0.00  0.00    +0.000 A 
ATOM     23  N   UNL     1      -1.531  11.707  20.859  0.00  0.00    +0.000 NA
ATOM     24  C   UNL     1      -0.657  10.739  20.526  0.00  0.00    +0.000 A 
ATOM     25  C   UNL     1      -0.333  10.542  19.196  0.00  0.00    +0.000 A 
ATOM     26  C   UNL     1       0.628   9.605  18.823  0.00  0.00    +0.000 A 
ATOM     27  F   UNL     1       0.944   9.500  17.523  0.00  0.00    +0.000 F 
ENDBRANCH  16  17
ENDBRANCH   7  16
TORSDOF 5
ENDMDL
MODEL 5
REMARK VINA RESULT:      -7.6      0.948      1.612
REMARK  Name = 
REMARK  7 active torsions:
REMARK  status: ('A' for Active; 'I' for Inactive)
REMARK    1  A    between atoms: C_1  and  C_2
REMARK    2  A    between atoms: C_2  and  O_3
REMARK    3  A    between atoms: O_3  and  N_4
REMARK    4  A    between atoms: C_5  and  C_6
REMARK    5  A    between atoms: C_5  and  C_7
REMARK    6  A    between atoms: C_13  and  C_14
REMARK    7  A    between atoms: C_14  and  C_15
REMARK                            x       y       z     vdW  Elec       q    Type
REMARK                         _______ _______ _______ _____ _____    ______ ____
ROOT
ATOM      1  C   UNL     1       4.065   4.706  17.548  0.00  0.00    +0.000 A 
ATOM      2  C   UNL     1       3.327   3.563  16.942  0.00  0.00    +0.000 A 
ATOM      3  C   UNL     1       2.220   3.144  17.566  0.00  0.00    +0.000 A 
ATOM      4  C   UNL     1       1.802   3.793  18.748  0.00  0.00    +0.000 A 
ATOM      5  N   UNL     1       0.770   3.571  19.531  0.00  0.00    +0.000 NA
ATOM      6  C   UNL     1       0.839   4.540  20.496  0.00  0.00    +0.000 A 
ATOM      7  C   UNL     1       1.926   5.370  20.303  0.00  0.00    +0.000 A 
ATOM      8  N   UNL     1       2.563   4.866  19.190  0.00  0.00    +0.000 N 
ATOM      9  N   UNL     1       3.710   5.354  18.623  0.00  0.00    +0.000 NA
ENDROOT
BRANCH   1  11
ATOM     10  N   UNL     1       5.733   6.382  17.007  0.00  0.00    +0.000 NA
ATOM     11  C   UNL     1       5.328   5.159  16.820  0.00  0.00    +0.000 C 
ATOM     12  C   UNL     1       5.996   4.126  15.949  0.00  0.00    +0.000 C 
BRANCH  10  13
ATOM     13  O   UNL     1       6.914   6.638  16.293  0.00  0.00    +0.000 OA
BRANCH  13  15
ATOM     14  C   UNL     1       7.914   6.816  18.449  0.00  0.00    +0.000 C 
ATOM     15  C   UNL     1       7.777   7.457  17.082  0.00  0.00    +0.000 C 
ENDBRANCH  13  15
ENDBRANCH  10  13
ENDBRANCH   1  11
BRANCH   7  16
ATOM     16  C   UNL     1       2.325   6.613  21.013  0.00  0.00    +0.000 C 
BRANCH  16  17
ATOM     17  C   UNL     1       1.417   7.801  20.814  0.00  0.00    +0.000 A 
ATOM     18  C   UNL     1       0.667   8.328  21.871  0.00  0.00    +0.000 A 
ATOM     19  C   UNL     1      -0.021   9.547  21.727  0.00  0.00    +0.000 A 
ATOM     20  C   UNL     1      -0.720  10.121  22.796  0.00  0.00    +0.000 A 
ATOM     21  C   UNL     1      -1.321  11.365  22.641  0.00  0.00    +0.000 A 
ATOM     22  C   UNL     1      -1.219  11.984  21.410  0.00  0.00    +0.000 A 
ATOM     23  N   UNL     1      -0.582  11.448  20.346  0.00  0.00    +0.000 NA
ATOM     24  C   UNL     1       0.013  10.250  20.504  0.00  0.00    +0.000 A 
ATOM     25  C   UNL     1       0.707   9.690  19.446  0.00  0.00    +0.000 A 
ATOM     26  C   UNL     1       1.402   8.492  19.599  0.00  0.00    +0.000 A 
ATOM     27  F   UNL     1       2.106   8.027  18.556  0.00  0.00    +0.000 F 
ENDBRANCH  16  17
ENDBRANCH   7  16
TORSDOF 5
ENDMDL
MODEL 6
REMARK VINA RESULT:      -7.6      4.036      7.967
REMARK  Name = 
REMARK  7 active torsions:
REMARK  status: ('A' for Active; 'I' for Inactive)
REMARK    1  A    between atoms: C_1  and  C_2
REMARK    2  A    between atoms: C_2  and  O_3
REMARK    3  A    between atoms: O_3  and  N_4
REMARK    4  A    between atoms: C_5  and  C_6
REMARK    5  A    between atoms: C_5  and  C_7
REMARK    6  A    between atoms: C_13  and  C_14
REMARK    7  A    between atoms: C_14  and  C_15
REMARK                            x       y       z     vdW  Elec       q    Type
REMARK                         _______ _______ _______ _____ _____    ______ ____
ROOT
ATOM      1  C   UNL     1      -2.039  10.731  17.771  0.00  0.00    +0.000 A 
ATOM      2  C   UNL     1      -2.431  11.630  18.892  0.00  0.00    +0.000 A 
ATOM      3  C   UNL     1      -1.593  11.720  19.931  0.00  0.00    +0.000 A 
ATOM      4  C   UNL     1      -0.392  10.978  19.921  0.00  0.00    +0.000 A 
ATOM      5  N   UNL     1       0.575  10.898  20.807  0.00  0.00    +0.000 NA
ATOM      6  C   UNL     1       1.508  10.070  20.242  0.00  0.00    +0.000 A 
ATOM      7  C   UNL     1       1.111   9.638  18.992  0.00  0.00    +0.000 A 
ATOM      8  N   UNL     1      -0.132  10.202  18.801  0.00  0.00    +0.000 N 
ATOM      9  N   UNL     1      -0.933  10.043  17.702  0.00  0.00    +0.000 NA
ENDROOT
BRANCH   1  11
ATOM     10  N   UNL     1      -2.745   9.799  15.645  0.00  0.00    +0.000 NA
ATOM     11  C   UNL     1      -3.016  10.640  16.602  0.00  0.00    +0.000 C 
ATOM     12  C   UNL     1      -4.221  11.543  16.675  0.00  0.00    +0.000 C 
BRANCH  10  13
ATOM     13  O   UNL     1      -3.745   9.815  14.660  0.00  0.00    +0.000 OA
BRANCH  13  15
ATOM     14  C   UNL     1      -4.232   9.780  12.328  0.00  0.00    +0.000 C 
ATOM     15  C   UNL     1      -3.137   9.895  13.370  0.00  0.00    +0.000 C 
ENDBRANCH  13  15
ENDBRANCH  10  13
ENDBRANCH   1  11
BRANCH   7  16
ATOM     16  C   UNL     1       1.842   8.842  17.972  0.00  0.00    +0.000 C 
BRANCH  16  17
ATOM     17  C   UNL     1       2.447   7.549  18.462  0.00  0.00    +0.000 A 
ATOM     18  C   UNL     1       1.921   6.874  19.569  0.00  0.00    +0.000 A 
ATOM     19  C   UNL     1       2.361   5.579  19.898  0.00  0.00    +0.000 A 
ATOM     20  C   UNL     1       1.796   4.864  20.962  0.00  0.00    +0.000 A 
ATOM     21  C   UNL     1       2.201   3.557  21.209  0.00  0.00    +0.000 A 
ATOM     22  C   UNL     1       3.175   3.016  20.392  0.00  0.00    +0.000 A 
ATOM     23  N   UNL     1       3.766   3.685  19.378  0.00  0.00    +0.000 NA
ATOM     24  C   UNL     1       3.362   4.945  19.131  0.00  0.00    +0.000 A 
ATOM     25  C   UNL     1       3.919   5.645  18.076  0.00  0.00    +0.000 A 
ATOM     26  C   UNL     1       3.467   6.919  17.742  0.00  0.00    +0.000 A 
ATOM     27  F   UNL     1       4.003   7.526  16.673  0.00  0.00    +0.000 F 
ENDBRANCH  16  17
ENDBRANCH   7  16
TORSDOF 5
ENDMDL
MODEL 7
REMARK VINA RESULT:      -7.4      2.290      3.676
REMARK  Name = 
REMARK  7 active torsions:
REMARK  status: ('A' for Active; 'I' for Inactive)
REMARK    1  A    between atoms: C_1  and  C_2
REMARK    2  A    between atoms: C_2  and  O_3
REMARK    3  A    between atoms: O_3  and  N_4
REMARK    4  A    between atoms: C_5  and  C_6
REMARK    5  A    between atoms: C_5  and  C_7
REMARK    6  A    between atoms: C_13  and  C_14
REMARK    7  A    between atoms: C_14  and  C_15
REMARK                            x       y       z     vdW  Elec       q    Type
REMARK                         _______ _______ _______ _____ _____    ______ ____
ROOT
ATOM      1  C   UNL     1       6.235   4.620  15.409  0.00  0.00    +0.000 A 
ATOM      2  C   UNL     1       7.532   4.227  16.027  0.00  0.00    +0.000 A 
ATOM      3  C   UNL     1       7.655   4.379  17.350  0.00  0.00    +0.000 A 
ATOM      4  C   UNL     1       6.569   4.890  18.094  0.00  0.00    +0.000 A 
ATOM      5  N   UNL     1       6.446   5.129  19.380  0.00  0.00    +0.000 NA
ATOM      6  C   UNL     1       5.159   5.569  19.540  0.00  0.00    +0.000 A 
ATOM      7  C   UNL     1       4.482   5.598  18.337  0.00  0.00    +0.000 A 
ATOM      8  N   UNL     1       5.405   5.188  17.400  0.00  0.00    +0.000 N 
ATOM      9  N   UNL     1       5.195   5.074  16.051  0.00  0.00    +0.000 NA
ENDROOT
BRANCH   1  11
ATOM     10  N   UNL     1       5.099   3.788  13.433  0.00  0.00    +0.000 NA
ATOM     11  C   UNL     1       6.124   4.443  13.896  0.00  0.00    +0.000 C 
ATOM     12  C   UNL     1       7.227   5.062  13.076  0.00  0.00    +0.000 C 
BRANCH  10  13
ATOM     13  O   UNL     1       5.127   3.732  12.031  0.00  0.00    +0.000 OA
BRANCH  13  15
ATOM     14  C   UNL     1       3.499   3.826  10.293  0.00  0.00    +0.000 C 
ATOM     15  C   UNL     1       3.931   3.110  11.558  0.00  0.00    +0.000 C 
ENDBRANCH  13  15
ENDBRANCH  10  13
ENDBRANCH   1  11
BRANCH   7  16
ATOM     16  C   UNL     1       3.052   5.882  18.045  0.00  0.00    +0.000 C 
BRANCH  16  17
ATOM     17  C   UNL     1       2.431   7.000  18.844  0.00  0.00    +0.000 A 
ATOM     18  C   UNL     1       2.215   8.263  18.282  0.00  0.00    +0.000 A 
ATOM     19  C   UNL     1       1.461   9.235  18.963  0.00  0.00    +0.000 A 
ATOM     20  C   UNL     1       1.180  10.479  18.385  0.00  0.00    +0.000 A 
ATOM     21  C   UNL     1       0.365  11.385  19.054  0.00  0.00    +0.000 A 
ATOM     22  C   UNL     1      -0.125  11.021  20.294  0.00  0.00    +0.000 A 
ATOM     23  N   UNL     1       0.151   9.845  20.898  0.00  0.00    +0.000 NA
ATOM     24  C   UNL     1       0.927   8.963  20.241  0.00  0.00    +0.000 A 
ATOM     25  C   UNL     1       1.197   7.734  20.815  0.00  0.00    +0.000 A 
ATOM     26  C   UNL     1       1.928   6.767  20.128  0.00  0.00    +0.000 A 
ATOM     27  F   UNL     1       2.109   5.572  20.709  0.00  0.00    +0.000 F 
ENDBRANCH  16  17
ENDBRANCH   7  16
TORSDOF 5
ENDMDL
MODEL 8
REMARK VINA RESULT:      -7.4      2.094      3.319
REMARK  Name = 
REMARK  7 active torsions:
REMARK  status: ('A' for Active; 'I' for Inactive)
REMARK    1  A    between atoms: C_1  and  C_2
REMARK    2  A    between atoms: C_2  and  O_3
REMARK    3  A    between atoms: O_3  and  N_4
REMARK    4  A    between atoms: C_5  and  C_6
REMARK    5  A    between atoms: C_5  and  C_7
REMARK    6  A    between atoms: C_13  and  C_14
REMARK    7  A    between atoms: C_14  and  C_15
REMARK                            x       y       z     vdW  Elec       q    Type
REMARK                         _______ _______ _______ _____ _____    ______ ____
ROOT
ATOM      1  C   UNL     1       6.488   4.697  15.656  0.00  0.00    +0.000 A 
ATOM      2  C   UNL     1       7.742   4.381  16.395  0.00  0.00    +0.000 A 
ATOM      3  C   UNL     1       7.725   4.521  17.726  0.00  0.00    +0.000 A 
ATOM      4  C   UNL     1       6.540   4.949  18.363  0.00  0.00    +0.000 A 
ATOM      5  N   UNL     1       6.276   5.160  19.633  0.00  0.00    +0.000 NA
ATOM      6  C   UNL     1       4.953   5.513  19.668  0.00  0.00    +0.000 A 
ATOM      7  C   UNL     1       4.396   5.515  18.405  0.00  0.00    +0.000 A 
ATOM      8  N   UNL     1       5.432   5.180  17.560  0.00  0.00    +0.000 N 
ATOM      9  N   UNL     1       5.363   5.073  16.197  0.00  0.00    +0.000 NA
ENDROOT
BRANCH   1  11
ATOM     10  N   UNL     1       5.679   3.730  13.583  0.00  0.00    +0.000 NA
ATOM     11  C   UNL     1       6.538   4.536  14.138  0.00  0.00    +0.000 C 
ATOM     12  C   UNL     1       7.589   5.345  13.422  0.00  0.00    +0.000 C 
BRANCH  10  13
ATOM     13  O   UNL     1       5.836   3.709  12.188  0.00  0.00    +0.000 OA
BRANCH  13  15
ATOM     14  C   UNL     1       3.801   3.300  11.016  0.00  0.00    +0.000 C 
ATOM     15  C   UNL     1       5.030   2.666  11.637  0.00  0.00    +0.000 C 
ENDBRANCH  13  15
ENDBRANCH  10  13
ENDBRANCH   1  11
BRANCH   7  16
ATOM     16  C   UNL     1       2.986   5.708  17.975  0.00  0.00    +0.000 C 
BRANCH  16  17
ATOM     17  C   UNL     1       2.315   6.961  18.482  0.00  0.00    +0.000 A 
ATOM     18  C   UNL     1       1.757   7.020  19.764  0.00  0.00    +0.000 A 
ATOM     19  C   UNL     1       1.312   8.242  20.299  0.00  0.00    +0.000 A 
ATOM     20  C   UNL     1       0.814   8.329  21.606  0.00  0.00    +0.000 A 
ATOM     21  C   UNL     1       0.458   9.566  22.129  0.00  0.00    +0.000 A 
ATOM     22  C   UNL     1       0.592  10.676  21.316  0.00  0.00    +0.000 A 
ATOM     23  N   UNL     1       1.037  10.628  20.042  0.00  0.00    +0.000 NA
ATOM     24  C   UNL     1       1.396   9.431  19.542  0.00  0.00    +0.000 A 
ATOM     25  C   UNL     1       1.892   9.351  18.253  0.00  0.00    +0.000 A 
ATOM     26  C   UNL     1       2.350   8.142  17.734  0.00  0.00    +0.000 A 
ATOM     27  F   UNL     1       2.875   8.137  16.500  0.00  0.00    +0.000 F 
ENDBRANCH  16  17
ENDBRANCH   7  16
TORSDOF 5
ENDMDL
MODEL 9
REMARK VINA RESULT:      -7.4      2.223      3.068
REMARK  Name = 
REMARK  7 active torsions:
REMARK  status: ('A' for Active; 'I' for Inactive)
REMARK    1  A    between atoms: C_1  and  C_2
REMARK    2  A    between atoms: C_2  and  O_3
REMARK    3  A    between atoms: O_3  and  N_4
REMARK    4  A    between atoms: C_5  and  C_6
REMARK    5  A    between atoms: C_5  and  C_7
REMARK    6  A    between atoms: C_13  and  C_14
REMARK    7  A    between atoms: C_14  and  C_15
REMARK                            x       y       z     vdW  Elec       q    Type
REMARK                         _______ _______ _______ _____ _____    ______ ____
ROOT
ATOM      1  C   UNL     1       4.676   5.826  17.922  0.00  0.00    +0.000 A 
ATOM      2  C   UNL     1       4.450   4.740  18.916  0.00  0.00    +0.000 A 
ATOM      3  C   UNL     1       3.488   4.930  19.826  0.00  0.00    +0.000 A 
ATOM      4  C   UNL     1       2.737   6.125  19.804  0.00  0.00    +0.000 A 
ATOM      5  N   UNL     1       1.758   6.539  20.578  0.00  0.00    +0.000 NA
ATOM      6  C   UNL     1       1.378   7.747  20.056  0.00  0.00    +0.000 A 
ATOM      7  C   UNL     1       2.130   8.078  18.947  0.00  0.00    +0.000 A 
ATOM      8  N   UNL     1       3.028   7.042  18.805  0.00  0.00    +0.000 N 
ATOM      9  N   UNL     1       3.997   6.937  17.843  0.00  0.00    +0.000 NA
ENDROOT
BRANCH   1  11
ATOM     10  N   UNL     1       5.469   5.634  15.637  0.00  0.00    +0.000 NA
ATOM     11  C   UNL     1       5.785   5.588  16.900  0.00  0.00    +0.000 C 
ATOM     12  C   UNL     1       7.158   5.326  17.463  0.00  0.00    +0.000 C 
BRANCH  10  13
ATOM     13  O   UNL     1       6.595   5.420  14.827  0.00  0.00    +0.000 OA
BRANCH  13  15
ATOM     14  C   UNL     1       5.272   3.950  13.498  0.00  0.00    +0.000 C 
ATOM     15  C   UNL     1       6.553   4.095  14.297  0.00  0.00    +0.000 C 
ENDBRANCH  13  15
ENDBRANCH  10  13
ENDBRANCH   1  11
BRANCH   7  16
ATOM     16  C   UNL     1       1.994   9.213  17.996  0.00  0.00    +0.000 C 
BRANCH  16  17
ATOM     17  C   UNL     1       0.738  10.037  18.138  0.00  0.00    +0.000 A 
ATOM     18  C   UNL     1      -0.469   9.627  17.561  0.00  0.00    +0.000 A 
ATOM     19  C   UNL     1      -1.672  10.292  17.860  0.00  0.00    +0.000 A 
ATOM     20  C   UNL     1      -2.898   9.852  17.344  0.00  0.00    +0.000 A 
ATOM     21  C   UNL     1      -4.076  10.485  17.724  0.00  0.00    +0.000 A 
ATOM     22  C   UNL     1      -3.984  11.554  18.595  0.00  0.00    +0.000 A 
ATOM     23  N   UNL     1      -2.818  12.027  19.087  0.00  0.00    +0.000 NA
ATOM     24  C   UNL     1      -1.681  11.403  18.730  0.00  0.00    +0.000 A 
ATOM     25  C   UNL     1      -0.474  11.838  19.247  0.00  0.00    +0.000 A 
ATOM     26  C   UNL     1       0.712  11.165  18.963  0.00  0.00    +0.000 A 
ATOM     27  F   UNL     1       1.844  11.596  19.540  0.00  0.00    +0.000 F 
ENDBRANCH  16  17
ENDBRANCH   7  16
TORSDOF 5
ENDMDL
