MODEL 1
REMARK VINA RESULT:      -8.2      0.000      0.000
REMARK  Name = 
REMARK  8 active torsions:
REMARK  status: ('A' for Active; 'I' for Inactive)
REMARK    1  A    between atoms: C_1  and  C_2
REMARK    2  A    between atoms: C_2  and  C_3
REMARK    3  A    between atoms: C_2  and  C_4
REMARK    4  A    between atoms: C_2  and  O_5
REMARK    5  A    between atoms: O_5  and  C_6
REMARK    6  A    between atoms: C_12  and  C_13
REMARK    7  A    between atoms: C_13  and  O_15
REMARK    8  A    between atoms: O_15  and  C_16
REMARK                            x       y       z     vdW  Elec       q    Type
REMARK                         _______ _______ _______ _____ _____    ______ ____
ROOT
ATOM      1  C   UNL     1       2.345   5.963  19.533  0.00  0.00    +0.000 C 
ATOM      2  O   UNL     1       2.115   5.277  20.522  0.00  0.00    +0.000 OA
ENDROOT
BRANCH   1   9
ATOM      3  C   UNL     1       4.540   5.977  17.262  0.00  0.00    +0.000 C 
ATOM      4  O   UNL     1       4.262   7.168  17.316  0.00  0.00    +0.000 OA
ATOM      5  N   UNL     1       3.620   5.021  17.601  0.00  0.00    +0.000 N 
ATOM      6  C   UNL     1       3.770   3.584  17.611  0.00  0.00    +0.000 C 
ATOM      7  C   UNL     1       2.351   3.105  17.351  0.00  0.00    +0.000 C 
ATOM      8  C   UNL     1       1.468   4.144  18.049  0.00  0.00    +0.000 C 
ATOM      9  C   UNL     1       2.306   5.429  18.090  0.00  0.00    +0.000 C 
BRANCH   3  10
ATOM     10  O   UNL     1       5.750   5.474  16.909  0.00  0.00    +0.000 OA
BRANCH  10  12
ATOM     11  C   UNL     1       7.873   4.438  17.626  0.00  0.00    +0.000 C 
ATOM     12  C   UNL     1       6.834   5.541  17.875  0.00  0.00    +0.000 C 
ATOM     13  C   UNL     1       6.289   5.518  19.311  0.00  0.00    +0.000 C 
ATOM     14  C   UNL     1       7.527   6.895  17.653  0.00  0.00    +0.000 C 
ENDBRANCH  10  12
ENDBRANCH   3  10
ENDBRANCH   1   9
BRANCH   1  15
ATOM     15  O   UNL     1       2.742   7.299  19.548  0.00  0.00    +0.000 OA
BRANCH  15  16
ATOM     16  C   UNL     1       1.811   8.322  19.351  0.00  0.00    +0.000 A 
ATOM     17  C   UNL     1       1.353   8.772  18.115  0.00  0.00    +0.000 A 
ATOM     18  C   UNL     1       0.332   9.742  18.044  0.00  0.00    +0.000 A 
ATOM     19  C   UNL     1      -0.233  10.281  19.205  0.00  0.00    +0.000 A 
ATOM     20  C   UNL     1       0.255   9.836  20.415  0.00  0.00    +0.000 A 
ATOM     21  O   UNL     1      -0.185  10.238  21.664  0.00  0.00    +0.000 OA
ATOM     22  C   UNL     1       0.606   9.459  22.523  0.00  0.00    +0.000 A 
ATOM     23  O   UNL     1       0.534   9.499  23.742  0.00  0.00    +0.000 OA
ATOM     24  N   UNL     1       1.457   8.649  21.810  0.00  0.00    +0.000 N 
ATOM     25  C   UNL     1       1.248   8.884  20.479  0.00  0.00    +0.000 A 
ATOM     26  H   UNL     1       2.108   8.004  22.226  0.00  0.00    +0.000 HD
ENDBRANCH  15  16
ENDBRANCH   1  15
TORSDOF 5
ENDMDL
MODEL 2
REMARK VINA RESULT:      -7.7      4.090      5.868
REMARK  Name = 
REMARK  8 active torsions:
REMARK  status: ('A' for Active; 'I' for Inactive)
REMARK    1  A    between atoms: C_1  and  C_2
REMARK    2  A    between atoms: C_2  and  C_3
REMARK    3  A    between atoms: C_2  and  C_4
REMARK    4  A    between atoms: C_2  and  O_5
REMARK    5  A    between atoms: O_5  and  C_6
REMARK    6  A    between atoms: C_12  and  C_13
REMARK    7  A    between atoms: C_13  and  O_15
REMARK    8  A    between atoms: O_15  and  C_16
REMARK                            x       y       z     vdW  Elec       q    Type
REMARK                         _______ _______ _______ _____ _____    ______ ____
ROOT
ATOM      1  C   UNL     1       4.445   5.274  17.857  0.00  0.00    +0.000 C 
ATOM      2  O   UNL     1       4.111   6.419  17.577  0.00  0.00    +0.000 OA
ENDROOT
BRANCH   1   9
ATOM      3  C   UNL     1       6.709   4.178  15.947  0.00  0.00    +0.000 C 
ATOM      4  O   UNL     1       5.943   3.223  15.963  0.00  0.00    +0.000 OA
ATOM      5  N   UNL     1       6.784   5.039  17.009  0.00  0.00    +0.000 N 
ATOM      6  C   UNL     1       7.610   6.214  17.163  0.00  0.00    +0.000 C 
ATOM      7  C   UNL     1       7.797   6.286  18.671  0.00  0.00    +0.000 C 
ATOM      8  C   UNL     1       6.476   5.763  19.241  0.00  0.00    +0.000 C 
ATOM      9  C   UNL     1       5.895   4.851  18.153  0.00  0.00    +0.000 C 
BRANCH   3  10
ATOM     10  O   UNL     1       7.520   4.510  14.911  0.00  0.00    +0.000 OA
BRANCH  10  12
ATOM     11  C   UNL     1       6.347   3.563  12.956  0.00  0.00    +0.000 C 
ATOM     12  C   UNL     1       6.910   4.824  13.630  0.00  0.00    +0.000 C 
ATOM     13  C   UNL     1       7.893   5.580  12.726  0.00  0.00    +0.000 C 
ATOM     14  C   UNL     1       5.727   5.759  13.933  0.00  0.00    +0.000 C 
ENDBRANCH  10  12
ENDBRANCH   3  10
ENDBRANCH   1   9
BRANCH   1  15
ATOM     15  O   UNL     1       3.597   4.167  17.888  0.00  0.00    +0.000 OA
BRANCH  15  16
ATOM     16  C   UNL     1       2.856   3.869  19.033  0.00  0.00    +0.000 A 
ATOM     17  C   UNL     1       1.547   4.280  19.280  0.00  0.00    +0.000 A 
ATOM     18  C   UNL     1       0.864   3.828  20.428  0.00  0.00    +0.000 A 
ATOM     19  C   UNL     1       1.483   2.973  21.347  0.00  0.00    +0.000 A 
ATOM     20  C   UNL     1       2.785   2.601  21.092  0.00  0.00    +0.000 A 
ATOM     21  O   UNL     1       3.556   1.756  21.871  0.00  0.00    +0.000 OA
ATOM     22  C   UNL     1       4.754   1.690  21.144  0.00  0.00    +0.000 A 
ATOM     23  O   UNL     1       5.725   1.031  21.484  0.00  0.00    +0.000 OA
ATOM     24  N   UNL     1       4.682   2.455  20.005  0.00  0.00    +0.000 N 
ATOM     25  C   UNL     1       3.446   3.040  19.966  0.00  0.00    +0.000 A 
ATOM     26  H   UNL     1       5.428   2.547  19.334  0.00  0.00    +0.000 HD
ENDBRANCH  15  16
ENDBRANCH   1  15
TORSDOF 5
ENDMDL
MODEL 3
REMARK VINA RESULT:      -7.5      2.536      6.580
REMARK  Name = 
REMARK  8 active torsions:
REMARK  status: ('A' for Active; 'I' for Inactive)
REMARK    1  A    between atoms: C_1  and  C_2
REMARK    2  A    between atoms: C_2  and  C_3
REMARK    3  A    between atoms: C_2  and  C_4
REMARK    4  A    between atoms: C_2  and  O_5
REMARK    5  A    between atoms: O_5  and  C_6
REMARK    6  A    between atoms: C_12  and  C_13
REMARK    7  A    between atoms: C_13  and  O_15
REMARK    8  A    between atoms: O_15  and  C_16
REMARK                            x       y       z     vdW  Elec       q    Type
REMARK                         _______ _______ _______ _____ _____    ______ ____
ROOT
ATOM      1  C   UNL     1       4.206   2.867  19.564  0.00  0.00    +0.000 C 
ATOM      2  O   UNL     1       4.997   2.318  20.322  0.00  0.00    +0.000 OA
ENDROOT
BRANCH   1   9
ATOM      3  C   UNL     1       2.346   5.413  19.369  0.00  0.00    +0.000 C 
ATOM      4  O   UNL     1       3.046   5.716  20.327  0.00  0.00    +0.000 OA
ATOM      5  N   UNL     1       2.089   4.101  19.070  0.00  0.00    +0.000 N 
ATOM      6  C   UNL     1       1.305   3.558  17.985  0.00  0.00    +0.000 C 
ATOM      7  C   UNL     1       0.808   2.244  18.567  0.00  0.00    +0.000 C 
ATOM      8  C   UNL     1       1.954   1.772  19.467  0.00  0.00    +0.000 C 
ATOM      9  C   UNL     1       2.708   3.047  19.869  0.00  0.00    +0.000 C 
BRANCH   3  10
ATOM     10  O   UNL     1       1.787   6.294  18.502  0.00  0.00    +0.000 OA
BRANCH  10  12
ATOM     11  C   UNL     1       3.709   7.765  18.013  0.00  0.00    +0.000 C 
ATOM     12  C   UNL     1       2.260   7.668  18.515  0.00  0.00    +0.000 C 
ATOM     13  C   UNL     1       2.080   8.297  19.904  0.00  0.00    +0.000 C 
ATOM     14  C   UNL     1       1.371   8.440  17.526  0.00  0.00    +0.000 C 
ENDBRANCH  10  12
ENDBRANCH   3  10
ENDBRANCH   1   9
BRANCH   1  15
ATOM     15  O   UNL     1       4.506   3.352  18.292  0.00  0.00    +0.000 OA
BRANCH  15  16
ATOM     16  C   UNL     1       5.486   4.331  18.115  0.00  0.00    +0.000 A 
ATOM     17  C   UNL     1       6.053   5.101  19.128  0.00  0.00    +0.000 A 
ATOM     18  C   UNL     1       7.112   5.988  18.840  0.00  0.00    +0.000 A 
ATOM     19  C   UNL     1       7.606   6.123  17.538  0.00  0.00    +0.000 A 
ATOM     20  C   UNL     1       7.012   5.368  16.551  0.00  0.00    +0.000 A 
ATOM     21  O   UNL     1       7.370   5.354  15.214  0.00  0.00    +0.000 OA
ATOM     22  C   UNL     1       6.488   4.402  14.680  0.00  0.00    +0.000 A 
ATOM     23  O   UNL     1       6.468   4.072  13.503  0.00  0.00    +0.000 OA
ATOM     24  N   UNL     1       5.665   3.891  15.654  0.00  0.00    +0.000 N 
ATOM     25  C   UNL     1       5.983   4.499  16.837  0.00  0.00    +0.000 A 
ATOM     26  H   UNL     1       4.960   3.190  15.493  0.00  0.00    +0.000 HD
ENDBRANCH  15  16
ENDBRANCH   1  15
TORSDOF 5
ENDMDL
MODEL 4
REMARK VINA RESULT:      -7.5      1.523      2.390
REMARK  Name = 
REMARK  8 active torsions:
REMARK  status: ('A' for Active; 'I' for Inactive)
REMARK    1  A    between atoms: C_1  and  C_2
REMARK    2  A    between atoms: C_2  and  C_3
REMARK    3  A    between atoms: C_2  and  C_4
REMARK    4  A    between atoms: C_2  and  O_5
REMARK    5  A    between atoms: O_5  and  C_6
REMARK    6  A    between atoms: C_12  and  C_13
REMARK    7  A    between atoms: C_13  and  O_15
REMARK    8  A    between atoms: O_15  and  C_16
REMARK                            x       y       z     vdW  Elec       q    Type
REMARK                         _______ _______ _______ _____ _____    ______ ____
ROOT
ATOM      1  C   UNL     1       2.388   5.495  19.918  0.00  0.00    +0.000 C 
ATOM      2  O   UNL     1       2.338   4.692  20.842  0.00  0.00    +0.000 OA
ENDROOT
BRANCH   1   9
ATOM      3  C   UNL     1       4.370   5.881  17.489  0.00  0.00    +0.000 C 
ATOM      4  O   UNL     1       4.030   7.040  17.690  0.00  0.00    +0.000 OA
ATOM      5  N   UNL     1       3.540   4.838  17.799  0.00  0.00    +0.000 N 
ATOM      6  C   UNL     1       3.773   3.420  17.645  0.00  0.00    +0.000 C 
ATOM      7  C   UNL     1       2.365   2.877  17.454  0.00  0.00    +0.000 C 
ATOM      8  C   UNL     1       1.490   3.780  18.327  0.00  0.00    +0.000 C 
ATOM      9  C   UNL     1       2.252   5.107  18.435  0.00  0.00    +0.000 C 
BRANCH   3  10
ATOM     10  O   UNL     1       5.571   5.498  16.987  0.00  0.00    +0.000 OA
BRANCH  10  12
ATOM     11  C   UNL     1       6.408   5.497  19.310  0.00  0.00    +0.000 C 
ATOM     12  C   UNL     1       6.750   5.658  17.821  0.00  0.00    +0.000 C 
ATOM     13  C   UNL     1       7.453   6.991  17.525  0.00  0.00    +0.000 C 
ATOM     14  C   UNL     1       7.710   4.520  17.436  0.00  0.00    +0.000 C 
ENDBRANCH  10  12
ENDBRANCH   3  10
ENDBRANCH   1   9
BRANCH   1  15
ATOM     15  O   UNL     1       2.642   6.860  20.043  0.00  0.00    +0.000 OA
BRANCH  15  16
ATOM     16  C   UNL     1       1.610   7.752  20.345  0.00  0.00    +0.000 A 
ATOM     17  C   UNL     1       0.678   7.597  21.369  0.00  0.00    +0.000 A 
ATOM     18  C   UNL     1      -0.255   8.617  21.643  0.00  0.00    +0.000 A 
ATOM     19  C   UNL     1      -0.276   9.797  20.891  0.00  0.00    +0.000 A 
ATOM     20  C   UNL     1       0.639   9.916  19.869  0.00  0.00    +0.000 A 
ATOM     21  O   UNL     1       0.782  11.007  19.029  0.00  0.00    +0.000 OA
ATOM     22  C   UNL     1       1.863  10.622  18.222  0.00  0.00    +0.000 A 
ATOM     23  O   UNL     1       2.331  11.315  17.330  0.00  0.00    +0.000 OA
ATOM     24  N   UNL     1       2.323   9.376  18.574  0.00  0.00    +0.000 N 
ATOM     25  C   UNL     1       1.554   8.919  19.608  0.00  0.00    +0.000 A 
ATOM     26  H   UNL     1       3.097   8.909  18.130  0.00  0.00    +0.000 HD
ENDBRANCH  15  16
ENDBRANCH   1  15
TORSDOF 5
ENDMDL
MODEL 5
REMARK VINA RESULT:      -7.5      2.194      6.554
REMARK  Name = 
REMARK  8 active torsions:
REMARK  status: ('A' for Active; 'I' for Inactive)
REMARK    1  A    between atoms: C_1  and  C_2
REMARK    2  A    between atoms: C_2  and  C_3
REMARK    3  A    between atoms: C_2  and  C_4
REMARK    4  A    between atoms: C_2  and  O_5
REMARK    5  A    between atoms: O_5  and  C_6
REMARK    6  A    between atoms: C_12  and  C_13
REMARK    7  A    between atoms: C_13  and  O_15
REMARK    8  A    between atoms: O_15  and  C_16
REMARK                            x       y       z     vdW  Elec       q    Type
REMARK                         _______ _______ _______ _____ _____    ______ ____
ROOT
ATOM      1  C   UNL     1       2.700   4.571  17.907  0.00  0.00    +0.000 C 
ATOM      2  O   UNL     1       1.783   3.944  17.391  0.00  0.00    +0.000 OA
ENDROOT
BRANCH   1   9
ATOM      3  C   UNL     1       2.036   6.480  20.335  0.00  0.00    +0.000 C 
ATOM      4  O   UNL     1       2.828   7.174  19.710  0.00  0.00    +0.000 OA
ATOM      5  N   UNL     1       2.093   5.113  20.270  0.00  0.00    +0.000 N 
ATOM      6  C   UNL     1       1.245   4.142  20.921  0.00  0.00    +0.000 C 
ATOM      7  C   UNL     1       2.173   2.946  21.071  0.00  0.00    +0.000 C 
ATOM      8  C   UNL     1       3.063   3.001  19.826  0.00  0.00    +0.000 C 
ATOM      9  C   UNL     1       3.074   4.474  19.397  0.00  0.00    +0.000 C 
BRANCH   3  10
ATOM     10  O   UNL     1       1.027   6.953  21.109  0.00  0.00    +0.000 OA
BRANCH  10  12
ATOM     11  C   UNL     1       1.010   9.061  19.824  0.00  0.00    +0.000 C 
ATOM     12  C   UNL     1       0.840   8.391  21.196  0.00  0.00    +0.000 C 
ATOM     13  C   UNL     1       1.763   9.000  22.262  0.00  0.00    +0.000 C 
ATOM     14  C   UNL     1      -0.614   8.611  21.647  0.00  0.00    +0.000 C 
ENDBRANCH  10  12
ENDBRANCH   3  10
ENDBRANCH   1   9
BRANCH   1  15
ATOM     15  O   UNL     1       3.501   5.514  17.264  0.00  0.00    +0.000 OA
BRANCH  15  16
ATOM     16  C   UNL     1       4.686   5.129  16.632  0.00  0.00    +0.000 A 
ATOM     17  C   UNL     1       4.842   4.016  15.810  0.00  0.00    +0.000 A 
ATOM     18  C   UNL     1       6.063   3.788  15.143  0.00  0.00    +0.000 A 
ATOM     19  C   UNL     1       7.145   4.661  15.299  0.00  0.00    +0.000 A 
ATOM     20  C   UNL     1       6.973   5.742  16.137  0.00  0.00    +0.000 A 
ATOM     21  O   UNL     1       7.916   6.719  16.405  0.00  0.00    +0.000 OA
ATOM     22  C   UNL     1       7.218   7.579  17.266  0.00  0.00    +0.000 A 
ATOM     23  O   UNL     1       7.691   8.598  17.747  0.00  0.00    +0.000 OA
ATOM     24  N   UNL     1       5.939   7.126  17.484  0.00  0.00    +0.000 N 
ATOM     25  C   UNL     1       5.776   5.964  16.781  0.00  0.00    +0.000 A 
ATOM     26  H   UNL     1       5.262   7.593  18.065  0.00  0.00    +0.000 HD
ENDBRANCH  15  16
ENDBRANCH   1  15
TORSDOF 5
ENDMDL
MODEL 6
REMARK VINA RESULT:      -7.4      0.893      1.309
REMARK  Name = 
REMARK  8 active torsions:
REMARK  status: ('A' for Active; 'I' for Inactive)
REMARK    1  A    between atoms: C_1  and  C_2
REMARK    2  A    between atoms: C_2  and  C_3
REMARK    3  A    between atoms: C_2  and  C_4
REMARK    4  A    between atoms: C_2  and  O_5
REMARK    5  A    between atoms: O_5  and  C_6
REMARK    6  A    between atoms: C_12  and  C_13
REMARK    7  A    between atoms: C_13  and  O_15
REMARK    8  A    between atoms: O_15  and  C_16
REMARK                            x       y       z     vdW  Elec       q    Type
REMARK                         _______ _______ _______ _____ _____    ______ ____
ROOT
ATOM      1  C   UNL     1       2.125   5.815  19.923  0.00  0.00    +0.000 C 
ATOM      2  O   UNL     1       1.827   5.397  21.035  0.00  0.00    +0.000 OA
ENDROOT
BRANCH   1   9
ATOM      3  C   UNL     1       4.225   5.227  17.637  0.00  0.00    +0.000 C 
ATOM      4  O   UNL     1       3.998   6.413  17.438  0.00  0.00    +0.000 OA
ATOM      5  N   UNL     1       3.280   4.414  18.205  0.00  0.00    +0.000 N 
ATOM      6  C   UNL     1       3.371   3.008  18.524  0.00  0.00    +0.000 C 
ATOM      7  C   UNL     1       1.923   2.555  18.420  0.00  0.00    +0.000 C 
ATOM      8  C   UNL     1       1.114   3.763  18.900  0.00  0.00    +0.000 C 
ATOM      9  C   UNL     1       2.005   4.983  18.633  0.00  0.00    +0.000 C 
BRANCH   3  10
ATOM     10  O   UNL     1       5.397   4.600  17.365  0.00  0.00    +0.000 OA
BRANCH  10  12
ATOM     11  C   UNL     1       6.769   6.640  17.142  0.00  0.00    +0.000 C 
ATOM     12  C   UNL     1       6.370   5.288  16.533  0.00  0.00    +0.000 C 
ATOM     13  C   UNL     1       5.858   5.425  15.092  0.00  0.00    +0.000 C 
ATOM     14  C   UNL     1       7.623   4.398  16.508  0.00  0.00    +0.000 C 
ENDBRANCH  10  12
ENDBRANCH   3  10
ENDBRANCH   1   9
BRANCH   1  15
ATOM     15  O   UNL     1       2.680   7.064  19.648  0.00  0.00    +0.000 OA
BRANCH  15  16
ATOM     16  C   UNL     1       1.861   8.168  19.403  0.00  0.00    +0.000 A 
ATOM     17  C   UNL     1       1.496   8.642  18.145  0.00  0.00    +0.000 A 
ATOM     18  C   UNL     1       0.577   9.706  18.023  0.00  0.00    +0.000 A 
ATOM     19  C   UNL     1       0.025  10.314  19.156  0.00  0.00    +0.000 A 
ATOM     20  C   UNL     1       0.421   9.843  20.388  0.00  0.00    +0.000 A 
ATOM     21  O   UNL     1      -0.023  10.305  21.616  0.00  0.00    +0.000 OA
ATOM     22  C   UNL     1       0.655   9.466  22.512  0.00  0.00    +0.000 A 
ATOM     23  O   UNL     1       0.542   9.530  23.728  0.00  0.00    +0.000 OA
ATOM     24  N   UNL     1       1.449   8.566  21.842  0.00  0.00    +0.000 N 
ATOM     25  C   UNL     1       1.313   8.800  20.502  0.00  0.00    +0.000 A 
ATOM     26  H   UNL     1       2.018   7.867  22.291  0.00  0.00    +0.000 HD
ENDBRANCH  15  16
ENDBRANCH   1  15
TORSDOF 5
ENDMDL
MODEL 7
REMARK VINA RESULT:      -7.4      0.797      1.107
REMARK  Name = 
REMARK  8 active torsions:
REMARK  status: ('A' for Active; 'I' for Inactive)
REMARK    1  A    between atoms: C_1  and  C_2
REMARK    2  A    between atoms: C_2  and  C_3
REMARK    3  A    between atoms: C_2  and  C_4
REMARK    4  A    between atoms: C_2  and  O_5
REMARK    5  A    between atoms: O_5  and  C_6
REMARK    6  A    between atoms: C_12  and  C_13
REMARK    7  A    between atoms: C_13  and  O_15
REMARK    8  A    between atoms: O_15  and  C_16
REMARK                            x       y       z     vdW  Elec       q    Type
REMARK                         _______ _______ _______ _____ _____    ______ ____
ROOT
ATOM      1  C   UNL     1       1.930   6.135  19.870  0.00  0.00    +0.000 C 
ATOM      2  O   UNL     1       1.413   5.639  20.863  0.00  0.00    +0.000 OA
ENDROOT
BRANCH   1   9
ATOM      3  C   UNL     1       4.535   5.931  18.094  0.00  0.00    +0.000 C 
ATOM      4  O   UNL     1       4.201   7.089  17.876  0.00  0.00    +0.000 OA
ATOM      5  N   UNL     1       3.606   4.979  18.420  0.00  0.00    +0.000 N 
ATOM      6  C   UNL     1       3.812   3.581  18.720  0.00  0.00    +0.000 C 
ATOM      7  C   UNL     1       2.495   2.957  18.287  0.00  0.00    +0.000 C 
ATOM      8  C   UNL     1       1.447   4.028  18.603  0.00  0.00    +0.000 C 
ATOM      9  C   UNL     1       2.204   5.362  18.567  0.00  0.00    +0.000 C 
BRANCH   3  10
ATOM     10  O   UNL     1       5.811   5.471  18.075  0.00  0.00    +0.000 OA
BRANCH  10  12
ATOM     11  C   UNL     1       5.660   5.822  15.636  0.00  0.00    +0.000 C 
ATOM     12  C   UNL     1       6.579   5.616  16.850  0.00  0.00    +0.000 C 
ATOM     13  C   UNL     1       7.539   4.433  16.662  0.00  0.00    +0.000 C 
ATOM     14  C   UNL     1       7.423   6.890  17.019  0.00  0.00    +0.000 C 
ENDBRANCH  10  12
ENDBRANCH   3  10
ENDBRANCH   1   9
BRANCH   1  15
ATOM     15  O   UNL     1       2.413   7.440  19.773  0.00  0.00    +0.000 OA
BRANCH  15  16
ATOM     16  C   UNL     1       1.542   8.508  19.550  0.00  0.00    +0.000 A 
ATOM     17  C   UNL     1       1.158   8.993  18.302  0.00  0.00    +0.000 A 
ATOM     18  C   UNL     1       0.188  10.012  18.202  0.00  0.00    +0.000 A 
ATOM     19  C   UNL     1      -0.399  10.565  19.346  0.00  0.00    +0.000 A 
ATOM     20  C   UNL     1       0.015  10.084  20.569  0.00  0.00    +0.000 A 
ATOM     21  O   UNL     1      -0.457  10.493  21.804  0.00  0.00    +0.000 OA
ATOM     22  C   UNL     1       0.259   9.667  22.684  0.00  0.00    +0.000 A 
ATOM     23  O   UNL     1       0.138   9.697  23.900  0.00  0.00    +0.000 OA
ATOM     24  N   UNL     1       1.100   8.825  21.997  0.00  0.00    +0.000 N 
ATOM     25  C   UNL     1       0.958   9.084  20.662  0.00  0.00    +0.000 A 
ATOM     26  H   UNL     1       1.701   8.145  22.431  0.00  0.00    +0.000 HD
ENDBRANCH  15  16
ENDBRANCH   1  15
TORSDOF 5
ENDMDL
MODEL 8
REMARK VINA RESULT:      -7.4      1.387      2.419
REMARK  Name = 
REMARK  8 active torsions:
REMARK  status: ('A' for Active; 'I' for Inactive)
REMARK    1  A    between atoms: C_1  and  C_2
REMARK    2  A    between atoms: C_2  and  C_3
REMARK    3  A    between atoms: C_2  and  C_4
REMARK    4  A    between atoms: C_2  and  O_5
REMARK    5  A    between atoms: O_5  and  C_6
REMARK    6  A    between atoms: C_12  and  C_13
REMARK    7  A    between atoms: C_13  and  O_15
REMARK    8  A    between atoms: O_15  and  C_16
REMARK                            x       y       z     vdW  Elec       q    Type
REMARK                         _______ _______ _______ _____ _____    ______ ____
ROOT
ATOM      1  C   UNL     1       2.370   6.316  19.572  0.00  0.00    +0.000 C 
ATOM      2  O   UNL     1       2.528   5.634  20.577  0.00  0.00    +0.000 OA
ENDROOT
BRANCH   1   9
ATOM      3  C   UNL     1       4.522   6.159  17.265  0.00  0.00    +0.000 C 
ATOM      4  O   UNL     1       4.297   7.363  17.284  0.00  0.00    +0.000 OA
ATOM      5  N   UNL     1       3.566   5.257  17.650  0.00  0.00    +0.000 N 
ATOM      6  C   UNL     1       3.653   3.816  17.704  0.00  0.00    +0.000 C 
ATOM      7  C   UNL     1       2.210   3.393  17.485  0.00  0.00    +0.000 C 
ATOM      8  C   UNL     1       1.387   4.492  18.163  0.00  0.00    +0.000 C 
ATOM      9  C   UNL     1       2.280   5.739  18.148  0.00  0.00    +0.000 C 
BRANCH   3  10
ATOM     10  O   UNL     1       5.702   5.592  16.908  0.00  0.00    +0.000 OA
BRANCH  10  12
ATOM     11  C   UNL     1       6.367   5.501  19.283  0.00  0.00    +0.000 C 
ATOM     12  C   UNL     1       6.821   5.692  17.828  0.00  0.00    +0.000 C 
ATOM     13  C   UNL     1       7.583   7.010  17.623  0.00  0.00    +0.000 C 
ATOM     14  C   UNL     1       7.772   4.535  17.480  0.00  0.00    +0.000 C 
ENDBRANCH  10  12
ENDBRANCH   3  10
ENDBRANCH   1   9
BRANCH   1  15
ATOM     15  O   UNL     1       2.315   7.709  19.538  0.00  0.00    +0.000 OA
BRANCH  15  16
ATOM     16  C   UNL     1       1.469   8.410  20.400  0.00  0.00    +0.000 A 
ATOM     17  C   UNL     1       1.533   8.389  21.792  0.00  0.00    +0.000 A 
ATOM     18  C   UNL     1       0.690   9.222  22.556  0.00  0.00    +0.000 A 
ATOM     19  C   UNL     1      -0.233  10.074  21.940  0.00  0.00    +0.000 A 
ATOM     20  C   UNL     1      -0.293  10.058  20.564  0.00  0.00    +0.000 A 
ATOM     21  O   UNL     1      -1.127  10.836  19.779  0.00  0.00    +0.000 OA
ATOM     22  C   UNL     1      -0.753  10.456  18.481  0.00  0.00    +0.000 A 
ATOM     23  O   UNL     1      -1.249  10.917  17.464  0.00  0.00    +0.000 OA
ATOM     24  N   UNL     1       0.244   9.511  18.511  0.00  0.00    +0.000 N 
ATOM     25  C   UNL     1       0.537   9.248  19.821  0.00  0.00    +0.000 A 
ATOM     26  H   UNL     1       0.666   9.103  17.693  0.00  0.00    +0.000 HD
ENDBRANCH  15  16
ENDBRANCH   1  15
TORSDOF 5
ENDMDL
MODEL 9
REMARK VINA RESULT:      -7.4      2.275      6.305
REMARK  Name = 
REMARK  8 active torsions:
REMARK  status: ('A' for Active; 'I' for Inactive)
REMARK    1  A    between atoms: C_1  and  C_2
REMARK    2  A    between atoms: C_2  and  C_3
REMARK    3  A    between atoms: C_2  and  C_4
REMARK    4  A    between atoms: C_2  and  O_5
REMARK    5  A    between atoms: O_5  and  C_6
REMARK    6  A    between atoms: C_12  and  C_13
REMARK    7  A    between atoms: C_13  and  O_15
REMARK    8  A    between atoms: O_15  and  C_16
REMARK                            x       y       z     vdW  Elec       q    Type
REMARK                         _______ _______ _______ _____ _____    ______ ____
ROOT
ATOM      1  C   UNL     1       2.997   3.339  17.837  0.00  0.00    +0.000 C 
ATOM      2  O   UNL     1       2.021   3.582  17.137  0.00  0.00    +0.000 OA
ENDROOT
BRANCH   1   9
ATOM      3  C   UNL     1       3.099   6.074  19.414  0.00  0.00    +0.000 C 
ATOM      4  O   UNL     1       4.211   6.065  18.902  0.00  0.00    +0.000 OA
ATOM      5  N   UNL     1       2.448   4.905  19.706  0.00  0.00    +0.000 N 
ATOM      6  C   UNL     1       1.141   4.720  20.293  0.00  0.00    +0.000 C 
ATOM      7  C   UNL     1       1.286   3.381  20.999  0.00  0.00    +0.000 C 
ATOM      8  C   UNL     1       2.233   2.581  20.101  0.00  0.00    +0.000 C 
ATOM      9  C   UNL     1       3.063   3.629  19.347  0.00  0.00    +0.000 C 
BRANCH   3  10
ATOM     10  O   UNL     1       2.387   7.189  19.714  0.00  0.00    +0.000 OA
BRANCH  10  12
ATOM     11  C   UNL     1       3.280   8.539  17.850  0.00  0.00    +0.000 C 
ATOM     12  C   UNL     1       2.035   8.095  18.633  0.00  0.00    +0.000 C 
ATOM     13  C   UNL     1       1.220   9.285  19.159  0.00  0.00    +0.000 C 
ATOM     14  C   UNL     1       1.140   7.294  17.673  0.00  0.00    +0.000 C 
ENDBRANCH  10  12
ENDBRANCH   3  10
ENDBRANCH   1   9
BRANCH   1  15
ATOM     15  O   UNL     1       4.214   2.832  17.384  0.00  0.00    +0.000 OA
BRANCH  15  16
ATOM     16  C   UNL     1       5.060   3.611  16.592  0.00  0.00    +0.000 A 
ATOM     17  C   UNL     1       4.904   3.846  15.228  0.00  0.00    +0.000 A 
ATOM     18  C   UNL     1       5.765   4.737  14.555  0.00  0.00    +0.000 A 
ATOM     19  C   UNL     1       6.798   5.393  15.234  0.00  0.00    +0.000 A 
ATOM     20  C   UNL     1       6.946   5.125  16.578  0.00  0.00    +0.000 A 
ATOM     21  O   UNL     1       7.894   5.684  17.417  0.00  0.00    +0.000 OA
ATOM     22  C   UNL     1       7.574   5.106  18.655  0.00  0.00    +0.000 A 
ATOM     23  O   UNL     1       8.174   5.338  19.694  0.00  0.00    +0.000 OA
ATOM     24  N   UNL     1       6.498   4.259  18.540  0.00  0.00    +0.000 N 
ATOM     25  C   UNL     1       6.098   4.259  17.232  0.00  0.00    +0.000 A 
ATOM     26  H   UNL     1       6.096   3.744  19.306  0.00  0.00    +0.000 HD
ENDBRANCH  15  16
ENDBRANCH   1  15
TORSDOF 5
ENDMDL
