MODEL 1
REMARK VINA RESULT:      -6.5      0.000      0.000
REMARK  Name = 
REMARK  3 active torsions:
REMARK  status: ('A' for Active; 'I' for Inactive)
REMARK    1  A    between atoms: C_2  and  O_3
REMARK    2  A    between atoms: C_2  and  C_11
REMARK    3  A    between atoms: O_3  and  C_4
REMARK                            x       y       z     vdW  Elec       q    Type
REMARK                         _______ _______ _______ _____ _____    ______ ____
ROOT
ATOM      1  O   UNL     1       4.957   1.842  20.157  0.00  0.00    +0.000 OA
ATOM      2  C   UNL     1       4.288   2.785  19.753  0.00  0.00    +0.000 C 
ENDROOT
BRANCH   2   3
ATOM      3  C   UNL     1       2.849   2.782  19.638  0.00  0.00    +0.000 A 
ATOM      4  C   UNL     1       1.892   3.556  20.275  0.00  0.00    +0.000 A 
ATOM      5  C   UNL     1       0.626   3.212  19.751  0.00  0.00    +0.000 A 
ATOM      6  C   UNL     1       0.830   2.221  18.818  0.00  0.00    +0.000 A 
ATOM      7  N   UNL     1       2.171   1.945  18.778  0.00  0.00    +0.000 N 
ATOM      8  H   UNL     1       2.616   1.256  18.183  0.00  0.00    +0.000 HD
ENDBRANCH   2   3
BRANCH   2   9
ATOM      9  O   UNL     1       4.779   4.008  19.297  0.00  0.00    +0.000 OA
BRANCH   9  10
ATOM     10  C   UNL     1       5.541   4.182  18.127  0.00  0.00    +0.000 A 
ATOM     11  C   UNL     1       6.825   4.687  18.304  0.00  0.00    +0.000 A 
ATOM     12  N   UNL     1       7.662   4.990  17.286  0.00  0.00    +0.000 NA
ATOM     13  C   UNL     1       7.182   4.781  16.035  0.00  0.00    +0.000 A 
ATOM     14  C   UNL     1       5.912   4.283  15.768  0.00  0.00    +0.000 A 
ATOM     15 CL   UNL     1       5.383   4.061  14.150  0.00  0.00    +0.000 Cl
ATOM     16  C   UNL     1       5.070   3.982  16.835  0.00  0.00    +0.000 A 
ENDBRANCH   9  10
ENDBRANCH   2   9
TORSDOF 3
ENDMDL
MODEL 2
REMARK VINA RESULT:      -6.3      1.090      1.174
REMARK  Name = 
REMARK  3 active torsions:
REMARK  status: ('A' for Active; 'I' for Inactive)
REMARK    1  A    between atoms: C_2  and  O_3
REMARK    2  A    between atoms: C_2  and  C_11
REMARK    3  A    between atoms: O_3  and  C_4
REMARK                            x       y       z     vdW  Elec       q    Type
REMARK                         _______ _______ _______ _____ _____    ______ ____
ROOT
ATOM      1  O   UNL     1       5.332   3.307  19.537  0.00  0.00    +0.000 OA
ATOM      2  C   UNL     1       4.378   3.822  18.967  0.00  0.00    +0.000 C 
ENDROOT
BRANCH   2   3
ATOM      3  C   UNL     1       2.997   3.472  19.197  0.00  0.00    +0.000 A 
ATOM      4  C   UNL     1       2.101   3.917  20.156  0.00  0.00    +0.000 A 
ATOM      5  C   UNL     1       0.846   3.322  19.898  0.00  0.00    +0.000 A 
ATOM      6  C   UNL     1       1.002   2.509  18.798  0.00  0.00    +0.000 A 
ATOM      7  N   UNL     1       2.311   2.581  18.400  0.00  0.00    +0.000 N 
ATOM      8  H   UNL     1       2.719   2.086  17.615  0.00  0.00    +0.000 HD
ENDBRANCH   2   3
BRANCH   2   9
ATOM      9  O   UNL     1       4.442   4.802  17.978  0.00  0.00    +0.000 OA
BRANCH   9  10
ATOM     10  C   UNL     1       5.323   4.779  16.880  0.00  0.00    +0.000 A 
ATOM     11  C   UNL     1       6.484   5.534  17.014  0.00  0.00    +0.000 A 
ATOM     12  N   UNL     1       7.399   5.687  16.030  0.00  0.00    +0.000 NA
ATOM     13  C   UNL     1       7.129   5.060  14.859  0.00  0.00    +0.000 A 
ATOM     14  C   UNL     1       5.993   4.290  14.638  0.00  0.00    +0.000 A 
ATOM     15 CL   UNL     1       5.726   3.540  13.117  0.00  0.00    +0.000 Cl
ATOM     16  C   UNL     1       5.066   4.151  15.668  0.00  0.00    +0.000 A 
ENDBRANCH   9  10
ENDBRANCH   2   9
TORSDOF 3
ENDMDL
MODEL 3
REMARK VINA RESULT:      -6.3      1.790      2.131
REMARK  Name = 
REMARK  3 active torsions:
REMARK  status: ('A' for Active; 'I' for Inactive)
REMARK    1  A    between atoms: C_2  and  O_3
REMARK    2  A    between atoms: C_2  and  C_11
REMARK    3  A    between atoms: O_3  and  C_4
REMARK                            x       y       z     vdW  Elec       q    Type
REMARK                         _______ _______ _______ _____ _____    ______ ____
ROOT
ATOM      1  O   UNL     1       2.054   2.912  17.045  0.00  0.00    +0.000 OA
ATOM      2  C   UNL     1       2.485   3.600  17.962  0.00  0.00    +0.000 C 
ENDROOT
BRANCH   2   3
ATOM      3  C   UNL     1       2.143   3.423  19.353  0.00  0.00    +0.000 A 
ATOM      4  C   UNL     1       1.389   2.443  19.979  0.00  0.00    +0.000 A 
ATOM      5  C   UNL     1       1.421   2.682  21.371  0.00  0.00    +0.000 A 
ATOM      6  C   UNL     1       2.178   3.814  21.570  0.00  0.00    +0.000 A 
ATOM      7  N   UNL     1       2.584   4.273  20.345  0.00  0.00    +0.000 N 
ATOM      8  H   UNL     1       3.155   5.094  20.180  0.00  0.00    +0.000 HD
ENDBRANCH   2   3
BRANCH   2   9
ATOM      9  O   UNL     1       3.343   4.692  17.839  0.00  0.00    +0.000 OA
BRANCH   9  10
ATOM     10  C   UNL     1       4.696   4.612  17.458  0.00  0.00    +0.000 A 
ATOM     11  C   UNL     1       5.619   4.538  18.495  0.00  0.00    +0.000 A 
ATOM     12  N   UNL     1       6.959   4.535  18.312  0.00  0.00    +0.000 NA
ATOM     13  C   UNL     1       7.386   4.617  17.027  0.00  0.00    +0.000 A 
ATOM     14  C   UNL     1       6.534   4.698  15.933  0.00  0.00    +0.000 A 
ATOM     15 CL   UNL     1       7.165   4.810  14.340  0.00  0.00    +0.000 Cl
ATOM     16  C   UNL     1       5.159   4.702  16.151  0.00  0.00    +0.000 A 
ENDBRANCH   9  10
ENDBRANCH   2   9
TORSDOF 3
ENDMDL
MODEL 4
REMARK VINA RESULT:      -6.3      2.346      2.765
REMARK  Name = 
REMARK  3 active torsions:
REMARK  status: ('A' for Active; 'I' for Inactive)
REMARK    1  A    between atoms: C_2  and  O_3
REMARK    2  A    between atoms: C_2  and  C_11
REMARK    3  A    between atoms: O_3  and  C_4
REMARK                            x       y       z     vdW  Elec       q    Type
REMARK                         _______ _______ _______ _____ _____    ______ ____
ROOT
ATOM      1  O   UNL     1       2.084   2.890  17.036  0.00  0.00    +0.000 OA
ATOM      2  C   UNL     1       2.488   3.607  17.943  0.00  0.00    +0.000 C 
ENDROOT
BRANCH   2   3
ATOM      3  C   UNL     1       2.233   3.381  19.345  0.00  0.00    +0.000 A 
ATOM      4  C   UNL     1       1.092   3.599  20.102  0.00  0.00    +0.000 A 
ATOM      5  C   UNL     1       1.337   3.137  21.413  0.00  0.00    +0.000 A 
ATOM      6  C   UNL     1       2.628   2.662  21.441  0.00  0.00    +0.000 A 
ATOM      7  N   UNL     1       3.173   2.842  20.197  0.00  0.00    +0.000 N 
ATOM      8  H   UNL     1       4.114   2.586  19.921  0.00  0.00    +0.000 HD
ENDBRANCH   2   3
BRANCH   2   9
ATOM      9  O   UNL     1       3.227   4.780  17.797  0.00  0.00    +0.000 OA
BRANCH   9  10
ATOM     10  C   UNL     1       4.624   4.836  17.636  0.00  0.00    +0.000 A 
ATOM     11  C   UNL     1       5.124   4.298  16.455  0.00  0.00    +0.000 A 
ATOM     12  N   UNL     1       6.443   4.197  16.173  0.00  0.00    +0.000 NA
ATOM     13  C   UNL     1       7.294   4.653  17.125  0.00  0.00    +0.000 A 
ATOM     14  C   UNL     1       6.881   5.201  18.333  0.00  0.00    +0.000 A 
ATOM     15 CL   UNL     1       8.031   5.742  19.486  0.00  0.00    +0.000 Cl
ATOM     16  C   UNL     1       5.517   5.290  18.599  0.00  0.00    +0.000 A 
ENDBRANCH   9  10
ENDBRANCH   2   9
TORSDOF 3
ENDMDL
MODEL 5
REMARK VINA RESULT:      -6.3      2.785      5.572
REMARK  Name = 
REMARK  3 active torsions:
REMARK  status: ('A' for Active; 'I' for Inactive)
REMARK    1  A    between atoms: C_2  and  O_3
REMARK    2  A    between atoms: C_2  and  C_11
REMARK    3  A    between atoms: O_3  and  C_4
REMARK                            x       y       z     vdW  Elec       q    Type
REMARK                         _______ _______ _______ _____ _____    ______ ____
ROOT
ATOM      1  O   UNL     1       6.380   4.838  19.225  0.00  0.00    +0.000 OA
ATOM      2  C   UNL     1       5.497   4.988  18.389  0.00  0.00    +0.000 C 
ENDROOT
BRANCH   2   3
ATOM      3  C   UNL     1       5.680   4.844  16.966  0.00  0.00    +0.000 A 
ATOM      4  C   UNL     1       5.606   5.780  15.947  0.00  0.00    +0.000 A 
ATOM      5  C   UNL     1       5.946   5.142  14.734  0.00  0.00    +0.000 A 
ATOM      6  C   UNL     1       6.204   3.822  15.029  0.00  0.00    +0.000 A 
ATOM      7  N   UNL     1       6.010   3.644  16.373  0.00  0.00    +0.000 N 
ATOM      8  H   UNL     1       6.125   2.772  16.877  0.00  0.00    +0.000 HD
ENDBRANCH   2   3
BRANCH   2   9
ATOM      9  O   UNL     1       4.177   5.359  18.644  0.00  0.00    +0.000 OA
BRANCH   9  10
ATOM     10  C   UNL     1       3.129   4.461  18.921  0.00  0.00    +0.000 A 
ATOM     11  C   UNL     1       2.301   4.141  17.851  0.00  0.00    +0.000 A 
ATOM     12  N   UNL     1       1.203   3.358  17.956  0.00  0.00    +0.000 NA
ATOM     13  C   UNL     1       0.924   2.884  19.195  0.00  0.00    +0.000 A 
ATOM     14  C   UNL     1       1.695   3.157  20.319  0.00  0.00    +0.000 A 
ATOM     15 CL   UNL     1       1.259   2.521  21.853  0.00  0.00    +0.000 Cl
ATOM     16  C   UNL     1       2.818   3.967  20.182  0.00  0.00    +0.000 A 
ENDBRANCH   9  10
ENDBRANCH   2   9
TORSDOF 3
ENDMDL
MODEL 6
REMARK VINA RESULT:      -6.2      2.546      2.988
REMARK  Name = 
REMARK  3 active torsions:
REMARK  status: ('A' for Active; 'I' for Inactive)
REMARK    1  A    between atoms: C_2  and  O_3
REMARK    2  A    between atoms: C_2  and  C_11
REMARK    3  A    between atoms: O_3  and  C_4
REMARK                            x       y       z     vdW  Elec       q    Type
REMARK                         _______ _______ _______ _____ _____    ______ ____
ROOT
ATOM      1  O   UNL     1       2.308   6.813  18.086  0.00  0.00    +0.000 OA
ATOM      2  C   UNL     1       2.649   5.638  18.045  0.00  0.00    +0.000 C 
ENDROOT
BRANCH   2   3
ATOM      3  C   UNL     1       1.975   4.563  18.731  0.00  0.00    +0.000 A 
ATOM      4  C   UNL     1       1.541   4.461  20.044  0.00  0.00    +0.000 A 
ATOM      5  C   UNL     1       0.867   3.229  20.193  0.00  0.00    +0.000 A 
ATOM      6  C   UNL     1       0.917   2.590  18.975  0.00  0.00    +0.000 A 
ATOM      7  N   UNL     1       1.615   3.387  18.107  0.00  0.00    +0.000 N 
ATOM      8  H   UNL     1       1.813   3.174  17.136  0.00  0.00    +0.000 HD
ENDBRANCH   2   3
BRANCH   2   9
ATOM      9  O   UNL     1       3.756   5.126  17.370  0.00  0.00    +0.000 OA
BRANCH   9  10
ATOM     10  C   UNL     1       5.096   5.433  17.674  0.00  0.00    +0.000 A 
ATOM     11  C   UNL     1       5.798   4.464  18.382  0.00  0.00    +0.000 A 
ATOM     12  N   UNL     1       7.067   4.627  18.824  0.00  0.00    +0.000 NA
ATOM     13  C   UNL     1       7.648   5.819  18.544  0.00  0.00    +0.000 A 
ATOM     14  C   UNL     1       7.018   6.842  17.846  0.00  0.00    +0.000 A 
ATOM     15 CL   UNL     1       7.830   8.325  17.547  0.00  0.00    +0.000 Cl
ATOM     16  C   UNL     1       5.712   6.649  17.405  0.00  0.00    +0.000 A 
ENDBRANCH   9  10
ENDBRANCH   2   9
TORSDOF 3
ENDMDL
MODEL 7
REMARK VINA RESULT:      -6.2      1.861      2.218
REMARK  Name = 
REMARK  3 active torsions:
REMARK  status: ('A' for Active; 'I' for Inactive)
REMARK    1  A    between atoms: C_2  and  O_3
REMARK    2  A    between atoms: C_2  and  C_11
REMARK    3  A    between atoms: O_3  and  C_4
REMARK                            x       y       z     vdW  Elec       q    Type
REMARK                         _______ _______ _______ _____ _____    ______ ____
ROOT
ATOM      1  O   UNL     1       5.759   4.045  19.327  0.00  0.00    +0.000 OA
ATOM      2  C   UNL     1       4.812   4.670  18.867  0.00  0.00    +0.000 C 
ENDROOT
BRANCH   2   3
ATOM      3  C   UNL     1       3.479   4.665  19.418  0.00  0.00    +0.000 A 
ATOM      4  C   UNL     1       2.437   3.765  19.253  0.00  0.00    +0.000 A 
ATOM      5  C   UNL     1       1.364   4.175  20.074  0.00  0.00    +0.000 A 
ATOM      6  C   UNL     1       1.760   5.329  20.712  0.00  0.00    +0.000 A 
ATOM      7  N   UNL     1       3.026   5.635  20.286  0.00  0.00    +0.000 N 
ATOM      8  H   UNL     1       3.574   6.433  20.586  0.00  0.00    +0.000 HD
ENDBRANCH   2   3
BRANCH   2   9
ATOM      9  O   UNL     1       4.829   5.463  17.720  0.00  0.00    +0.000 OA
BRANCH   9  10
ATOM     10  C   UNL     1       5.554   5.171  16.550  0.00  0.00    +0.000 A 
ATOM     11  C   UNL     1       6.836   5.706  16.477  0.00  0.00    +0.000 A 
ATOM     12  N   UNL     1       7.639   5.590  15.395  0.00  0.00    +0.000 NA
ATOM     13  C   UNL     1       7.126   4.912  14.340  0.00  0.00    +0.000 A 
ATOM     14  C   UNL     1       5.855   4.349  14.326  0.00  0.00    +0.000 A 
ATOM     15 CL   UNL     1       5.283   3.516  12.939  0.00  0.00    +0.000 Cl
ATOM     16  C   UNL     1       5.048   4.485  15.452  0.00  0.00    +0.000 A 
ENDBRANCH   9  10
ENDBRANCH   2   9
TORSDOF 3
ENDMDL
MODEL 8
REMARK VINA RESULT:      -6.2      1.986      2.407
REMARK  Name = 
REMARK  3 active torsions:
REMARK  status: ('A' for Active; 'I' for Inactive)
REMARK    1  A    between atoms: C_2  and  O_3
REMARK    2  A    between atoms: C_2  and  C_11
REMARK    3  A    between atoms: O_3  and  C_4
REMARK                            x       y       z     vdW  Elec       q    Type
REMARK                         _______ _______ _______ _____ _____    ______ ____
ROOT
ATOM      1  O   UNL     1       2.216   6.384  18.192  0.00  0.00    +0.000 OA
ATOM      2  C   UNL     1       2.842   5.738  19.023  0.00  0.00    +0.000 C 
ENDROOT
BRANCH   2   3
ATOM      3  C   UNL     1       2.271   4.722  19.874  0.00  0.00    +0.000 A 
ATOM      4  C   UNL     1       1.266   3.799  19.628  0.00  0.00    +0.000 A 
ATOM      5  C   UNL     1       1.134   2.975  20.767  0.00  0.00    +0.000 A 
ATOM      6  C   UNL     1       2.047   3.420  21.697  0.00  0.00    +0.000 A 
ATOM      7  N   UNL     1       2.706   4.494  21.162  0.00  0.00    +0.000 N 
ATOM      8  H   UNL     1       3.436   5.029  21.620  0.00  0.00    +0.000 HD
ENDBRANCH   2   3
BRANCH   2   9
ATOM      9  O   UNL     1       4.194   5.882  19.330  0.00  0.00    +0.000 OA
BRANCH   9  10
ATOM     10  C   UNL     1       5.252   5.337  18.578  0.00  0.00    +0.000 A 
ATOM     11  C   UNL     1       6.513   5.404  19.162  0.00  0.00    +0.000 A 
ATOM     12  N   UNL     1       7.649   5.002  18.548  0.00  0.00    +0.000 NA
ATOM     13  C   UNL     1       7.508   4.517  17.289  0.00  0.00    +0.000 A 
ATOM     14  C   UNL     1       6.289   4.419  16.630  0.00  0.00    +0.000 A 
ATOM     15 CL   UNL     1       6.207   3.802  15.030  0.00  0.00    +0.000 Cl
ATOM     16  C   UNL     1       5.136   4.843  17.285  0.00  0.00    +0.000 A 
ENDBRANCH   9  10
ENDBRANCH   2   9
TORSDOF 3
ENDMDL
MODEL 9
REMARK VINA RESULT:      -6.2      1.905      2.417
REMARK  Name = 
REMARK  3 active torsions:
REMARK  status: ('A' for Active; 'I' for Inactive)
REMARK    1  A    between atoms: C_2  and  O_3
REMARK    2  A    between atoms: C_2  and  C_11
REMARK    3  A    between atoms: O_3  and  C_4
REMARK                            x       y       z     vdW  Elec       q    Type
REMARK                         _______ _______ _______ _____ _____    ______ ____
ROOT
ATOM      1  O   UNL     1       2.341   6.304  18.186  0.00  0.00    +0.000 OA
ATOM      2  C   UNL     1       2.536   5.105  18.344  0.00  0.00    +0.000 C 
ENDROOT
BRANCH   2   3
ATOM      3  C   UNL     1       2.102   4.348  19.493  0.00  0.00    +0.000 A 
ATOM      4  C   UNL     1       1.141   3.356  19.610  0.00  0.00    +0.000 A 
ATOM      5  C   UNL     1       1.157   2.880  20.939  0.00  0.00    +0.000 A 
ATOM      6  C   UNL     1       2.113   3.602  21.617  0.00  0.00    +0.000 A 
ATOM      7  N   UNL     1       2.657   4.508  20.745  0.00  0.00    +0.000 N 
ATOM      8  H   UNL     1       3.386   5.177  20.965  0.00  0.00    +0.000 HD
ENDBRANCH   2   3
BRANCH   2   9
ATOM      9  O   UNL     1       3.234   4.263  17.479  0.00  0.00    +0.000 OA
BRANCH   9  10
ATOM     10  C   UNL     1       4.616   4.341  17.223  0.00  0.00    +0.000 A 
ATOM     11  C   UNL     1       5.444   4.344  18.341  0.00  0.00    +0.000 A 
ATOM     12  N   UNL     1       6.787   4.492  18.282  0.00  0.00    +0.000 NA
ATOM     13  C   UNL     1       7.317   4.650  17.044  0.00  0.00    +0.000 A 
ATOM     14  C   UNL     1       6.564   4.663  15.876  0.00  0.00    +0.000 A 
ATOM     15 CL   UNL     1       7.319   4.880  14.350  0.00  0.00    +0.000 Cl
ATOM     16  C   UNL     1       5.183   4.511  15.966  0.00  0.00    +0.000 A 
ENDBRANCH   9  10
ENDBRANCH   2   9
TORSDOF 3
ENDMDL
