MODEL 1
REMARK VINA RESULT:      -7.8      0.000      0.000
REMARK  Name = 
REMARK  7 active torsions:
REMARK  status: ('A' for Active; 'I' for Inactive)
REMARK    1  A    between atoms: C_1  and  C_2
REMARK    2  A    between atoms: C_3  and  C_4
REMARK    3  A    between atoms: C_4  and  N_5
REMARK    4  A    between atoms: C_11  and  N_12
REMARK    5  A    between atoms: N_19  and  C_20
REMARK    6  A    between atoms: C_20  and  C_21
REMARK    7  A    between atoms: C_24  and  C_25
REMARK                            x       y       z     vdW  Elec       q    Type
REMARK                         _______ _______ _______ _____ _____    ______ ____
ROOT
ATOM      1  N   UNL     1       2.042   7.382  19.080  0.00  0.00    +0.000 N 
ATOM      2  C   UNL     1       1.890   6.456  20.101  0.00  0.00    +0.000 A 
ATOM      3  N   UNL     1       2.369   5.156  20.004  0.00  0.00    +0.000 N 
ATOM      4  C   UNL     1       1.612   4.033  20.561  0.00  0.00    +0.000 C 
ATOM      5  C   UNL     1       2.591   3.069  21.260  0.00  0.00    +0.000 C 
ATOM      6  C   UNL     1       3.738   2.595  20.354  0.00  0.00    +0.000 C 
ATOM      7  C   UNL     1       4.430   3.784  19.704  0.00  0.00    +0.000 C 
ATOM      8  C   UNL     1       3.384   4.683  19.034  0.00  0.00    +0.000 C 
ATOM      9  N   UNL     1       1.233   7.067  21.097  0.00  0.00    +0.000 NA
ATOM     10  C   UNL     1       1.026   8.379  20.698  0.00  0.00    +0.000 A 
ATOM     11  C   UNL     1       1.512   8.586  19.441  0.00  0.00    +0.000 A 
ATOM     12  C   UNL     1       1.443   9.834  18.722  0.00  0.00    +0.000 C 
ATOM     13  O   UNL     1       1.952  10.012  17.616  0.00  0.00    +0.000 OA
ATOM     14  N   UNL     1       0.791  10.855  19.398  0.00  0.00    +0.000 N 
ATOM     15  C   UNL     1       0.326  10.638  20.681  0.00  0.00    +0.000 C 
ATOM     16  N   UNL     1      -0.234  11.602  21.364  0.00  0.00    +0.000 NA
ATOM     17  C   UNL     1      -0.490  10.993  22.705  0.00  0.00    +0.000 C 
ATOM     18  C   UNL     1      -0.058   9.508  22.654  0.00  0.00    +0.000 C 
ATOM     19  N   UNL     1       0.440   9.419  21.320  0.00  0.00    +0.000 N 
ENDROOT
BRANCH   7  20
ATOM     20  N   UNL     1       5.461   3.348  18.747  0.00  0.00    +0.000 NA
ATOM     21  H   UNL     1       5.698   2.367  18.894  0.00  0.00    +0.000 HD
ATOM     22  H   UNL     1       6.319   3.874  18.915  0.00  0.00    +0.000 HD
ENDBRANCH   7  20
BRANCH   1  23
ATOM     23  C   UNL     1       2.493   7.116  17.766  0.00  0.00    +0.000 C 
BRANCH  23  26
ATOM     24  C   UNL     1       6.759   7.260  17.373  0.00  0.00    +0.000 C 
ATOM     25  C   UNL     1       5.304   7.210  17.509  0.00  0.00    +0.000 C 
ATOM     26  C   UNL     1       4.006   7.167  17.628  0.00  0.00    +0.000 C 
ENDBRANCH  23  26
ENDBRANCH   1  23
BRANCH  14  27
ATOM     27  C   UNL     1       0.780  12.182  18.777  0.00  0.00    +0.000 C 
BRANCH  27  28
ATOM     28  C   UNL     1       2.014  13.014  19.079  0.00  0.00    +0.000 A 
ATOM     29  C   UNL     1       2.307  13.369  20.402  0.00  0.00    +0.000 A 
ATOM     30  C   UNL     1       3.404  14.183  20.701  0.00  0.00    +0.000 A 
ATOM     31  C   UNL     1       4.221  14.658  19.672  0.00  0.00    +0.000 A 
ATOM     32  C   UNL     1       3.972  14.262  18.355  0.00  0.00    +0.000 A 
ATOM     33  C   UNL     1       2.875  13.446  18.058  0.00  0.00    +0.000 A 
BRANCH  31  34
ATOM     34  C   UNL     1       5.326  15.548  19.982  0.00  0.00    +0.000 C 
ATOM     35  N   UNL     1       6.214  16.256  20.205  0.00  0.00    +0.000 NA
ENDBRANCH  31  34
ENDBRANCH  27  28
ENDBRANCH  14  27
TORSDOF 6
ENDMDL
MODEL 2
REMARK VINA RESULT:      -7.7      4.157      8.461
REMARK  Name = 
REMARK  7 active torsions:
REMARK  status: ('A' for Active; 'I' for Inactive)
REMARK    1  A    between atoms: C_1  and  C_2
REMARK    2  A    between atoms: C_3  and  C_4
REMARK    3  A    between atoms: C_4  and  N_5
REMARK    4  A    between atoms: C_11  and  N_12
REMARK    5  A    between atoms: N_19  and  C_20
REMARK    6  A    between atoms: C_20  and  C_21
REMARK    7  A    between atoms: C_24  and  C_25
REMARK                            x       y       z     vdW  Elec       q    Type
REMARK                         _______ _______ _______ _____ _____    ______ ____
ROOT
ATOM      1  N   UNL     1      -2.883  10.756  18.418  0.00  0.00    +0.000 N 
ATOM      2  C   UNL     1      -3.564  11.833  18.966  0.00  0.00    +0.000 A 
ATOM      3  N   UNL     1      -4.950  11.869  19.055  0.00  0.00    +0.000 N 
ATOM      4  C   UNL     1      -5.684  13.117  18.836  0.00  0.00    +0.000 C 
ATOM      5  C   UNL     1      -6.808  13.227  19.886  0.00  0.00    +0.000 C 
ATOM      6  C   UNL     1      -7.743  12.008  19.912  0.00  0.00    +0.000 C 
ATOM      7  C   UNL     1      -6.939  10.721  20.028  0.00  0.00    +0.000 C 
ATOM      8  C   UNL     1      -5.850  10.698  18.948  0.00  0.00    +0.000 C 
ATOM      9  N   UNL     1      -2.646  12.733  19.346  0.00  0.00    +0.000 NA
ATOM     10  C   UNL     1      -1.403  12.181  19.069  0.00  0.00    +0.000 A 
ATOM     11  C   UNL     1      -1.535  10.959  18.481  0.00  0.00    +0.000 A 
ATOM     12  C   UNL     1      -0.441  10.124  18.050  0.00  0.00    +0.000 C 
ATOM     13  O   UNL     1      -0.587   8.995  17.585  0.00  0.00    +0.000 OA
ATOM     14  N   UNL     1       0.817  10.677  18.243  0.00  0.00    +0.000 N 
ATOM     15  C   UNL     1       0.936  11.906  18.863  0.00  0.00    +0.000 C 
ATOM     16  N   UNL     1       2.112  12.419  19.117  0.00  0.00    +0.000 NA
ATOM     17  C   UNL     1       1.805  13.672  19.870  0.00  0.00    +0.000 C 
ATOM     18  C   UNL     1       0.267  13.832  19.941  0.00  0.00    +0.000 C 
ATOM     19  N   UNL     1      -0.156  12.647  19.268  0.00  0.00    +0.000 N 
ENDROOT
BRANCH   7  20
ATOM     20  N   UNL     1      -7.808   9.535  19.945  0.00  0.00    +0.000 NA
ATOM     21  H   UNL     1      -8.086   9.226  20.876  0.00  0.00    +0.000 HD
ATOM     22  H   UNL     1      -7.283   8.762  19.536  0.00  0.00    +0.000 HD
ENDBRANCH   7  20
BRANCH   1  23
ATOM     23  C   UNL     1      -3.456   9.674  17.709  0.00  0.00    +0.000 C 
BRANCH  23  26
ATOM     24  C   UNL     1      -3.213  10.117  13.453  0.00  0.00    +0.000 C 
ATOM     25  C   UNL     1      -3.298   9.968  14.905  0.00  0.00    +0.000 C 
ATOM     26  C   UNL     1      -3.371   9.832  16.199  0.00  0.00    +0.000 C 
ENDBRANCH  23  26
ENDBRANCH   1  23
BRANCH  14  27
ATOM     27  C   UNL     1       1.981   9.842  17.933  0.00  0.00    +0.000 C 
BRANCH  27  28
ATOM     28  C   UNL     1       2.052   8.559  18.743  0.00  0.00    +0.000 A 
ATOM     29  C   UNL     1       2.529   7.385  18.145  0.00  0.00    +0.000 A 
ATOM     30  C   UNL     1       2.549   6.178  18.850  0.00  0.00    +0.000 A 
ATOM     31  C   UNL     1       2.083   6.131  20.166  0.00  0.00    +0.000 A 
ATOM     32  C   UNL     1       1.659   7.307  20.790  0.00  0.00    +0.000 A 
ATOM     33  C   UNL     1       1.642   8.515  20.085  0.00  0.00    +0.000 A 
BRANCH  31  34
ATOM     34  C   UNL     1       2.054   4.864  20.875  0.00  0.00    +0.000 C 
ATOM     35  N   UNL     1       2.042   3.842  21.420  0.00  0.00    +0.000 NA
ENDBRANCH  31  34
ENDBRANCH  27  28
ENDBRANCH  14  27
TORSDOF 6
ENDMDL
MODEL 3
REMARK VINA RESULT:      -7.5      4.242      9.234
REMARK  Name = 
REMARK  7 active torsions:
REMARK  status: ('A' for Active; 'I' for Inactive)
REMARK    1  A    between atoms: C_1  and  C_2
REMARK    2  A    between atoms: C_3  and  C_4
REMARK    3  A    between atoms: C_4  and  N_5
REMARK    4  A    between atoms: C_11  and  N_12
REMARK    5  A    between atoms: N_19  and  C_20
REMARK    6  A    between atoms: C_20  and  C_21
REMARK    7  A    between atoms: C_24  and  C_25
REMARK                            x       y       z     vdW  Elec       q    Type
REMARK                         _______ _______ _______ _____ _____    ______ ____
ROOT
ATOM      1  N   UNL     1      -3.335  12.733  21.214  0.00  0.00    +0.000 N 
ATOM      2  C   UNL     1      -4.714  12.774  21.069  0.00  0.00    +0.000 A 
ATOM      3  N   UNL     1      -5.553  13.238  22.074  0.00  0.00    +0.000 N 
ATOM      4  C   UNL     1      -6.849  12.603  22.324  0.00  0.00    +0.000 C 
ATOM      5  C   UNL     1      -7.901  13.699  22.586  0.00  0.00    +0.000 C 
ATOM      6  C   UNL     1      -7.511  14.667  23.712  0.00  0.00    +0.000 C 
ATOM      7  C   UNL     1      -6.113  15.222  23.479  0.00  0.00    +0.000 C 
ATOM      8  C   UNL     1      -5.137  14.066  23.230  0.00  0.00    +0.000 C 
ATOM      9  N   UNL     1      -5.001  12.303  19.848  0.00  0.00    +0.000 NA
ATOM     10  C   UNL     1      -3.790  12.018  19.232  0.00  0.00    +0.000 A 
ATOM     11  C   UNL     1      -2.747  12.268  20.073  0.00  0.00    +0.000 A 
ATOM     12  C   UNL     1      -1.357  12.061  19.753  0.00  0.00    +0.000 C 
ATOM     13  O   UNL     1      -0.432  12.362  20.507  0.00  0.00    +0.000 OA
ATOM     14  N   UNL     1      -1.128  11.534  18.491  0.00  0.00    +0.000 N 
ATOM     15  C   UNL     1      -2.193  11.309  17.640  0.00  0.00    +0.000 C 
ATOM     16  N   UNL     1      -1.999  10.874  16.422  0.00  0.00    +0.000 NA
ATOM     17  C   UNL     1      -3.366  10.867  15.818  0.00  0.00    +0.000 C 
ATOM     18  C   UNL     1      -4.380  11.295  16.907  0.00  0.00    +0.000 C 
ATOM     19  N   UNL     1      -3.503  11.546  18.005  0.00  0.00    +0.000 N 
ENDROOT
BRANCH   7  20
ATOM     20  N   UNL     1      -5.675  16.067  24.602  0.00  0.00    +0.000 NA
ATOM     21  H   UNL     1      -5.464  15.498  25.421  0.00  0.00    +0.000 HD
ATOM     22  H   UNL     1      -6.440  16.684  24.877  0.00  0.00    +0.000 HD
ENDBRANCH   7  20
BRANCH   1  23
ATOM     23  C   UNL     1      -2.610  12.943  22.410  0.00  0.00    +0.000 C 
BRANCH  23  26
ATOM     24  C   UNL     1      -0.259   9.558  23.584  0.00  0.00    +0.000 C 
ATOM     25  C   UNL     1      -1.059  10.714  23.184  0.00  0.00    +0.000 C 
ATOM     26  C   UNL     1      -1.775  11.743  22.826  0.00  0.00    +0.000 C 
ENDBRANCH  23  26
ENDBRANCH   1  23
BRANCH  14  27
ATOM     27  C   UNL     1       0.264  11.402  18.052  0.00  0.00    +0.000 C 
BRANCH  27  28
ATOM     28  C   UNL     1       0.935  10.119  18.510  0.00  0.00    +0.000 A 
ATOM     29  C   UNL     1       1.727   9.389  17.613  0.00  0.00    +0.000 A 
ATOM     30  C   UNL     1       2.307   8.175  17.991  0.00  0.00    +0.000 A 
ATOM     31  C   UNL     1       2.095   7.671  19.276  0.00  0.00    +0.000 A 
ATOM     32  C   UNL     1       1.356   8.418  20.197  0.00  0.00    +0.000 A 
ATOM     33  C   UNL     1       0.777   9.635  19.818  0.00  0.00    +0.000 A 
BRANCH  31  34
ATOM     34  C   UNL     1       2.654   6.383  19.646  0.00  0.00    +0.000 C 
ATOM     35  N   UNL     1       3.079   5.344  19.930  0.00  0.00    +0.000 NA
ENDBRANCH  31  34
ENDBRANCH  27  28
ENDBRANCH  14  27
TORSDOF 6
ENDMDL
MODEL 4
REMARK VINA RESULT:      -7.4      4.151      9.436
REMARK  Name = 
REMARK  7 active torsions:
REMARK  status: ('A' for Active; 'I' for Inactive)
REMARK    1  A    between atoms: C_1  and  C_2
REMARK    2  A    between atoms: C_3  and  C_4
REMARK    3  A    between atoms: C_4  and  N_5
REMARK    4  A    between atoms: C_11  and  N_12
REMARK    5  A    between atoms: N_19  and  C_20
REMARK    6  A    between atoms: C_20  and  C_21
REMARK    7  A    between atoms: C_24  and  C_25
REMARK                            x       y       z     vdW  Elec       q    Type
REMARK                         _______ _______ _______ _____ _____    ______ ____
ROOT
ATOM      1  N   UNL     1      -2.822  12.867  21.753  0.00  0.00    +0.000 N 
ATOM      2  C   UNL     1      -4.187  12.987  21.539  0.00  0.00    +0.000 A 
ATOM      3  N   UNL     1      -5.042  13.535  22.487  0.00  0.00    +0.000 N 
ATOM      4  C   UNL     1      -6.386  12.988  22.691  0.00  0.00    +0.000 C 
ATOM      5  C   UNL     1      -7.378  14.155  22.868  0.00  0.00    +0.000 C 
ATOM      6  C   UNL     1      -6.982  15.134  23.983  0.00  0.00    +0.000 C 
ATOM      7  C   UNL     1      -5.543  15.595  23.802  0.00  0.00    +0.000 C 
ATOM      8  C   UNL     1      -4.630  14.373  23.637  0.00  0.00    +0.000 C 
ATOM      9  N   UNL     1      -4.444  12.494  20.320  0.00  0.00    +0.000 NA
ATOM     10  C   UNL     1      -3.226  12.115  19.774  0.00  0.00    +0.000 A 
ATOM     11  C   UNL     1      -2.211  12.329  20.658  0.00  0.00    +0.000 A 
ATOM     12  C   UNL     1      -0.822  12.027  20.413  0.00  0.00    +0.000 C 
ATOM     13  O   UNL     1       0.083  12.294  21.202  0.00  0.00    +0.000 OA
ATOM     14  N   UNL     1      -0.567  11.445  19.180  0.00  0.00    +0.000 N 
ATOM     15  C   UNL     1      -1.602  11.257  18.285  0.00  0.00    +0.000 C 
ATOM     16  N   UNL     1      -1.379  10.771  17.092  0.00  0.00    +0.000 NA
ATOM     17  C   UNL     1      -2.713  10.828  16.422  0.00  0.00    +0.000 C 
ATOM     18  C   UNL     1      -3.749  11.353  17.446  0.00  0.00    +0.000 C 
ATOM     19  N   UNL     1      -2.911  11.586  18.577  0.00  0.00    +0.000 N 
ENDROOT
BRANCH   7  20
ATOM     20  N   UNL     1      -5.107  16.448  24.920  0.00  0.00    +0.000 NA
ATOM     21  H   UNL     1      -5.259  17.433  24.703  0.00  0.00    +0.000 HD
ATOM     22  H   UNL     1      -4.101  16.341  25.052  0.00  0.00    +0.000 HD
ENDBRANCH   7  20
BRANCH   1  23
ATOM     23  C   UNL     1      -2.143  13.071  22.977  0.00  0.00    +0.000 C 
BRANCH  23  26
ATOM     24  C   UNL     1      -0.058  16.812  23.153  0.00  0.00    +0.000 C 
ATOM     25  C   UNL     1      -0.768  15.535  23.094  0.00  0.00    +0.000 C 
ATOM     26  C   UNL     1      -1.403  14.397  23.040  0.00  0.00    +0.000 C 
ENDBRANCH  23  26
ENDBRANCH   1  23
BRANCH  14  27
ATOM     27  C   UNL     1       0.833  11.213  18.815  0.00  0.00    +0.000 C 
BRANCH  27  28
ATOM     28  C   UNL     1       1.289   9.777  19.004  0.00  0.00    +0.000 A 
ATOM     29  C   UNL     1       1.128   9.153  20.248  0.00  0.00    +0.000 A 
ATOM     30  C   UNL     1       1.593   7.852  20.465  0.00  0.00    +0.000 A 
ATOM     31  C   UNL     1       2.234   7.161  19.435  0.00  0.00    +0.000 A 
ATOM     32  C   UNL     1       2.349   7.751  18.174  0.00  0.00    +0.000 A 
ATOM     33  C   UNL     1       1.881   9.052  17.957  0.00  0.00    +0.000 A 
BRANCH  31  34
ATOM     34  C   UNL     1       2.765   5.831  19.682  0.00  0.00    +0.000 C 
ATOM     35  N   UNL     1       3.205   4.775  19.860  0.00  0.00    +0.000 NA
ENDBRANCH  31  34
ENDBRANCH  27  28
ENDBRANCH  14  27
TORSDOF 6
ENDMDL
MODEL 5
REMARK VINA RESULT:      -7.1      3.745      9.294
REMARK  Name = 
REMARK  7 active torsions:
REMARK  status: ('A' for Active; 'I' for Inactive)
REMARK    1  A    between atoms: C_1  and  C_2
REMARK    2  A    between atoms: C_3  and  C_4
REMARK    3  A    between atoms: C_4  and  N_5
REMARK    4  A    between atoms: C_11  and  N_12
REMARK    5  A    between atoms: N_19  and  C_20
REMARK    6  A    between atoms: C_20  and  C_21
REMARK    7  A    between atoms: C_24  and  C_25
REMARK                            x       y       z     vdW  Elec       q    Type
REMARK                         _______ _______ _______ _____ _____    ______ ____
ROOT
ATOM      1  N   UNL     1      -1.928  13.026  21.722  0.00  0.00    +0.000 N 
ATOM      2  C   UNL     1      -3.296  13.250  21.689  0.00  0.00    +0.000 A 
ATOM      3  N   UNL     1      -3.949  14.005  22.655  0.00  0.00    +0.000 N 
ATOM      4  C   UNL     1      -5.283  13.627  23.128  0.00  0.00    +0.000 C 
ATOM      5  C   UNL     1      -6.144  14.899  23.265  0.00  0.00    +0.000 C 
ATOM      6  C   UNL     1      -5.505  15.979  24.150  0.00  0.00    +0.000 C 
ATOM      7  C   UNL     1      -4.080  16.267  23.699  0.00  0.00    +0.000 C 
ATOM      8  C   UNL     1      -3.301  14.950  23.593  0.00  0.00    +0.000 C 
ATOM      9  N   UNL     1      -3.776  12.620  20.608  0.00  0.00    +0.000 NA
ATOM     10  C   UNL     1      -2.690  12.051  19.958  0.00  0.00    +0.000 A 
ATOM     11  C   UNL     1      -1.537  12.284  20.646  0.00  0.00    +0.000 A 
ATOM     12  C   UNL     1      -0.230  11.816  20.255  0.00  0.00    +0.000 C 
ATOM     13  O   UNL     1       0.804  12.100  20.857  0.00  0.00    +0.000 OA
ATOM     14  N   UNL     1      -0.215  11.046  19.101  0.00  0.00    +0.000 N 
ATOM     15  C   UNL     1      -1.388  10.839  18.400  0.00  0.00    +0.000 C 
ATOM     16  N   UNL     1      -1.390  10.173  17.275  0.00  0.00    +0.000 NA
ATOM     17  C   UNL     1      -2.804  10.268  16.801  0.00  0.00    +0.000 C 
ATOM     18  C   UNL     1      -3.625  11.029  17.870  0.00  0.00    +0.000 C 
ATOM     19  N   UNL     1      -2.606  11.333  18.823  0.00  0.00    +0.000 N 
ENDROOT
BRANCH   7  20
ATOM     20  N   UNL     1      -3.412  17.220  24.601  0.00  0.00    +0.000 NA
ATOM     21  H   UNL     1      -2.859  16.726  25.301  0.00  0.00    +0.000 HD
ATOM     22  H   UNL     1      -4.118  17.745  25.117  0.00  0.00    +0.000 HD
ENDBRANCH   7  20
BRANCH   1  23
ATOM     23  C   UNL     1      -1.053  13.331  22.792  0.00  0.00    +0.000 C 
BRANCH  23  26
ATOM     24  C   UNL     1       1.278  16.865  22.125  0.00  0.00    +0.000 C 
ATOM     25  C   UNL     1       0.483  15.658  22.351  0.00  0.00    +0.000 C 
ATOM     26  C   UNL     1      -0.226  14.584  22.554  0.00  0.00    +0.000 C 
ENDBRANCH  23  26
ENDBRANCH   1  23
BRANCH  14  27
ATOM     27  C   UNL     1       1.090  10.629  18.579  0.00  0.00    +0.000 C 
BRANCH  27  28
ATOM     28  C   UNL     1       1.512   9.238  19.017  0.00  0.00    +0.000 A 
ATOM     29  C   UNL     1       2.181   8.398  18.116  0.00  0.00    +0.000 A 
ATOM     30  C   UNL     1       2.527   7.092  18.474  0.00  0.00    +0.000 A 
ATOM     31  C   UNL     1       2.201   6.607  19.742  0.00  0.00    +0.000 A 
ATOM     32  C   UNL     1       1.586   7.454  20.668  0.00  0.00    +0.000 A 
ATOM     33  C   UNL     1       1.242   8.762  20.309  0.00  0.00    +0.000 A 
BRANCH  31  34
ATOM     34  C   UNL     1       2.514   5.232  20.089  0.00  0.00    +0.000 C 
ATOM     35  N   UNL     1       2.784   4.144  20.381  0.00  0.00    +0.000 NA
ENDBRANCH  31  34
ENDBRANCH  27  28
ENDBRANCH  14  27
TORSDOF 6
ENDMDL
MODEL 6
REMARK VINA RESULT:      -6.9      0.942      1.119
REMARK  Name = 
REMARK  7 active torsions:
REMARK  status: ('A' for Active; 'I' for Inactive)
REMARK    1  A    between atoms: C_1  and  C_2
REMARK    2  A    between atoms: C_3  and  C_4
REMARK    3  A    between atoms: C_4  and  N_5
REMARK    4  A    between atoms: C_11  and  N_12
REMARK    5  A    between atoms: N_19  and  C_20
REMARK    6  A    between atoms: C_20  and  C_21
REMARK    7  A    between atoms: C_24  and  C_25
REMARK                            x       y       z     vdW  Elec       q    Type
REMARK                         _______ _______ _______ _____ _____    ______ ____
ROOT
ATOM      1  N   UNL     1       2.027   7.345  19.081  0.00  0.00    +0.000 N 
ATOM      2  C   UNL     1       1.879   6.449  20.130  0.00  0.00    +0.000 A 
ATOM      3  N   UNL     1       2.358   5.147  20.069  0.00  0.00    +0.000 N 
ATOM      4  C   UNL     1       1.604   4.040  20.662  0.00  0.00    +0.000 C 
ATOM      5  C   UNL     1       2.585   3.097  21.386  0.00  0.00    +0.000 C 
ATOM      6  C   UNL     1       3.729   2.598  20.490  0.00  0.00    +0.000 C 
ATOM      7  C   UNL     1       4.419   3.767  19.803  0.00  0.00    +0.000 C 
ATOM      8  C   UNL     1       3.371   4.646  19.110  0.00  0.00    +0.000 C 
ATOM      9  N   UNL     1       1.225   7.089  21.109  0.00  0.00    +0.000 NA
ATOM     10  C   UNL     1       1.016   8.389  20.672  0.00  0.00    +0.000 A 
ATOM     11  C   UNL     1       1.498   8.559  19.409  0.00  0.00    +0.000 A 
ATOM     12  C   UNL     1       1.427   9.785  18.653  0.00  0.00    +0.000 C 
ATOM     13  O   UNL     1       1.932   9.930  17.540  0.00  0.00    +0.000 OA
ATOM     14  N   UNL     1       0.776  10.825  19.301  0.00  0.00    +0.000 N 
ATOM     15  C   UNL     1       0.315  10.646  20.590  0.00  0.00    +0.000 C 
ATOM     16  N   UNL     1      -0.243  11.629  21.247  0.00  0.00    +0.000 NA
ATOM     17  C   UNL     1      -0.495  11.061  22.606  0.00  0.00    +0.000 C 
ATOM     18  C   UNL     1      -0.062   9.574  22.598  0.00  0.00    +0.000 C 
ATOM     19  N   UNL     1       0.432   9.447  21.265  0.00  0.00    +0.000 N 
ENDROOT
BRANCH   7  20
ATOM     20  N   UNL     1       5.447   3.303  18.856  0.00  0.00    +0.000 NA
ATOM     21  H   UNL     1       5.072   2.581  18.242  0.00  0.00    +0.000 HD
ATOM     22  H   UNL     1       6.208   2.865  19.375  0.00  0.00    +0.000 HD
ENDBRANCH   7  20
BRANCH   1  23
ATOM     23  C   UNL     1       2.475   7.040  17.774  0.00  0.00    +0.000 C 
BRANCH  23  26
ATOM     24  C   UNL     1       6.733   7.265  17.345  0.00  0.00    +0.000 C 
ATOM     25  C   UNL     1       5.280   7.186  17.490  0.00  0.00    +0.000 C 
ATOM     26  C   UNL     1       3.985   7.118  17.622  0.00  0.00    +0.000 C 
ENDBRANCH  23  26
ENDBRANCH   1  23
BRANCH  14  27
ATOM     27  C   UNL     1       0.763  12.134  18.641  0.00  0.00    +0.000 C 
BRANCH  27  28
ATOM     28  C   UNL     1       1.437  13.234  19.442  0.00  0.00    +0.000 A 
ATOM     29  C   UNL     1       0.782  14.458  19.632  0.00  0.00    +0.000 A 
ATOM     30  C   UNL     1       1.404  15.507  20.314  0.00  0.00    +0.000 A 
ATOM     31  C   UNL     1       2.699  15.345  20.811  0.00  0.00    +0.000 A 
ATOM     32  C   UNL     1       3.339  14.110  20.678  0.00  0.00    +0.000 A 
ATOM     33  C   UNL     1       2.715  13.059  19.997  0.00  0.00    +0.000 A 
BRANCH  31  34
ATOM     34  C   UNL     1       3.362  16.456  21.470  0.00  0.00    +0.000 C 
ATOM     35  N   UNL     1       3.871  17.358  21.988  0.00  0.00    +0.000 NA
ENDBRANCH  31  34
ENDBRANCH  27  28
ENDBRANCH  14  27
TORSDOF 6
ENDMDL
MODEL 7
REMARK VINA RESULT:      -6.8      4.574      9.716
REMARK  Name = 
REMARK  7 active torsions:
REMARK  status: ('A' for Active; 'I' for Inactive)
REMARK    1  A    between atoms: C_1  and  C_2
REMARK    2  A    between atoms: C_3  and  C_4
REMARK    3  A    between atoms: C_4  and  N_5
REMARK    4  A    between atoms: C_11  and  N_12
REMARK    5  A    between atoms: N_19  and  C_20
REMARK    6  A    between atoms: C_20  and  C_21
REMARK    7  A    between atoms: C_24  and  C_25
REMARK                            x       y       z     vdW  Elec       q    Type
REMARK                         _______ _______ _______ _____ _____    ______ ____
ROOT
ATOM      1  N   UNL     1      -3.070  13.504  21.022  0.00  0.00    +0.000 N 
ATOM      2  C   UNL     1      -4.442  13.424  20.834  0.00  0.00    +0.000 A 
ATOM      3  N   UNL     1      -5.340  14.167  21.590  0.00  0.00    +0.000 N 
ATOM      4  C   UNL     1      -6.622  13.595  22.010  0.00  0.00    +0.000 C 
ATOM      5  C   UNL     1      -7.723  14.660  21.844  0.00  0.00    +0.000 C 
ATOM      6  C   UNL     1      -7.417  15.978  22.571  0.00  0.00    +0.000 C 
ATOM      7  C   UNL     1      -6.032  16.486  22.197  0.00  0.00    +0.000 C 
ATOM      8  C   UNL     1      -5.005  15.365  22.395  0.00  0.00    +0.000 C 
ATOM      9  N   UNL     1      -4.659  12.544  19.847  0.00  0.00    +0.000 NA
ATOM     10  C   UNL     1      -3.413  12.122  19.404  0.00  0.00    +0.000 A 
ATOM     11  C   UNL     1      -2.417  12.701  20.133  0.00  0.00    +0.000 A 
ATOM     12  C   UNL     1      -1.007  12.465  19.943  0.00  0.00    +0.000 C 
ATOM     13  O   UNL     1      -0.127  13.054  20.569  0.00  0.00    +0.000 OA
ATOM     14  N   UNL     1      -0.705  11.543  18.951  0.00  0.00    +0.000 N 
ATOM     15  C   UNL     1      -1.724  10.983  18.204  0.00  0.00    +0.000 C 
ATOM     16  N   UNL     1      -1.462  10.162  17.221  0.00  0.00    +0.000 NA
ATOM     17  C   UNL     1      -2.800   9.878  16.620  0.00  0.00    +0.000 C 
ATOM     18  C   UNL     1      -3.875  10.607  17.463  0.00  0.00    +0.000 C 
ATOM     19  N   UNL     1      -3.056  11.268  18.427  0.00  0.00    +0.000 N 
ENDROOT
BRANCH   7  20
ATOM     20  N   UNL     1      -5.675  17.689  22.965  0.00  0.00    +0.000 NA
ATOM     21  H   UNL     1      -4.726  17.615  23.332  0.00  0.00    +0.000 HD
ATOM     22  H   UNL     1      -6.286  17.762  23.779  0.00  0.00    +0.000 HD
ENDBRANCH   7  20
BRANCH   1  23
ATOM     23  C   UNL     1      -2.405  14.153  22.089  0.00  0.00    +0.000 C 
BRANCH  23  26
ATOM     24  C   UNL     1      -0.811  17.983  21.012  0.00  0.00    +0.000 C 
ATOM     25  C   UNL     1      -1.353  16.676  21.380  0.00  0.00    +0.000 C 
ATOM     26  C   UNL     1      -1.839  15.511  21.708  0.00  0.00    +0.000 C 
ENDBRANCH  23  26
ENDBRANCH   1  23
BRANCH  14  27
ATOM     27  C   UNL     1       0.708  11.335  18.625  0.00  0.00    +0.000 C 
BRANCH  27  28
ATOM     28  C   UNL     1       1.200   9.922  18.886  0.00  0.00    +0.000 A 
ATOM     29  C   UNL     1       1.006   9.339  20.145  0.00  0.00    +0.000 A 
ATOM     30  C   UNL     1       1.501   8.063  20.429  0.00  0.00    +0.000 A 
ATOM     31  C   UNL     1       2.205   7.355  19.453  0.00  0.00    +0.000 A 
ATOM     32  C   UNL     1       2.353   7.902  18.176  0.00  0.00    +0.000 A 
ATOM     33  C   UNL     1       1.855   9.179  17.892  0.00  0.00    +0.000 A 
BRANCH  31  34
ATOM     34  C   UNL     1       2.764   6.053  19.771  0.00  0.00    +0.000 C 
ATOM     35  N   UNL     1       3.234   5.025  20.025  0.00  0.00    +0.000 NA
ENDBRANCH  31  34
ENDBRANCH  27  28
ENDBRANCH  14  27
TORSDOF 6
ENDMDL
MODEL 8
REMARK VINA RESULT:      -6.7      2.251      8.350
REMARK  Name = 
REMARK  7 active torsions:
REMARK  status: ('A' for Active; 'I' for Inactive)
REMARK    1  A    between atoms: C_1  and  C_2
REMARK    2  A    between atoms: C_3  and  C_4
REMARK    3  A    between atoms: C_4  and  N_5
REMARK    4  A    between atoms: C_11  and  N_12
REMARK    5  A    between atoms: N_19  and  C_20
REMARK    6  A    between atoms: C_20  and  C_21
REMARK    7  A    between atoms: C_24  and  C_25
REMARK                            x       y       z     vdW  Elec       q    Type
REMARK                         _______ _______ _______ _____ _____    ______ ____
ROOT
ATOM      1  N   UNL     1       1.881  13.334  19.160  0.00  0.00    +0.000 N 
ATOM      2  C   UNL     1       1.607  14.107  20.278  0.00  0.00    +0.000 A 
ATOM      3  N   UNL     1       1.826  15.479  20.305  0.00  0.00    +0.000 N 
ATOM      4  C   UNL     1       2.326  16.136  21.515  0.00  0.00    +0.000 C 
ATOM      5  C   UNL     1       1.563  17.461  21.715  0.00  0.00    +0.000 C 
ATOM      6  C   UNL     1       1.617  18.390  20.493  0.00  0.00    +0.000 C 
ATOM      7  C   UNL     1       1.199  17.643  19.235  0.00  0.00    +0.000 C 
ATOM      8  C   UNL     1       2.007  16.345  19.117  0.00  0.00    +0.000 C 
ATOM      9  N   UNL     1       1.131  13.286  21.223  0.00  0.00    +0.000 NA
ATOM     10  C   UNL     1       1.072  12.018  20.663  0.00  0.00    +0.000 A 
ATOM     11  C   UNL     1       1.547  12.030  19.386  0.00  0.00    +0.000 A 
ATOM     12  C   UNL     1       1.642  10.876  18.526  0.00  0.00    +0.000 C 
ATOM     13  O   UNL     1       2.010  10.928  17.353  0.00  0.00    +0.000 OA
ATOM     14  N   UNL     1       1.237   9.686  19.112  0.00  0.00    +0.000 N 
ATOM     15  C   UNL     1       0.734   9.693  20.399  0.00  0.00    +0.000 C 
ATOM     16  N   UNL     1       0.284   8.596  20.950  0.00  0.00    +0.000 NA
ATOM     17  C   UNL     1      -0.252   9.047  22.270  0.00  0.00    +0.000 C 
ATOM     18  C   UNL     1       0.030  10.562  22.416  0.00  0.00    +0.000 C 
ATOM     19  N   UNL     1       0.654  10.840  21.163  0.00  0.00    +0.000 N 
ENDROOT
BRANCH   7  20
ATOM     20  N   UNL     1       1.347  18.484  18.036  0.00  0.00    +0.000 NA
ATOM     21  H   UNL     1       0.645  19.223  18.024  0.00  0.00    +0.000 HD
ATOM     22  H   UNL     1       1.174  17.918  17.205  0.00  0.00    +0.000 HD
ENDBRANCH   7  20
BRANCH   1  23
ATOM     23  C   UNL     1       2.584  13.748  18.004  0.00  0.00    +0.000 C 
BRANCH  23  26
ATOM     24  C   UNL     1       6.618  14.949  18.809  0.00  0.00    +0.000 C 
ATOM     25  C   UNL     1       5.242  14.537  18.534  0.00  0.00    +0.000 C 
ATOM     26  C   UNL     1       4.015  14.173  18.290  0.00  0.00    +0.000 C 
ENDBRANCH  23  26
ENDBRANCH   1  23
BRANCH  14  27
ATOM     27  C   UNL     1       1.199   8.490  18.265  0.00  0.00    +0.000 C 
BRANCH  27  28
ATOM     28  C   UNL     1       2.433   7.613  18.383  0.00  0.00    +0.000 A 
ATOM     29  C   UNL     1       3.481   7.760  17.465  0.00  0.00    +0.000 A 
ATOM     30  C   UNL     1       4.601   6.925  17.514  0.00  0.00    +0.000 A 
ATOM     31  C   UNL     1       4.682   5.923  18.485  0.00  0.00    +0.000 A 
ATOM     32  C   UNL     1       3.670   5.806  19.441  0.00  0.00    +0.000 A 
ATOM     33  C   UNL     1       2.550   6.644  19.392  0.00  0.00    +0.000 A 
BRANCH  31  34
ATOM     34  C   UNL     1       5.822   5.024  18.498  0.00  0.00    +0.000 C 
ATOM     35  N   UNL     1       6.739   4.317  18.486  0.00  0.00    +0.000 NA
ENDBRANCH  31  34
ENDBRANCH  27  28
ENDBRANCH  14  27
TORSDOF 6
ENDMDL
MODEL 9
REMARK VINA RESULT:      -6.7      4.608      9.924
REMARK  Name = 
REMARK  7 active torsions:
REMARK  status: ('A' for Active; 'I' for Inactive)
REMARK    1  A    between atoms: C_1  and  C_2
REMARK    2  A    between atoms: C_3  and  C_4
REMARK    3  A    between atoms: C_4  and  N_5
REMARK    4  A    between atoms: C_11  and  N_12
REMARK    5  A    between atoms: N_19  and  C_20
REMARK    6  A    between atoms: C_20  and  C_21
REMARK    7  A    between atoms: C_24  and  C_25
REMARK                            x       y       z     vdW  Elec       q    Type
REMARK                         _______ _______ _______ _____ _____    ______ ____
ROOT
ATOM      1  N   UNL     1      -3.260  13.299  20.551  0.00  0.00    +0.000 N 
ATOM      2  C   UNL     1      -4.585  13.292  20.141  0.00  0.00    +0.000 A 
ATOM      3  N   UNL     1      -5.554  14.085  20.743  0.00  0.00    +0.000 N 
ATOM      4  C   UNL     1      -6.915  13.584  20.945  0.00  0.00    +0.000 C 
ATOM      5  C   UNL     1      -7.916  14.706  20.605  0.00  0.00    +0.000 C 
ATOM      6  C   UNL     1      -7.663  16.009  21.377  0.00  0.00    +0.000 C 
ATOM      7  C   UNL     1      -6.211  16.440  21.237  0.00  0.00    +0.000 C 
ATOM      8  C   UNL     1      -5.290  15.267  21.596  0.00  0.00    +0.000 C 
ATOM      9  N   UNL     1      -4.684  12.419  19.129  0.00  0.00    +0.000 NA
ATOM     10  C   UNL     1      -3.407  11.929  18.894  0.00  0.00    +0.000 A 
ATOM     11  C   UNL     1      -2.514  12.458  19.778  0.00  0.00    +0.000 A 
ATOM     12  C   UNL     1      -1.107  12.145  19.821  0.00  0.00    +0.000 C 
ATOM     13  O   UNL     1      -0.311  12.690  20.585  0.00  0.00    +0.000 OA
ATOM     14  N   UNL     1      -0.697  11.204  18.889  0.00  0.00    +0.000 N 
ATOM     15  C   UNL     1      -1.607  10.695  17.983  0.00  0.00    +0.000 C 
ATOM     16  N   UNL     1      -1.233   9.856  17.052  0.00  0.00    +0.000 NA
ATOM     17  C   UNL     1      -2.468   9.641  16.240  0.00  0.00    +0.000 C 
ATOM     18  C   UNL     1      -3.625  10.431  16.898  0.00  0.00    +0.000 C 
ATOM     19  N   UNL     1      -2.941  11.052  17.986  0.00  0.00    +0.000 N 
ENDROOT
BRANCH   7  20
ATOM     20  N   UNL     1      -5.920  17.627  22.058  0.00  0.00    +0.000 NA
ATOM     21  H   UNL     1      -6.669  17.793  22.729  0.00  0.00    +0.000 HD
ATOM     22  H   UNL     1      -5.891  18.452  21.458  0.00  0.00    +0.000 HD
ENDBRANCH   7  20
BRANCH   1  23
ATOM     23  C   UNL     1      -2.745  13.917  21.715  0.00  0.00    +0.000 C 
BRANCH  23  26
ATOM     24  C   UNL     1      -4.482  12.423  25.337  0.00  0.00    +0.000 C 
ATOM     25  C   UNL     1      -3.890  12.935  24.102  0.00  0.00    +0.000 C 
ATOM     26  C   UNL     1      -3.361  13.388  23.000  0.00  0.00    +0.000 C 
ENDBRANCH  23  26
ENDBRANCH   1  23
BRANCH  14  27
ATOM     27  C   UNL     1       0.738  10.919  18.797  0.00  0.00    +0.000 C 
BRANCH  27  28
ATOM     28  C   UNL     1       1.132   9.556  19.338  0.00  0.00    +0.000 A 
ATOM     29  C   UNL     1       1.870   8.676  18.536  0.00  0.00    +0.000 A 
ATOM     30  C   UNL     1       2.194   7.393  18.988  0.00  0.00    +0.000 A 
ATOM     31  C   UNL     1       1.774   6.972  20.252  0.00  0.00    +0.000 A 
ATOM     32  C   UNL     1       1.088   7.862  21.082  0.00  0.00    +0.000 A 
ATOM     33  C   UNL     1       0.766   9.146  20.630  0.00  0.00    +0.000 A 
BRANCH  31  34
ATOM     34  C   UNL     1       2.066   5.620  20.694  0.00  0.00    +0.000 C 
ATOM     35  N   UNL     1       2.311   4.551  21.067  0.00  0.00    +0.000 NA
ENDBRANCH  31  34
ENDBRANCH  27  28
ENDBRANCH  14  27
TORSDOF 6
ENDMDL
