MODEL 1
REMARK VINA RESULT:      -8.4      0.000      0.000
REMARK  Name = 
REMARK  4 active torsions:
REMARK  status: ('A' for Active; 'I' for Inactive)
REMARK    1  A    between atoms: C_1  and  N_2
REMARK    2  A    between atoms: C_5  and  C_6
REMARK    3  A    between atoms: C_6  and  C_7
REMARK    4  A    between atoms: C_17  and  C_18
REMARK                            x       y       z     vdW  Elec       q    Type
REMARK                         _______ _______ _______ _____ _____    ______ ____
ROOT
ATOM      1  C   UNL     1       1.057  14.300  18.881  0.00  0.00    +0.000 C 
ATOM      2  N   UNL     1       0.627  13.130  19.667  0.00  0.00    +0.000 N 
ATOM      3  C   UNL     1       0.991  13.007  21.003  0.00  0.00    +0.000 C 
ATOM      4  O   UNL     1       1.845  13.761  21.490  0.00  0.00    +0.000 OA
ATOM      5  C   UNL     1       0.362  11.843  21.886  0.00  0.00    +0.000 C 
ATOM      6  N   UNL     1       1.039  10.583  21.395  0.00  0.00    +0.000 NA
ATOM      7  C   UNL     1       0.790  10.166  20.197  0.00  0.00    +0.000 C 
ATOM      8  C   UNL     1      -0.177  10.814  19.294  0.00  0.00    +0.000 A 
ATOM      9  C   UNL     1      -1.175   9.966  18.796  0.00  0.00    +0.000 A 
ATOM     10  C   UNL     1      -2.163  10.466  17.974  0.00  0.00    +0.000 A 
ATOM     11 CL   UNL     1      -3.508   9.473  17.596  0.00  0.00    +0.000 Cl
ATOM     12  C   UNL     1      -2.186  11.818  17.665  0.00  0.00    +0.000 A 
ATOM     13  C   UNL     1      -1.226  12.672  18.209  0.00  0.00    +0.000 A 
ATOM     14  C   UNL     1      -0.207  12.187  19.027  0.00  0.00    +0.000 A 
ENDROOT
BRANCH   7  15
ATOM     15  C   UNL     1       1.409   8.895  19.704  0.00  0.00    +0.000 A 
ATOM     16  C   UNL     1       1.940   8.822  18.414  0.00  0.00    +0.000 A 
ATOM     17  C   UNL     1       2.534   7.633  17.989  0.00  0.00    +0.000 A 
ATOM     18  C   UNL     1       2.671   6.566  18.880  0.00  0.00    +0.000 A 
ATOM     19  C   UNL     1       2.202   6.663  20.187  0.00  0.00    +0.000 A 
ATOM     20  C   UNL     1       1.531   7.812  20.585  0.00  0.00    +0.000 A 
ENDBRANCH   7  15
BRANCH   5  21
ATOM     21  C   UNL     1      -1.258  11.525  22.233  0.00  0.00    +0.000 C 
BRANCH  21  22
ATOM     22  C   UNL     1      -2.721  12.341  21.672  0.00  0.00    +0.000 A 
ATOM     23  C   UNL     1      -3.085  12.260  23.019  0.00  0.00    +0.000 A 
ATOM     24  N   UNL     1      -3.374  13.581  23.118  0.00  0.00    +0.000 N 
ATOM     25  C   UNL     1      -4.588  13.327  22.592  0.00  0.00    +0.000 A 
ATOM     26  C   UNL     1      -5.783  13.088  23.318  0.00  0.00    +0.000 A 
ATOM     27  C   UNL     1      -6.970  13.061  22.667  0.00  0.00    +0.000 A 
ATOM     28  C   UNL     1      -6.880  13.659  21.448  0.00  0.00    +0.000 A 
ATOM     29  C   UNL     1      -5.530  13.809  20.858  0.00  0.00    +0.000 A 
ATOM     30  C   UNL     1      -4.200  13.136  21.213  0.00  0.00    +0.000 A 
ATOM     31  H   UNL     1      -2.819  14.294  22.630  0.00  0.00    +0.000 HD
ENDBRANCH  21  22
ENDBRANCH   5  21
TORSDOF 3
ENDMDL
MODEL 2
REMARK VINA RESULT:      -8.1      6.119     11.882
REMARK  Name = 
REMARK  4 active torsions:
REMARK  status: ('A' for Active; 'I' for Inactive)
REMARK    1  A    between atoms: C_1  and  N_2
REMARK    2  A    between atoms: C_5  and  C_6
REMARK    3  A    between atoms: C_6  and  C_7
REMARK    4  A    between atoms: C_17  and  C_18
REMARK                            x       y       z     vdW  Elec       q    Type
REMARK                         _______ _______ _______ _____ _____    ______ ____
ROOT
ATOM      1  C   UNL     1       7.515   5.282  19.975  0.00  0.00    +0.000 C 
ATOM      2  N   UNL     1       6.579   5.565  18.873  0.00  0.00    +0.000 N 
ATOM      3  C   UNL     1       6.953   6.403  17.829  0.00  0.00    +0.000 C 
ATOM      4  O   UNL     1       7.986   7.083  17.912  0.00  0.00    +0.000 OA
ATOM      5  C   UNL     1       6.009   6.546  16.557  0.00  0.00    +0.000 C 
ATOM      6  N   UNL     1       4.836   7.369  17.041  0.00  0.00    +0.000 NA
ATOM      7  C   UNL     1       4.028   6.855  17.910  0.00  0.00    +0.000 C 
ATOM      8  C   UNL     1       4.144   5.475  18.412  0.00  0.00    +0.000 A 
ATOM      9  C   UNL     1       2.989   4.697  18.258  0.00  0.00    +0.000 A 
ATOM     10  C   UNL     1       2.987   3.375  18.652  0.00  0.00    +0.000 A 
ATOM     11 CL   UNL     1       1.660   2.382  18.215  0.00  0.00    +0.000 Cl
ATOM     12  C   UNL     1       4.140   2.807  19.173  0.00  0.00    +0.000 A 
ATOM     13  C   UNL     1       5.306   3.567  19.271  0.00  0.00    +0.000 A 
ATOM     14  C   UNL     1       5.328   4.910  18.897  0.00  0.00    +0.000 A 
ENDROOT
BRANCH   7  15
ATOM     15  C   UNL     1       2.833   7.631  18.369  0.00  0.00    +0.000 A 
ATOM     16  C   UNL     1       2.351   7.481  19.671  0.00  0.00    +0.000 A 
ATOM     17  C   UNL     1       1.251   8.235  20.081  0.00  0.00    +0.000 A 
ATOM     18  C   UNL     1       0.702   9.190  19.222  0.00  0.00    +0.000 A 
ATOM     19  C   UNL     1       1.227   9.388  17.947  0.00  0.00    +0.000 A 
ATOM     20  C   UNL     1       2.264   8.577  17.505  0.00  0.00    +0.000 A 
ENDBRANCH   7  15
BRANCH   5  21
ATOM     21  C   UNL     1       5.470   5.354  15.491  0.00  0.00    +0.000 C 
BRANCH  21  22
ATOM     22  C   UNL     1       6.286   4.612  14.111  0.00  0.00    +0.000 A 
ATOM     23  C   UNL     1       5.025   4.060  13.871  0.00  0.00    +0.000 A 
ATOM     24  N   UNL     1       4.986   4.471  12.580  0.00  0.00    +0.000 N 
ATOM     25  C   UNL     1       5.718   3.391  12.243  0.00  0.00    +0.000 A 
ATOM     26  C   UNL     1       5.214   2.147  11.784  0.00  0.00    +0.000 A 
ATOM     27  C   UNL     1       6.065   1.223  11.276  0.00  0.00    +0.000 A 
ATOM     28  C   UNL     1       7.252   1.786  10.922  0.00  0.00    +0.000 A 
ATOM     29  C   UNL     1       7.594   3.097  11.522  0.00  0.00    +0.000 A 
ATOM     30  C   UNL     1       7.005   3.830  12.732  0.00  0.00    +0.000 A 
ATOM     31  H   UNL     1       5.372   5.377  12.289  0.00  0.00    +0.000 HD
ENDBRANCH  21  22
ENDBRANCH   5  21
TORSDOF 3
ENDMDL
MODEL 3
REMARK VINA RESULT:      -8.0      0.944      1.226
REMARK  Name = 
REMARK  4 active torsions:
REMARK  status: ('A' for Active; 'I' for Inactive)
REMARK    1  A    between atoms: C_1  and  N_2
REMARK    2  A    between atoms: C_5  and  C_6
REMARK    3  A    between atoms: C_6  and  C_7
REMARK    4  A    between atoms: C_17  and  C_18
REMARK                            x       y       z     vdW  Elec       q    Type
REMARK                         _______ _______ _______ _____ _____    ______ ____
ROOT
ATOM      1  C   UNL     1       1.572  14.092  18.565  0.00  0.00    +0.000 C 
ATOM      2  N   UNL     1       1.011  13.065  19.459  0.00  0.00    +0.000 N 
ATOM      3  C   UNL     1       1.345  13.048  20.808  0.00  0.00    +0.000 C 
ATOM      4  O   UNL     1       2.271  13.755  21.232  0.00  0.00    +0.000 OA
ATOM      5  C   UNL     1       0.587  12.057  21.794  0.00  0.00    +0.000 C 
ATOM      6  N   UNL     1       1.129  10.687  21.453  0.00  0.00    +0.000 NA
ATOM      7  C   UNL     1       0.849  10.174  20.300  0.00  0.00    +0.000 C 
ATOM      8  C   UNL     1      -0.033  10.821  19.314  0.00  0.00    +0.000 A 
ATOM      9  C   UNL     1      -1.111  10.034  18.886  0.00  0.00    +0.000 A 
ATOM     10  C   UNL     1      -2.031  10.546  17.995  0.00  0.00    +0.000 A 
ATOM     11 CL   UNL     1      -3.470   9.666  17.693  0.00  0.00    +0.000 Cl
ATOM     12  C   UNL     1      -1.906  11.852  17.545  0.00  0.00    +0.000 A 
ATOM     13  C   UNL     1      -0.865  12.653  18.017  0.00  0.00    +0.000 A 
ATOM     14  C   UNL     1       0.087  12.153  18.904  0.00  0.00    +0.000 A 
ENDROOT
BRANCH   7  15
ATOM     15  C   UNL     1       1.334   8.799  19.957  0.00  0.00    +0.000 A 
ATOM     16  C   UNL     1       1.981   8.562  18.742  0.00  0.00    +0.000 A 
ATOM     17  C   UNL     1       2.445   7.276  18.459  0.00  0.00    +0.000 A 
ATOM     18  C   UNL     1       2.338   6.269  19.421  0.00  0.00    +0.000 A 
ATOM     19  C   UNL     1       1.753   6.524  20.658  0.00  0.00    +0.000 A 
ATOM     20  C   UNL     1       1.211   7.778  20.909  0.00  0.00    +0.000 A 
ENDBRANCH   7  15
BRANCH   5  21
ATOM     21  C   UNL     1      -1.062  11.950  22.137  0.00  0.00    +0.000 C 
BRANCH  21  22
ATOM     22  C   UNL     1      -2.141  13.122  22.901  0.00  0.00    +0.000 A 
ATOM     23  C   UNL     1      -3.124  12.185  22.572  0.00  0.00    +0.000 A 
ATOM     24  N   UNL     1      -3.629  12.134  23.829  0.00  0.00    +0.000 N 
ATOM     25  C   UNL     1      -4.345  13.242  23.557  0.00  0.00    +0.000 A 
ATOM     26  C   UNL     1      -5.687  13.283  23.100  0.00  0.00    +0.000 A 
ATOM     27  C   UNL     1      -6.353  14.462  23.074  0.00  0.00    +0.000 A 
ATOM     28  C   UNL     1      -5.749  15.389  23.866  0.00  0.00    +0.000 A 
ATOM     29  C   UNL     1      -4.331  15.160  24.227  0.00  0.00    +0.000 A 
ATOM     30  C   UNL     1      -3.282  14.219  23.626  0.00  0.00    +0.000 A 
ATOM     31  H   UNL     1      -3.025  12.188  24.658  0.00  0.00    +0.000 HD
ENDBRANCH  21  22
ENDBRANCH   5  21
TORSDOF 3
ENDMDL
MODEL 4
REMARK VINA RESULT:      -7.9      0.898      1.549
REMARK  Name = 
REMARK  4 active torsions:
REMARK  status: ('A' for Active; 'I' for Inactive)
REMARK    1  A    between atoms: C_1  and  N_2
REMARK    2  A    between atoms: C_5  and  C_6
REMARK    3  A    between atoms: C_6  and  C_7
REMARK    4  A    between atoms: C_17  and  C_18
REMARK                            x       y       z     vdW  Elec       q    Type
REMARK                         _______ _______ _______ _____ _____    ______ ____
ROOT
ATOM      1  C   UNL     1       1.088  14.323  18.950  0.00  0.00    +0.000 C 
ATOM      2  N   UNL     1       0.580  13.197  19.751  0.00  0.00    +0.000 N 
ATOM      3  C   UNL     1       0.827  13.137  21.119  0.00  0.00    +0.000 C 
ATOM      4  O   UNL     1       1.645  13.909  21.640  0.00  0.00    +0.000 OA
ATOM      5  C   UNL     1       0.112  12.023  22.000  0.00  0.00    +0.000 C 
ATOM      6  N   UNL     1       0.814  10.735  21.631  0.00  0.00    +0.000 NA
ATOM      7  C   UNL     1       0.663  10.261  20.437  0.00  0.00    +0.000 C 
ATOM      8  C   UNL     1      -0.216  10.871  19.425  0.00  0.00    +0.000 A 
ATOM      9  C   UNL     1      -1.178  10.006  18.885  0.00  0.00    +0.000 A 
ATOM     10  C   UNL     1      -2.086  10.473  17.958  0.00  0.00    +0.000 A 
ATOM     11 CL   UNL     1      -3.405   9.472  17.515  0.00  0.00    +0.000 Cl
ATOM     12  C   UNL     1      -2.068  11.808  17.582  0.00  0.00    +0.000 A 
ATOM     13  C   UNL     1      -1.147  12.681  18.164  0.00  0.00    +0.000 A 
ATOM     14  C   UNL     1      -0.208  12.230  19.090  0.00  0.00    +0.000 A 
ENDROOT
BRANCH   7  15
ATOM     15  C   UNL     1       1.307   8.963  20.062  0.00  0.00    +0.000 A 
ATOM     16  C   UNL     1       1.276   7.879  20.940  0.00  0.00    +0.000 A 
ATOM     17  C   UNL     1       1.863   6.672  20.554  0.00  0.00    +0.000 A 
ATOM     18  C   UNL     1       2.392   6.536  19.269  0.00  0.00    +0.000 A 
ATOM     19  C   UNL     1       2.363   7.597  18.369  0.00  0.00    +0.000 A 
ATOM     20  C   UNL     1       1.860   8.825  18.781  0.00  0.00    +0.000 A 
ENDBRANCH   7  15
BRANCH   5  21
ATOM     21  C   UNL     1      -1.535  11.734  22.222  0.00  0.00    +0.000 C 
BRANCH  21  22
ATOM     22  C   UNL     1      -2.798  12.793  22.856  0.00  0.00    +0.000 A 
ATOM     23  C   UNL     1      -3.315  12.680  21.563  0.00  0.00    +0.000 A 
ATOM     24  N   UNL     1      -4.551  12.318  21.986  0.00  0.00    +0.000 N 
ATOM     25  C   UNL     1      -4.838  13.620  22.177  0.00  0.00    +0.000 A 
ATOM     26  C   UNL     1      -5.488  14.480  21.255  0.00  0.00    +0.000 A 
ATOM     27  C   UNL     1      -5.906  15.704  21.657  0.00  0.00    +0.000 A 
ATOM     28  C   UNL     1      -5.984  15.779  23.013  0.00  0.00    +0.000 A 
ATOM     29  C   UNL     1      -5.220  14.782  23.799  0.00  0.00    +0.000 A 
ATOM     30  C   UNL     1      -4.082  13.842  23.389  0.00  0.00    +0.000 A 
ATOM     31  H   UNL     1      -4.686  11.709  22.802  0.00  0.00    +0.000 HD
ENDBRANCH  21  22
ENDBRANCH   5  21
TORSDOF 3
ENDMDL
MODEL 5
REMARK VINA RESULT:      -7.6      2.956      7.057
REMARK  Name = 
REMARK  4 active torsions:
REMARK  status: ('A' for Active; 'I' for Inactive)
REMARK    1  A    between atoms: C_1  and  N_2
REMARK    2  A    between atoms: C_5  and  C_6
REMARK    3  A    between atoms: C_6  and  C_7
REMARK    4  A    between atoms: C_17  and  C_18
REMARK                            x       y       z     vdW  Elec       q    Type
REMARK                         _______ _______ _______ _____ _____    ______ ____
ROOT
ATOM      1  C   UNL     1      -0.609   9.886  23.226  0.00  0.00    +0.000 C 
ATOM      2  N   UNL     1      -0.315  10.655  22.005  0.00  0.00    +0.000 N 
ATOM      3  C   UNL     1      -0.466  12.038  21.990  0.00  0.00    +0.000 C 
ATOM      4  O   UNL     1      -1.043  12.613  22.924  0.00  0.00    +0.000 OA
ATOM      5  C   UNL     1       0.037  12.870  20.732  0.00  0.00    +0.000 C 
ATOM      6  N   UNL     1      -0.969  12.565  19.644  0.00  0.00    +0.000 NA
ATOM      7  C   UNL     1      -1.021  11.367  19.160  0.00  0.00    +0.000 C 
ATOM      8  C   UNL     1      -0.103  10.287  19.562  0.00  0.00    +0.000 A 
ATOM      9  C   UNL     1       0.590   9.682  18.504  0.00  0.00    +0.000 A 
ATOM     10  C   UNL     1       1.509   8.686  18.758  0.00  0.00    +0.000 A 
ATOM     11 CL   UNL     1       2.524   8.152  17.485  0.00  0.00    +0.000 Cl
ATOM     12  C   UNL     1       1.770   8.303  20.065  0.00  0.00    +0.000 A 
ATOM     13  C   UNL     1       1.123   8.946  21.121  0.00  0.00    +0.000 A 
ATOM     14  C   UNL     1       0.177   9.943  20.889  0.00  0.00    +0.000 A 
ENDROOT
BRANCH   7  15
ATOM     15  C   UNL     1      -1.973  11.050  18.050  0.00  0.00    +0.000 A 
ATOM     16  C   UNL     1      -1.680  10.038  17.134  0.00  0.00    +0.000 A 
ATOM     17  C   UNL     1      -2.597   9.747  16.124  0.00  0.00    +0.000 A 
ATOM     18  C   UNL     1      -3.830  10.404  16.092  0.00  0.00    +0.000 A 
ATOM     19  C   UNL     1      -4.150  11.366  17.046  0.00  0.00    +0.000 A 
ATOM     20  C   UNL     1      -3.203  11.721  17.998  0.00  0.00    +0.000 A 
ENDBRANCH   7  15
BRANCH   5  21
ATOM     21  C   UNL     1       1.585  12.969  20.069  0.00  0.00    +0.000 C 
BRANCH  21  22
ATOM     22  C   UNL     1       2.624  14.375  19.817  0.00  0.00    +0.000 A 
ATOM     23  C   UNL     1       3.231  13.551  18.866  0.00  0.00    +0.000 A 
ATOM     24  N   UNL     1       3.139  14.470  17.873  0.00  0.00    +0.000 N 
ATOM     25  C   UNL     1       4.260  15.051  18.343  0.00  0.00    +0.000 A 
ATOM     26  C   UNL     1       5.583  14.807  17.892  0.00  0.00    +0.000 A 
ATOM     27  C   UNL     1       6.591  15.615  18.300  0.00  0.00    +0.000 A 
ATOM     28  C   UNL     1       6.115  16.793  18.787  0.00  0.00    +0.000 A 
ATOM     29  C   UNL     1       4.696  16.835  19.210  0.00  0.00    +0.000 A 
ATOM     30  C   UNL     1       3.704  15.706  19.504  0.00  0.00    +0.000 A 
ATOM     31  H   UNL     1       2.324  15.087  17.781  0.00  0.00    +0.000 HD
ENDBRANCH  21  22
ENDBRANCH   5  21
TORSDOF 3
ENDMDL
MODEL 6
REMARK VINA RESULT:      -7.6      5.430      9.060
REMARK  Name = 
REMARK  4 active torsions:
REMARK  status: ('A' for Active; 'I' for Inactive)
REMARK    1  A    between atoms: C_1  and  N_2
REMARK    2  A    between atoms: C_5  and  C_6
REMARK    3  A    between atoms: C_6  and  C_7
REMARK    4  A    between atoms: C_17  and  C_18
REMARK                            x       y       z     vdW  Elec       q    Type
REMARK                         _______ _______ _______ _____ _____    ______ ____
ROOT
ATOM      1  C   UNL     1       5.167   2.744  20.012  0.00  0.00    +0.000 C 
ATOM      2  N   UNL     1       4.810   3.735  18.983  0.00  0.00    +0.000 N 
ATOM      3  C   UNL     1       3.513   3.796  18.485  0.00  0.00    +0.000 C 
ATOM      4  O   UNL     1       2.702   2.894  18.740  0.00  0.00    +0.000 OA
ATOM      5  C   UNL     1       3.096   4.990  17.521  0.00  0.00    +0.000 C 
ATOM      6  N   UNL     1       3.781   4.680  16.209  0.00  0.00    +0.000 NA
ATOM      7  C   UNL     1       5.072   4.736  16.150  0.00  0.00    +0.000 C 
ATOM      8  C   UNL     1       5.920   5.154  17.280  0.00  0.00    +0.000 A 
ATOM      9  C   UNL     1       6.791   6.215  16.998  0.00  0.00    +0.000 A 
ATOM     10  C   UNL     1       7.607   6.723  17.987  0.00  0.00    +0.000 A 
ATOM     11 CL   UNL     1       8.462   8.178  17.690  0.00  0.00    +0.000 Cl
ATOM     12  C   UNL     1       7.543   6.203  19.271  0.00  0.00    +0.000 A 
ATOM     13  C   UNL     1       6.634   5.186  19.565  0.00  0.00    +0.000 A 
ATOM     14  C   UNL     1       5.812   4.644  18.578  0.00  0.00    +0.000 A 
ENDROOT
BRANCH   7  15
ATOM     15  C   UNL     1       5.772   4.481  14.852  0.00  0.00    +0.000 A 
ATOM     16  C   UNL     1       5.149   3.740  13.847  0.00  0.00    +0.000 A 
ATOM     17  C   UNL     1       5.815   3.538  12.637  0.00  0.00    +0.000 A 
ATOM     18  C   UNL     1       7.050   4.151  12.412  0.00  0.00    +0.000 A 
ATOM     19  C   UNL     1       7.640   4.946  13.390  0.00  0.00    +0.000 A 
ATOM     20  C   UNL     1       7.022   5.075  14.627  0.00  0.00    +0.000 A 
ENDBRANCH   7  15
BRANCH   5  21
ATOM     21  C   UNL     1       3.131   6.653  17.807  0.00  0.00    +0.000 C 
BRANCH  21  22
ATOM     22  C   UNL     1       2.159   7.637  18.906  0.00  0.00    +0.000 A 
ATOM     23  C   UNL     1       2.356   8.622  17.936  0.00  0.00    +0.000 A 
ATOM     24  N   UNL     1       1.036   8.911  17.825  0.00  0.00    +0.000 N 
ATOM     25  C   UNL     1       1.147   9.705  18.907  0.00  0.00    +0.000 A 
ATOM     26  C   UNL     1       1.377  11.105  18.900  0.00  0.00    +0.000 A 
ATOM     27  C   UNL     1       1.252  11.813  20.049  0.00  0.00    +0.000 A 
ATOM     28  C   UNL     1       0.536  11.124  20.978  0.00  0.00    +0.000 A 
ATOM     29  C   UNL     1       0.420   9.657  20.803  0.00  0.00    +0.000 A 
ATOM     30  C   UNL     1       1.218   8.686  19.929  0.00  0.00    +0.000 A 
ATOM     31  H   UNL     1       0.316   8.181  17.882  0.00  0.00    +0.000 HD
ENDBRANCH  21  22
ENDBRANCH   5  21
TORSDOF 3
ENDMDL
MODEL 7
REMARK VINA RESULT:      -7.6      2.824      5.003
REMARK  Name = 
REMARK  4 active torsions:
REMARK  status: ('A' for Active; 'I' for Inactive)
REMARK    1  A    between atoms: C_1  and  N_2
REMARK    2  A    between atoms: C_5  and  C_6
REMARK    3  A    between atoms: C_6  and  C_7
REMARK    4  A    between atoms: C_17  and  C_18
REMARK                            x       y       z     vdW  Elec       q    Type
REMARK                         _______ _______ _______ _____ _____    ______ ____
ROOT
ATOM      1  C   UNL     1      -0.422  10.008  23.031  0.00  0.00    +0.000 C 
ATOM      2  N   UNL     1      -0.273  10.574  21.680  0.00  0.00    +0.000 N 
ATOM      3  C   UNL     1       0.100   9.763  20.613  0.00  0.00    +0.000 C 
ATOM      4  O   UNL     1       0.513   8.612  20.819  0.00  0.00    +0.000 OA
ATOM      5  C   UNL     1       0.069  10.344  19.134  0.00  0.00    +0.000 C 
ATOM      6  N   UNL     1       1.250  11.287  19.068  0.00  0.00    +0.000 NA
ATOM      7  C   UNL     1       1.224  12.370  19.775  0.00  0.00    +0.000 C 
ATOM      8  C   UNL     1       0.072  12.778  20.597  0.00  0.00    +0.000 A 
ATOM      9  C   UNL     1      -0.426  14.058  20.315  0.00  0.00    +0.000 A 
ATOM     10  C   UNL     1      -1.529  14.535  20.991  0.00  0.00    +0.000 A 
ATOM     11 CL   UNL     1      -2.269  15.983  20.448  0.00  0.00    +0.000 Cl
ATOM     12  C   UNL     1      -2.166  13.736  21.928  0.00  0.00    +0.000 A 
ATOM     13  C   UNL     1      -1.705  12.440  22.165  0.00  0.00    +0.000 A 
ATOM     14  C   UNL     1      -0.581  11.941  21.508  0.00  0.00    +0.000 A 
ENDROOT
BRANCH   7  15
ATOM     15  C   UNL     1       2.358  13.344  19.691  0.00  0.00    +0.000 A 
ATOM     16  C   UNL     1       3.016  13.763  20.849  0.00  0.00    +0.000 A 
ATOM     17  C   UNL     1       4.086  14.652  20.740  0.00  0.00    +0.000 A 
ATOM     18  C   UNL     1       4.543  15.041  19.479  0.00  0.00    +0.000 A 
ATOM     19  C   UNL     1       3.929  14.569  18.322  0.00  0.00    +0.000 A 
ATOM     20  C   UNL     1       2.809  13.755  18.429  0.00  0.00    +0.000 A 
ENDBRANCH   7  15
BRANCH   5  21
ATOM     21  C   UNL     1      -1.228  10.990  18.269  0.00  0.00    +0.000 C 
BRANCH  21  22
ATOM     22  C   UNL     1      -2.782  11.602  18.843  0.00  0.00    +0.000 A 
ATOM     23  C   UNL     1      -3.183  11.342  17.530  0.00  0.00    +0.000 A 
ATOM     24  N   UNL     1      -4.263  10.612  17.904  0.00  0.00    +0.000 N 
ATOM     25  C   UNL     1      -4.947  11.760  18.073  0.00  0.00    +0.000 A 
ATOM     26  C   UNL     1      -5.792  12.381  17.118  0.00  0.00    +0.000 A 
ATOM     27  C   UNL     1      -6.585  13.413  17.492  0.00  0.00    +0.000 A 
ATOM     28  C   UNL     1      -6.739  13.453  18.844  0.00  0.00    +0.000 A 
ATOM     29  C   UNL     1      -5.738  12.738  19.668  0.00  0.00    +0.000 A 
ATOM     30  C   UNL     1      -4.349  12.198  19.314  0.00  0.00    +0.000 A 
ATOM     31  H   UNL     1      -4.237   9.987  18.718  0.00  0.00    +0.000 HD
ENDBRANCH  21  22
ENDBRANCH   5  21
TORSDOF 3
ENDMDL
MODEL 8
REMARK VINA RESULT:      -7.3      3.314      6.072
REMARK  Name = 
REMARK  4 active torsions:
REMARK  status: ('A' for Active; 'I' for Inactive)
REMARK    1  A    between atoms: C_1  and  N_2
REMARK    2  A    between atoms: C_5  and  C_6
REMARK    3  A    between atoms: C_6  and  C_7
REMARK    4  A    between atoms: C_17  and  C_18
REMARK                            x       y       z     vdW  Elec       q    Type
REMARK                         _______ _______ _______ _____ _____    ______ ____
ROOT
ATOM      1  C   UNL     1      -0.868  10.693  23.110  0.00  0.00    +0.000 C 
ATOM      2  N   UNL     1      -1.370  11.614  22.076  0.00  0.00    +0.000 N 
ATOM      3  C   UNL     1      -2.601  12.244  22.231  0.00  0.00    +0.000 C 
ATOM      4  O   UNL     1      -3.378  11.884  23.126  0.00  0.00    +0.000 OA
ATOM      5  C   UNL     1      -3.040  13.376  21.204  0.00  0.00    +0.000 C 
ATOM      6  N   UNL     1      -3.375  12.631  19.932  0.00  0.00    +0.000 NA
ATOM      7  C   UNL     1      -2.423  12.045  19.282  0.00  0.00    +0.000 C 
ATOM      8  C   UNL     1      -1.005  12.117  19.675  0.00  0.00    +0.000 A 
ATOM      9  C   UNL     1      -0.142  12.582  18.674  0.00  0.00    +0.000 A 
ATOM     10  C   UNL     1       1.204  12.734  18.935  0.00  0.00    +0.000 A 
ATOM     11 CL   UNL     1       2.184  13.546  17.787  0.00  0.00    +0.000 Cl
ATOM     12  C   UNL     1       1.699  12.454  20.200  0.00  0.00    +0.000 A 
ATOM     13  C   UNL     1       0.829  12.047  21.213  0.00  0.00    +0.000 A 
ATOM     14  C   UNL     1      -0.532  11.870  20.969  0.00  0.00    +0.000 A 
ENDROOT
BRANCH   7  15
ATOM     15  C   UNL     1      -2.720  11.341  17.995  0.00  0.00    +0.000 A 
ATOM     16  C   UNL     1      -1.911  10.287  17.563  0.00  0.00    +0.000 A 
ATOM     17  C   UNL     1      -2.226   9.632  16.371  0.00  0.00    +0.000 A 
ATOM     18  C   UNL     1      -3.387   9.974  15.674  0.00  0.00    +0.000 A 
ATOM     19  C   UNL     1      -4.229  10.980  16.141  0.00  0.00    +0.000 A 
ATOM     20  C   UNL     1      -3.871  11.693  17.278  0.00  0.00    +0.000 A 
ENDBRANCH   7  15
BRANCH   5  21
ATOM     21  C   UNL     1      -2.272  14.831  20.830  0.00  0.00    +0.000 C 
BRANCH  21  22
ATOM     22  C   UNL     1      -0.601  15.336  21.101  0.00  0.00    +0.000 A 
ATOM     23  C   UNL     1      -0.760  15.960  19.862  0.00  0.00    +0.000 A 
ATOM     24  N   UNL     1      -0.332  17.166  20.307  0.00  0.00    +0.000 N 
ATOM     25  C   UNL     1       0.937  16.750  20.133  0.00  0.00    +0.000 A 
ATOM     26  C   UNL     1       1.742  16.972  18.986  0.00  0.00    +0.000 A 
ATOM     27  C   UNL     1       3.066  16.687  19.029  0.00  0.00    +0.000 A 
ATOM     28  C   UNL     1       3.509  16.589  20.312  0.00  0.00    +0.000 A 
ATOM     29  C   UNL     1       2.499  16.349  21.368  0.00  0.00    +0.000 A 
ATOM     30  C   UNL     1       1.046  15.873  21.277  0.00  0.00    +0.000 A 
ATOM     31  H   UNL     1      -0.561  17.508  21.248  0.00  0.00    +0.000 HD
ENDBRANCH  21  22
ENDBRANCH   5  21
TORSDOF 3
ENDMDL
MODEL 9
REMARK VINA RESULT:      -7.2      3.063      5.451
REMARK  Name = 
REMARK  4 active torsions:
REMARK  status: ('A' for Active; 'I' for Inactive)
REMARK    1  A    between atoms: C_1  and  N_2
REMARK    2  A    between atoms: C_5  and  C_6
REMARK    3  A    between atoms: C_6  and  C_7
REMARK    4  A    between atoms: C_17  and  C_18
REMARK                            x       y       z     vdW  Elec       q    Type
REMARK                         _______ _______ _______ _____ _____    ______ ____
ROOT
ATOM      1  C   UNL     1       0.150  10.370  21.966  0.00  0.00    +0.000 C 
ATOM      2  N   UNL     1      -0.578  11.344  21.135  0.00  0.00    +0.000 N 
ATOM      3  C   UNL     1      -1.043  10.987  19.874  0.00  0.00    +0.000 C 
ATOM      4  O   UNL     1      -0.675   9.926  19.350  0.00  0.00    +0.000 OA
ATOM      5  C   UNL     1      -1.989  11.982  19.073  0.00  0.00    +0.000 C 
ATOM      6  N   UNL     1      -1.074  13.099  18.620  0.00  0.00    +0.000 NA
ATOM      7  C   UNL     1      -0.561  13.885  19.510  0.00  0.00    +0.000 C 
ATOM      8  C   UNL     1      -0.871  13.799  20.947  0.00  0.00    +0.000 A 
ATOM      9  C   UNL     1      -1.344  14.990  21.517  0.00  0.00    +0.000 A 
ATOM     10  C   UNL     1      -1.707  15.024  22.847  0.00  0.00    +0.000 A 
ATOM     11 CL   UNL     1      -2.522  16.407  23.447  0.00  0.00    +0.000 Cl
ATOM     12  C   UNL     1      -1.635  13.870  23.614  0.00  0.00    +0.000 A 
ATOM     13  C   UNL     1      -1.220  12.673  23.030  0.00  0.00    +0.000 A 
ATOM     14  C   UNL     1      -0.830  12.617  21.693  0.00  0.00    +0.000 A 
ENDROOT
BRANCH   7  15
ATOM     15  C   UNL     1       0.309  15.027  19.085  0.00  0.00    +0.000 A 
ATOM     16  C   UNL     1       1.699  14.908  19.125  0.00  0.00    +0.000 A 
ATOM     17  C   UNL     1       2.487  15.979  18.700  0.00  0.00    +0.000 A 
ATOM     18  C   UNL     1       1.882  17.116  18.158  0.00  0.00    +0.000 A 
ATOM     19  C   UNL     1       0.496  17.206  18.054  0.00  0.00    +0.000 A 
ATOM     20  C   UNL     1      -0.292  16.179  18.559  0.00  0.00    +0.000 A 
ENDBRANCH   7  15
BRANCH   5  21
ATOM     21  C   UNL     1      -3.489  12.616  19.515  0.00  0.00    +0.000 C 
BRANCH  21  22
ATOM     22  C   UNL     1      -4.261  12.703  21.102  0.00  0.00    +0.000 A 
ATOM     23  C   UNL     1      -5.432  12.794  20.345  0.00  0.00    +0.000 A 
ATOM     24  N   UNL     1      -6.052  11.789  21.010  0.00  0.00    +0.000 N 
ATOM     25  C   UNL     1      -6.394  12.670  21.970  0.00  0.00    +0.000 A 
ATOM     26  C   UNL     1      -7.618  13.382  22.057  0.00  0.00    +0.000 A 
ATOM     27  C   UNL     1      -7.916  14.070  23.185  0.00  0.00    +0.000 A 
ATOM     28  C   UNL     1      -7.155  13.655  24.234  0.00  0.00    +0.000 A 
ATOM     29  C   UNL     1      -5.903  12.927  23.924  0.00  0.00    +0.000 A 
ATOM     30  C   UNL     1      -5.110  12.806  22.619  0.00  0.00    +0.000 A 
ATOM     31  H   UNL     1      -5.542  10.958  21.332  0.00  0.00    +0.000 HD
ENDBRANCH  21  22
ENDBRANCH   5  21
TORSDOF 3
ENDMDL
