MODEL 1
REMARK VINA RESULT:      -9.3      0.000      0.000
REMARK  Name = 
REMARK  3 active torsions:
REMARK  status: ('A' for Active; 'I' for Inactive)
REMARK    1  A    between atoms: C_2  and  C_16
REMARK    2  A    between atoms: N_3  and  C_4
REMARK    3  A    between atoms: C_20  and  C_21
REMARK                            x       y       z     vdW  Elec       q    Type
REMARK                         _______ _______ _______ _____ _____    ______ ____
ROOT
ATOM      1  O   UNL     1       3.991   2.656  17.777  0.00  0.00    +0.000 OA
ATOM      2  C   UNL     1       4.251   3.612  18.502  0.00  0.00    +0.000 C 
ATOM      3  N   UNL     1       5.182   4.591  18.194  0.00  0.00    +0.000 N 
ATOM      4  H   UNL     1       5.618   5.089  18.963  0.00  0.00    +0.000 HD
ENDROOT
BRANCH   3   5
ATOM      5  C   UNL     1       5.851   4.676  16.951  0.00  0.00    +0.000 A 
ATOM      6  C   UNL     1       5.407   3.947  15.837  0.00  0.00    +0.000 A 
ATOM      7  C   UNL     1       6.038   4.101  14.597  0.00  0.00    +0.000 A 
ATOM      8  C   UNL     1       5.542   3.407  13.405  0.00  0.00    +0.000 A 
ATOM      9  C   UNL     1       6.146   3.606  12.229  0.00  0.00    +0.000 A 
ATOM     10  N   UNL     1       7.231   4.440  12.118  0.00  0.00    +0.000 N 
ATOM     11  C   UNL     1       7.798   5.128  13.167  0.00  0.00    +0.000 A 
ATOM     12  O   UNL     1       8.779   5.848  13.021  0.00  0.00    +0.000 OA
ATOM     13  C   UNL     1       7.144   4.958  14.490  0.00  0.00    +0.000 A 
ATOM     14  C   UNL     1       7.609   5.672  15.598  0.00  0.00    +0.000 A 
ATOM     15  C   UNL     1       6.942   5.551  16.816  0.00  0.00    +0.000 A 
ATOM     16 CL   UNL     1       7.522   6.457  18.170  0.00  0.00    +0.000 Cl
ATOM     17  H   UNL     1       7.674   4.576  11.217  0.00  0.00    +0.000 HD
ENDBRANCH   3   5
BRANCH   2  18
ATOM     18  C   UNL     1       3.593   3.820  19.853  0.00  0.00    +0.000 C 
ATOM     19  C   UNL     1       3.405   2.512  20.604  0.00  0.00    +0.000 C 
ATOM     20  N   UNL     1       2.396   2.818  21.625  0.00  0.00    +0.000 NA
ATOM     21  C   UNL     1       1.458   3.762  20.993  0.00  0.00    +0.000 C 
ATOM     22  C   UNL     1       2.154   4.338  19.747  0.00  0.00    +0.000 C 
ATOM     23  H   UNL     1       2.843   3.289  22.412  0.00  0.00    +0.000 HD
BRANCH  22  24
ATOM     24  C   UNL     1       2.030   5.844  19.640  0.00  0.00    +0.000 A 
ATOM     25  C   UNL     1       1.626   6.632  20.729  0.00  0.00    +0.000 A 
ATOM     26  C   UNL     1       1.451   8.010  20.587  0.00  0.00    +0.000 A 
ATOM     27  C   UNL     1       1.681   8.613  19.353  0.00  0.00    +0.000 A 
ATOM     28 CL   UNL     1       1.426  10.304  19.171  0.00  0.00    +0.000 Cl
ATOM     29  C   UNL     1       2.105   7.853  18.267  0.00  0.00    +0.000 A 
ATOM     30  C   UNL     1       2.284   6.475  18.411  0.00  0.00    +0.000 A 
ENDBRANCH  22  24
ENDBRANCH   2  18
TORSDOF 3
ENDMDL
MODEL 2
REMARK VINA RESULT:      -8.9      3.313      7.699
REMARK  Name = 
REMARK  3 active torsions:
REMARK  status: ('A' for Active; 'I' for Inactive)
REMARK    1  A    between atoms: C_2  and  C_16
REMARK    2  A    between atoms: N_3  and  C_4
REMARK    3  A    between atoms: C_20  and  C_21
REMARK                            x       y       z     vdW  Elec       q    Type
REMARK                         _______ _______ _______ _____ _____    ______ ____
ROOT
ATOM      1  O   UNL     1       1.260   5.150  18.063  0.00  0.00    +0.000 OA
ATOM      2  C   UNL     1       2.218   5.047  18.825  0.00  0.00    +0.000 C 
ATOM      3  N   UNL     1       2.665   6.063  19.652  0.00  0.00    +0.000 N 
ATOM      4  H   UNL     1       3.641   6.053  19.930  0.00  0.00    +0.000 HD
ENDROOT
BRANCH   3   5
ATOM      5  C   UNL     1       1.996   7.299  19.814  0.00  0.00    +0.000 A 
ATOM      6  C   UNL     1       1.251   7.573  20.970  0.00  0.00    +0.000 A 
ATOM      7  C   UNL     1       0.657   8.829  21.145  0.00  0.00    +0.000 A 
ATOM      8  C   UNL     1      -0.061   9.162  22.378  0.00  0.00    +0.000 A 
ATOM      9  C   UNL     1      -0.584  10.384  22.526  0.00  0.00    +0.000 A 
ATOM     10  N   UNL     1      -0.473  11.330  21.538  0.00  0.00    +0.000 N 
ATOM     11  C   UNL     1       0.158  11.128  20.331  0.00  0.00    +0.000 A 
ATOM     12  O   UNL     1       0.216  12.000  19.471  0.00  0.00    +0.000 OA
ATOM     13  C   UNL     1       0.779   9.793  20.132  0.00  0.00    +0.000 A 
ATOM     14  C   UNL     1       1.499   9.522  18.966  0.00  0.00    +0.000 A 
ATOM     15  C   UNL     1       2.129   8.288  18.825  0.00  0.00    +0.000 A 
ATOM     16 CL   UNL     1       3.031   7.980  17.382  0.00  0.00    +0.000 Cl
ATOM     17  H   UNL     1      -0.877  12.249  21.671  0.00  0.00    +0.000 HD
ENDBRANCH   3   5
BRANCH   2  18
ATOM     18  C   UNL     1       3.051   3.784  18.928  0.00  0.00    +0.000 C 
ATOM     19  C   UNL     1       2.747   3.001  20.194  0.00  0.00    +0.000 C 
ATOM     20  N   UNL     1       3.898   2.106  20.358  0.00  0.00    +0.000 NA
ATOM     21  C   UNL     1       5.071   2.874  19.904  0.00  0.00    +0.000 C 
ATOM     22  C   UNL     1       4.551   4.064  19.077  0.00  0.00    +0.000 C 
ATOM     23  H   UNL     1       3.789   1.297  19.745  0.00  0.00    +0.000 HD
BRANCH  22  24
ATOM     24  C   UNL     1       5.293   4.248  17.769  0.00  0.00    +0.000 A 
ATOM     25  C   UNL     1       6.640   4.639  17.732  0.00  0.00    +0.000 A 
ATOM     26  C   UNL     1       7.282   4.872  16.514  0.00  0.00    +0.000 A 
ATOM     27  C   UNL     1       6.582   4.712  15.321  0.00  0.00    +0.000 A 
ATOM     28 CL   UNL     1       7.363   5.038  13.824  0.00  0.00    +0.000 Cl
ATOM     29  C   UNL     1       5.251   4.302  15.336  0.00  0.00    +0.000 A 
ATOM     30  C   UNL     1       4.611   4.066  16.555  0.00  0.00    +0.000 A 
ENDBRANCH  22  24
ENDBRANCH   2  18
TORSDOF 3
ENDMDL
MODEL 3
REMARK VINA RESULT:      -8.7      5.473      8.541
REMARK  Name = 
REMARK  3 active torsions:
REMARK  status: ('A' for Active; 'I' for Inactive)
REMARK    1  A    between atoms: C_2  and  C_16
REMARK    2  A    between atoms: N_3  and  C_4
REMARK    3  A    between atoms: C_20  and  C_21
REMARK                            x       y       z     vdW  Elec       q    Type
REMARK                         _______ _______ _______ _____ _____    ______ ____
ROOT
ATOM      1  O   UNL     1      -1.532  10.019  18.528  0.00  0.00    +0.000 OA
ATOM      2  C   UNL     1      -0.809  10.884  19.016  0.00  0.00    +0.000 C 
ATOM      3  N   UNL     1       0.430  10.633  19.581  0.00  0.00    +0.000 N 
ATOM      4  H   UNL     1       0.768  11.278  20.287  0.00  0.00    +0.000 HD
ENDROOT
BRANCH   3   5
ATOM      5  C   UNL     1       1.068   9.371  19.549  0.00  0.00    +0.000 A 
ATOM      6  C   UNL     1       1.881   8.998  18.468  0.00  0.00    +0.000 A 
ATOM      7  C   UNL     1       2.563   7.776  18.488  0.00  0.00    +0.000 A 
ATOM      8  C   UNL     1       3.476   7.401  17.405  0.00  0.00    +0.000 A 
ATOM      9  C   UNL     1       4.140   6.242  17.475  0.00  0.00    +0.000 A 
ATOM     10  N   UNL     1       3.973   5.389  18.537  0.00  0.00    +0.000 N 
ATOM     11  C   UNL     1       3.131   5.622  19.601  0.00  0.00    +0.000 A 
ATOM     12  O   UNL     1       3.001   4.821  20.519  0.00  0.00    +0.000 OA
ATOM     13  C   UNL     1       2.391   6.911  19.580  0.00  0.00    +0.000 A 
ATOM     14  C   UNL     1       1.566   7.262  20.651  0.00  0.00    +0.000 A 
ATOM     15  C   UNL     1       0.932   8.503  20.644  0.00  0.00    +0.000 A 
ATOM     16 CL   UNL     1      -0.071   8.926  21.989  0.00  0.00    +0.000 Cl
ATOM     17  H   UNL     1       4.486   4.516  18.570  0.00  0.00    +0.000 HD
ENDBRANCH   3   5
BRANCH   2  18
ATOM     18  C   UNL     1      -1.210  12.346  19.082  0.00  0.00    +0.000 C 
ATOM     19  C   UNL     1      -0.382  13.208  18.144  0.00  0.00    +0.000 C 
ATOM     20  N   UNL     1      -0.569  14.575  18.642  0.00  0.00    +0.000 NA
ATOM     21  C   UNL     1      -0.639  14.462  20.110  0.00  0.00    +0.000 C 
ATOM     22  C   UNL     1      -0.921  12.986  20.445  0.00  0.00    +0.000 C 
ATOM     23  H   UNL     1      -1.462  14.940  18.307  0.00  0.00    +0.000 HD
BRANCH  22  24
ATOM     24  C   UNL     1      -2.019  12.810  21.473  0.00  0.00    +0.000 A 
ATOM     25  C   UNL     1      -3.271  13.430  21.331  0.00  0.00    +0.000 A 
ATOM     26  C   UNL     1      -4.243  13.310  22.327  0.00  0.00    +0.000 A 
ATOM     27  C   UNL     1      -3.972  12.565  23.472  0.00  0.00    +0.000 A 
ATOM     28 CL   UNL     1      -5.156  12.453  24.714  0.00  0.00    +0.000 Cl
ATOM     29  C   UNL     1      -2.746  11.924  23.621  0.00  0.00    +0.000 A 
ATOM     30  C   UNL     1      -1.775  12.041  22.623  0.00  0.00    +0.000 A 
ENDBRANCH  22  24
ENDBRANCH   2  18
TORSDOF 3
ENDMDL
MODEL 4
REMARK VINA RESULT:      -8.7      4.204      7.131
REMARK  Name = 
REMARK  3 active torsions:
REMARK  status: ('A' for Active; 'I' for Inactive)
REMARK    1  A    between atoms: C_2  and  C_16
REMARK    2  A    between atoms: N_3  and  C_4
REMARK    3  A    between atoms: C_20  and  C_21
REMARK                            x       y       z     vdW  Elec       q    Type
REMARK                         _______ _______ _______ _____ _____    ______ ____
ROOT
ATOM      1  O   UNL     1      -0.350   9.076  19.901  0.00  0.00    +0.000 OA
ATOM      2  C   UNL     1       0.513   9.286  20.748  0.00  0.00    +0.000 C 
ATOM      3  N   UNL     1       1.549   8.414  21.036  0.00  0.00    +0.000 N 
ATOM      4  H   UNL     1       1.958   8.452  21.964  0.00  0.00    +0.000 HD
ENDROOT
BRANCH   3   5
ATOM      5  C   UNL     1       1.811   7.234  20.301  0.00  0.00    +0.000 A 
ATOM      6  C   UNL     1       1.551   5.968  20.846  0.00  0.00    +0.000 A 
ATOM      7  C   UNL     1       1.748   4.815  20.077  0.00  0.00    +0.000 A 
ATOM      8  C   UNL     1       1.410   3.489  20.601  0.00  0.00    +0.000 A 
ATOM      9  C   UNL     1       1.575   2.412  19.824  0.00  0.00    +0.000 A 
ATOM     10  N   UNL     1       2.068   2.525  18.548  0.00  0.00    +0.000 N 
ATOM     11  C   UNL     1       2.438   3.710  17.955  0.00  0.00    +0.000 A 
ATOM     12  O   UNL     1       2.891   3.758  16.818  0.00  0.00    +0.000 OA
ATOM     13  C   UNL     1       2.247   4.938  18.771  0.00  0.00    +0.000 A 
ATOM     14  C   UNL     1       2.532   6.192  18.226  0.00  0.00    +0.000 A 
ATOM     15  C   UNL     1       2.284   7.336  18.982  0.00  0.00    +0.000 A 
ATOM     16 CL   UNL     1       2.626   8.880  18.282  0.00  0.00    +0.000 Cl
ATOM     17  H   UNL     1       2.185   1.695  17.978  0.00  0.00    +0.000 HD
ENDBRANCH   3   5
BRANCH   2  18
ATOM     18  C   UNL     1       0.529  10.535  21.610  0.00  0.00    +0.000 C 
ATOM     19  C   UNL     1      -0.521  10.484  22.708  0.00  0.00    +0.000 C 
ATOM     20  N   UNL     1      -0.675  11.879  23.134  0.00  0.00    +0.000 NA
ATOM     21  C   UNL     1      -0.532  12.690  21.911  0.00  0.00    +0.000 C 
ATOM     22  C   UNL     1       0.128  11.800  20.843  0.00  0.00    +0.000 C 
ATOM     23  H   UNL     1       0.084  12.125  23.771  0.00  0.00    +0.000 HD
BRANCH  22  24
ATOM     24  C   UNL     1       1.267  12.487  20.118  0.00  0.00    +0.000 A 
ATOM     25  C   UNL     1       2.128  13.381  20.774  0.00  0.00    +0.000 A 
ATOM     26  C   UNL     1       3.127  14.056  20.069  0.00  0.00    +0.000 A 
ATOM     27  C   UNL     1       3.273  13.842  18.701  0.00  0.00    +0.000 A 
ATOM     28 CL   UNL     1       4.477  14.706  17.828  0.00  0.00    +0.000 Cl
ATOM     29  C   UNL     1       2.443  12.943  18.036  0.00  0.00    +0.000 A 
ATOM     30  C   UNL     1       1.448  12.265  18.743  0.00  0.00    +0.000 A 
ENDBRANCH  22  24
ENDBRANCH   2  18
TORSDOF 3
ENDMDL
MODEL 5
REMARK VINA RESULT:      -8.7      0.530      1.065
REMARK  Name = 
REMARK  3 active torsions:
REMARK  status: ('A' for Active; 'I' for Inactive)
REMARK    1  A    between atoms: C_2  and  C_16
REMARK    2  A    between atoms: N_3  and  C_4
REMARK    3  A    between atoms: C_20  and  C_21
REMARK                            x       y       z     vdW  Elec       q    Type
REMARK                         _______ _______ _______ _____ _____    ______ ____
ROOT
ATOM      1  O   UNL     1       3.181   3.858  17.231  0.00  0.00    +0.000 OA
ATOM      2  C   UNL     1       3.922   4.105  18.178  0.00  0.00    +0.000 C 
ATOM      3  N   UNL     1       5.274   4.378  18.056  0.00  0.00    +0.000 N 
ATOM      4  H   UNL     1       5.872   4.179  18.851  0.00  0.00    +0.000 HD
ENDROOT
BRANCH   3   5
ATOM      5  C   UNL     1       5.937   4.531  16.816  0.00  0.00    +0.000 A 
ATOM      6  C   UNL     1       5.566   3.769  15.697  0.00  0.00    +0.000 A 
ATOM      7  C   UNL     1       6.184   3.987  14.460  0.00  0.00    +0.000 A 
ATOM      8  C   UNL     1       5.758   3.256  13.263  0.00  0.00    +0.000 A 
ATOM      9  C   UNL     1       6.345   3.516  12.090  0.00  0.00    +0.000 A 
ATOM     10  N   UNL     1       7.349   4.447  11.987  0.00  0.00    +0.000 N 
ATOM     11  C   UNL     1       7.846   5.179  13.041  0.00  0.00    +0.000 A 
ATOM     12  O   UNL     1       8.757   5.987  12.903  0.00  0.00    +0.000 OA
ATOM     13  C   UNL     1       7.206   4.943  14.361  0.00  0.00    +0.000 A 
ATOM     14  C   UNL     1       7.600   5.691  15.474  0.00  0.00    +0.000 A 
ATOM     15  C   UNL     1       6.943   5.503  16.688  0.00  0.00    +0.000 A 
ATOM     16 CL   UNL     1       7.433   6.452  18.049  0.00  0.00    +0.000 Cl
ATOM     17  H   UNL     1       7.780   4.628  11.088  0.00  0.00    +0.000 HD
ENDBRANCH   3   5
BRANCH   2  18
ATOM     18  C   UNL     1       3.440   4.113  19.616  0.00  0.00    +0.000 C 
ATOM     19  C   UNL     1       3.431   2.720  20.223  0.00  0.00    +0.000 C 
ATOM     20  N   UNL     1       2.553   2.834  21.393  0.00  0.00    +0.000 NA
ATOM     21  C   UNL     1       1.484   3.771  21.002  0.00  0.00    +0.000 C 
ATOM     22  C   UNL     1       1.972   4.532  19.756  0.00  0.00    +0.000 C 
ATOM     23  H   UNL     1       3.073   3.247  22.168  0.00  0.00    +0.000 HD
BRANCH  22  24
ATOM     24  C   UNL     1       1.747   6.027  19.847  0.00  0.00    +0.000 A 
ATOM     25  C   UNL     1       2.107   6.894  18.803  0.00  0.00    +0.000 A 
ATOM     26  C   UNL     1       1.955   8.275  18.938  0.00  0.00    +0.000 A 
ATOM     27  C   UNL     1       1.440   8.802  20.120  0.00  0.00    +0.000 A 
ATOM     28 CL   UNL     1       1.293  10.506  20.299  0.00  0.00    +0.000 Cl
ATOM     29  C   UNL     1       1.056   7.958  21.158  0.00  0.00    +0.000 A 
ATOM     30  C   UNL     1       1.204   6.576  21.020  0.00  0.00    +0.000 A 
ENDBRANCH  22  24
ENDBRANCH   2  18
TORSDOF 3
ENDMDL
MODEL 6
REMARK VINA RESULT:      -8.5      3.948      7.149
REMARK  Name = 
REMARK  3 active torsions:
REMARK  status: ('A' for Active; 'I' for Inactive)
REMARK    1  A    between atoms: C_2  and  C_16
REMARK    2  A    between atoms: N_3  and  C_4
REMARK    3  A    between atoms: C_20  and  C_21
REMARK                            x       y       z     vdW  Elec       q    Type
REMARK                         _______ _______ _______ _____ _____    ______ ____
ROOT
ATOM      1  O   UNL     1       1.128   8.948  19.922  0.00  0.00    +0.000 OA
ATOM      2  C   UNL     1       1.632   9.194  18.830  0.00  0.00    +0.000 C 
ATOM      3  N   UNL     1       2.503   8.345  18.167  0.00  0.00    +0.000 N 
ATOM      4  H   UNL     1       3.160   8.757  17.513  0.00  0.00    +0.000 HD
ENDROOT
BRANCH   3   5
ATOM      5  C   UNL     1       2.814   7.038  18.606  0.00  0.00    +0.000 A 
ATOM      6  C   UNL     1       2.163   6.470  19.712  0.00  0.00    +0.000 A 
ATOM      7  C   UNL     1       2.432   5.149  20.087  0.00  0.00    +0.000 A 
ATOM      8  C   UNL     1       1.707   4.513  21.190  0.00  0.00    +0.000 A 
ATOM      9  C   UNL     1       1.963   3.237  21.497  0.00  0.00    +0.000 A 
ATOM     10  N   UNL     1       2.903   2.513  20.806  0.00  0.00    +0.000 N 
ATOM     11  C   UNL     1       3.659   3.006  19.767  0.00  0.00    +0.000 A 
ATOM     12  O   UNL     1       4.500   2.326  19.191  0.00  0.00    +0.000 OA
ATOM     13  C   UNL     1       3.390   4.414  19.372  0.00  0.00    +0.000 A 
ATOM     14  C   UNL     1       4.062   4.976  18.284  0.00  0.00    +0.000 A 
ATOM     15  C   UNL     1       3.749   6.275  17.888  0.00  0.00    +0.000 A 
ATOM     16 CL   UNL     1       4.580   6.946  16.527  0.00  0.00    +0.000 Cl
ATOM     17  H   UNL     1       3.081   1.547  21.056  0.00  0.00    +0.000 HD
ENDBRANCH   3   5
BRANCH   2  18
ATOM     18  C   UNL     1       1.378  10.490  18.084  0.00  0.00    +0.000 C 
ATOM     19  C   UNL     1       2.645  11.314  17.921  0.00  0.00    +0.000 C 
ATOM     20  N   UNL     1       2.167  12.665  17.607  0.00  0.00    +0.000 NA
ATOM     21  C   UNL     1       0.938  12.850  18.400  0.00  0.00    +0.000 C 
ATOM     22  C   UNL     1       0.465  11.455  18.849  0.00  0.00    +0.000 C 
ATOM     23  H   UNL     1       1.920  12.716  16.618  0.00  0.00    +0.000 HD
BRANCH  22  24
ATOM     24  C   UNL     1      -1.017  11.231  18.629  0.00  0.00    +0.000 A 
ATOM     25  C   UNL     1      -1.494  10.238  17.758  0.00  0.00    +0.000 A 
ATOM     26  C   UNL     1      -2.862  10.097  17.518  0.00  0.00    +0.000 A 
ATOM     27  C   UNL     1      -3.767  10.948  18.148  0.00  0.00    +0.000 A 
ATOM     28 CL   UNL     1      -5.448  10.799  17.818  0.00  0.00    +0.000 Cl
ATOM     29  C   UNL     1      -3.316  11.924  19.032  0.00  0.00    +0.000 A 
ATOM     30  C   UNL     1      -1.947  12.061  19.275  0.00  0.00    +0.000 A 
ENDBRANCH  22  24
ENDBRANCH   2  18
TORSDOF 3
ENDMDL
MODEL 7
REMARK VINA RESULT:      -8.4      5.755      8.731
REMARK  Name = 
REMARK  3 active torsions:
REMARK  status: ('A' for Active; 'I' for Inactive)
REMARK    1  A    between atoms: C_2  and  C_16
REMARK    2  A    between atoms: N_3  and  C_4
REMARK    3  A    between atoms: C_20  and  C_21
REMARK                            x       y       z     vdW  Elec       q    Type
REMARK                         _______ _______ _______ _____ _____    ______ ____
ROOT
ATOM      1  O   UNL     1      -1.683  10.019  18.656  0.00  0.00    +0.000 OA
ATOM      2  C   UNL     1      -0.905  10.932  18.917  0.00  0.00    +0.000 C 
ATOM      3  N   UNL     1       0.406  10.745  19.323  0.00  0.00    +0.000 N 
ATOM      4  H   UNL     1       0.838  11.473  19.883  0.00  0.00    +0.000 HD
ENDROOT
BRANCH   3   5
ATOM      5  C   UNL     1       1.044   9.483  19.361  0.00  0.00    +0.000 A 
ATOM      6  C   UNL     1       1.863   9.053  18.306  0.00  0.00    +0.000 A 
ATOM      7  C   UNL     1       2.545   7.834  18.394  0.00  0.00    +0.000 A 
ATOM      8  C   UNL     1       3.464   7.403  17.337  0.00  0.00    +0.000 A 
ATOM      9  C   UNL     1       4.127   6.250  17.472  0.00  0.00    +0.000 A 
ATOM     10  N   UNL     1       3.954   5.454  18.578  0.00  0.00    +0.000 N 
ATOM     11  C   UNL     1       3.107   5.743  19.623  0.00  0.00    +0.000 A 
ATOM     12  O   UNL     1       2.973   4.992  20.582  0.00  0.00    +0.000 OA
ATOM     13  C   UNL     1       2.367   7.029  19.530  0.00  0.00    +0.000 A 
ATOM     14  C   UNL     1       1.536   7.436  20.576  0.00  0.00    +0.000 A 
ATOM     15  C   UNL     1       0.903   8.675  20.501  0.00  0.00    +0.000 A 
ATOM     16 CL   UNL     1      -0.107   9.168  21.816  0.00  0.00    +0.000 Cl
ATOM     17  H   UNL     1       4.468   4.584  18.659  0.00  0.00    +0.000 HD
ENDBRANCH   3   5
BRANCH   2  18
ATOM     18  C   UNL     1      -1.306  12.394  18.852  0.00  0.00    +0.000 C 
ATOM     19  C   UNL     1      -0.162  13.280  18.387  0.00  0.00    +0.000 C 
ATOM     20  N   UNL     1      -0.553  14.632  18.800  0.00  0.00    +0.000 NA
ATOM     21  C   UNL     1      -1.243  14.473  20.092  0.00  0.00    +0.000 C 
ATOM     22  C   UNL     1      -1.632  12.990  20.227  0.00  0.00    +0.000 C 
ATOM     23  H   UNL     1      -1.218  15.013  18.126  0.00  0.00    +0.000 HD
BRANCH  22  24
ATOM     24  C   UNL     1      -3.064  12.789  20.679  0.00  0.00    +0.000 A 
ATOM     25  C   UNL     1      -4.087  12.467  19.774  0.00  0.00    +0.000 A 
ATOM     26  C   UNL     1      -5.411  12.357  20.204  0.00  0.00    +0.000 A 
ATOM     27  C   UNL     1      -5.723  12.566  21.544  0.00  0.00    +0.000 A 
ATOM     28 CL   UNL     1      -7.360  12.470  22.063  0.00  0.00    +0.000 Cl
ATOM     29  C   UNL     1      -4.720  12.864  22.462  0.00  0.00    +0.000 A 
ATOM     30  C   UNL     1      -3.395  12.970  22.032  0.00  0.00    +0.000 A 
ENDBRANCH  22  24
ENDBRANCH   2  18
TORSDOF 3
ENDMDL
MODEL 8
REMARK VINA RESULT:      -8.4      3.980      6.088
REMARK  Name = 
REMARK  3 active torsions:
REMARK  status: ('A' for Active; 'I' for Inactive)
REMARK    1  A    between atoms: C_2  and  C_16
REMARK    2  A    between atoms: N_3  and  C_4
REMARK    3  A    between atoms: C_20  and  C_21
REMARK                            x       y       z     vdW  Elec       q    Type
REMARK                         _______ _______ _______ _____ _____    ______ ____
ROOT
ATOM      1  O   UNL     1       1.039   9.253  18.902  0.00  0.00    +0.000 OA
ATOM      2  C   UNL     1       1.364   8.971  20.052  0.00  0.00    +0.000 C 
ATOM      3  N   UNL     1       2.036   7.814  20.409  0.00  0.00    +0.000 N 
ATOM      4  H   UNL     1       1.916   7.468  21.355  0.00  0.00    +0.000 HD
ENDROOT
BRANCH   3   5
ATOM      5  C   UNL     1       2.543   6.880  19.476  0.00  0.00    +0.000 A 
ATOM      6  C   UNL     1       3.385   7.285  18.429  0.00  0.00    +0.000 A 
ATOM      7  C   UNL     1       3.936   6.336  17.560  0.00  0.00    +0.000 A 
ATOM      8  C   UNL     1       4.878   6.729  16.509  0.00  0.00    +0.000 A 
ATOM      9  C   UNL     1       5.414   5.791  15.720  0.00  0.00    +0.000 A 
ATOM     10  N   UNL     1       5.088   4.466  15.868  0.00  0.00    +0.000 N 
ATOM     11  C   UNL     1       4.203   3.979  16.803  0.00  0.00    +0.000 A 
ATOM     12  O   UNL     1       3.929   2.787  16.885  0.00  0.00    +0.000 OA
ATOM     13  C   UNL     1       3.602   4.982  17.720  0.00  0.00    +0.000 A 
ATOM     14  C   UNL     1       2.745   4.570  18.744  0.00  0.00    +0.000 A 
ATOM     15  C   UNL     1       2.244   5.517  19.635  0.00  0.00    +0.000 A 
ATOM     16 CL   UNL     1       1.200   4.983  20.907  0.00  0.00    +0.000 Cl
ATOM     17  H   UNL     1       5.505   3.772  15.259  0.00  0.00    +0.000 HD
ENDBRANCH   3   5
BRANCH   2  18
ATOM     18  C   UNL     1       1.035   9.859  21.238  0.00  0.00    +0.000 C 
ATOM     19  C   UNL     1       0.519   9.061  22.423  0.00  0.00    +0.000 C 
ATOM     20  N   UNL     1      -0.150  10.054  23.272  0.00  0.00    +0.000 NA
ATOM     21  C   UNL     1      -0.784  11.010  22.346  0.00  0.00    +0.000 C 
ATOM     22  C   UNL     1      -0.130  10.818  20.966  0.00  0.00    +0.000 C 
ATOM     23  H   UNL     1       0.549  10.555  23.821  0.00  0.00    +0.000 HD
BRANCH  22  24
ATOM     24  C   UNL     1       0.267  12.124  20.310  0.00  0.00    +0.000 A 
ATOM     25  C   UNL     1       1.501  12.740  20.574  0.00  0.00    +0.000 A 
ATOM     26  C   UNL     1       1.815  13.979  20.012  0.00  0.00    +0.000 A 
ATOM     27  C   UNL     1       0.897  14.613  19.178  0.00  0.00    +0.000 A 
ATOM     28 CL   UNL     1       1.270  16.157  18.520  0.00  0.00    +0.000 Cl
ATOM     29  C   UNL     1      -0.322  14.008  18.885  0.00  0.00    +0.000 A 
ATOM     30  C   UNL     1      -0.633  12.767  19.444  0.00  0.00    +0.000 A 
ENDBRANCH  22  24
ENDBRANCH   2  18
TORSDOF 3
ENDMDL
MODEL 9
REMARK VINA RESULT:      -8.3      3.252      7.344
REMARK  Name = 
REMARK  3 active torsions:
REMARK  status: ('A' for Active; 'I' for Inactive)
REMARK    1  A    between atoms: C_2  and  C_16
REMARK    2  A    between atoms: N_3  and  C_4
REMARK    3  A    between atoms: C_20  and  C_21
REMARK                            x       y       z     vdW  Elec       q    Type
REMARK                         _______ _______ _______ _____ _____    ______ ____
ROOT
ATOM      1  O   UNL     1       0.975   4.751  17.375  0.00  0.00    +0.000 OA
ATOM      2  C   UNL     1       2.125   4.523  17.738  0.00  0.00    +0.000 C 
ATOM      3  N   UNL     1       2.895   5.403  18.480  0.00  0.00    +0.000 N 
ATOM      4  H   UNL     1       3.905   5.335  18.398  0.00  0.00    +0.000 HD
ENDROOT
BRANCH   3   5
ATOM      5  C   UNL     1       2.405   6.615  19.018  0.00  0.00    +0.000 A 
ATOM      6  C   UNL     1       2.416   7.799  18.265  0.00  0.00    +0.000 A 
ATOM      7  C   UNL     1       1.859   8.973  18.788  0.00  0.00    +0.000 A 
ATOM      8  C   UNL     1       1.792  10.200  17.990  0.00  0.00    +0.000 A 
ATOM      9  C   UNL     1       1.219  11.291  18.507  0.00  0.00    +0.000 A 
ATOM     10  N   UNL     1       0.704  11.289  19.780  0.00  0.00    +0.000 N 
ATOM     11  C   UNL     1       0.726  10.207  20.630  0.00  0.00    +0.000 A 
ATOM     12  O   UNL     1       0.269  10.259  21.765  0.00  0.00    +0.000 OA
ATOM     13  C   UNL     1       1.330   8.962  20.088  0.00  0.00    +0.000 A 
ATOM     14  C   UNL     1       1.335   7.794  20.855  0.00  0.00    +0.000 A 
ATOM     15  C   UNL     1       1.845   6.620  20.306  0.00  0.00    +0.000 A 
ATOM     16 CL   UNL     1       1.824   5.181  21.266  0.00  0.00    +0.000 Cl
ATOM     17  H   UNL     1       0.275  12.128  20.152  0.00  0.00    +0.000 HD
ENDBRANCH   3   5
BRANCH   2  18
ATOM     18  C   UNL     1       2.858   3.242  17.385  0.00  0.00    +0.000 C 
ATOM     19  C   UNL     1       2.407   2.071  18.242  0.00  0.00    +0.000 C 
ATOM     20  N   UNL     1       3.477   1.078  18.099  0.00  0.00    +0.000 NA
ATOM     21  C   UNL     1       4.732   1.848  18.022  0.00  0.00    +0.000 C 
ATOM     22  C   UNL     1       4.359   3.304  17.692  0.00  0.00    +0.000 C 
ATOM     23  H   UNL     1       3.357   0.574  17.219  0.00  0.00    +0.000 HD
BRANCH  22  24
ATOM     24  C   UNL     1       5.206   3.898  16.585  0.00  0.00    +0.000 A 
ATOM     25  C   UNL     1       4.816   3.831  15.238  0.00  0.00    +0.000 A 
ATOM     26  C   UNL     1       5.648   4.323  14.230  0.00  0.00    +0.000 A 
ATOM     27  C   UNL     1       6.876   4.889  14.561  0.00  0.00    +0.000 A 
ATOM     28 CL   UNL     1       7.916   5.456  13.314  0.00  0.00    +0.000 Cl
ATOM     29  C   UNL     1       7.271   4.985  15.892  0.00  0.00    +0.000 A 
ATOM     30  C   UNL     1       6.437   4.497  16.901  0.00  0.00    +0.000 A 
ENDBRANCH  22  24
ENDBRANCH   2  18
TORSDOF 3
ENDMDL
