MODEL 1
REMARK VINA RESULT:      -7.4      0.000      0.000
REMARK  Name = 
REMARK  6 active torsions:
REMARK  status: ('A' for Active; 'I' for Inactive)
REMARK    1  A    between atoms: C_2  and  O_5
REMARK    2  A    between atoms: O_5  and  C_6
REMARK    3  A    between atoms: C_9  and  N_10
REMARK    4  A    between atoms: N_10  and  C_11
REMARK    5  A    between atoms: C_11  and  C_13
REMARK    6  A    between atoms: C_17  and  C_18
REMARK                            x       y       z     vdW  Elec       q    Type
REMARK                         _______ _______ _______ _____ _____    ______ ____
ROOT
ATOM      1  N   UNL     1       2.946   6.512  20.011  0.00  0.00    +0.000 N 
ATOM      2  H   UNL     1       2.876   6.365  21.006  0.00  0.00    +0.000 HD
ENDROOT
BRANCH   1   6
ATOM      3  C   UNL     1       0.767   9.920  18.736  0.00  0.00    +0.000 A 
ATOM      4  C   UNL     1       0.686   9.443  20.047  0.00  0.00    +0.000 A 
ATOM      5  C   UNL     1       1.432   8.332  20.453  0.00  0.00    +0.000 A 
ATOM      6  C   UNL     1       2.236   7.642  19.541  0.00  0.00    +0.000 A 
ATOM      7  C   UNL     1       2.313   8.127  18.232  0.00  0.00    +0.000 A 
ATOM      8  C   UNL     1       1.565   9.240  17.824  0.00  0.00    +0.000 A 
BRANCH   3   9
ATOM      9  O   UNL     1       0.014  11.023  18.481  0.00  0.00    +0.000 OA
BRANCH   9  11
ATOM     10  F   UNL     1      -1.668   9.689  17.588  0.00  0.00    +0.000 F 
ATOM     11  C   UNL     1      -1.360  10.878  18.148  0.00  0.00    +0.000 C 
ATOM     12  F   UNL     1      -1.681  11.843  17.256  0.00  0.00    +0.000 F 
ATOM     13  F   UNL     1      -2.119  11.055  19.250  0.00  0.00    +0.000 F 
ENDBRANCH   9  11
ENDBRANCH   3   9
ENDBRANCH   1   6
BRANCH   1  14
ATOM     14  C   UNL     1       3.626   5.537  19.290  0.00  0.00    +0.000 C 
ATOM     15  S   UNL     1       5.269   5.419  18.977  0.00  0.00    +0.000 S 
BRANCH  14  16
ATOM     16  C   UNL     1       2.810   4.504  18.656  0.00  0.00    +0.000 A 
ATOM     17  C   UNL     1       2.860   4.069  17.300  0.00  0.00    +0.000 A 
ATOM     18  N   UNL     1       1.981   3.106  17.028  0.00  0.00    +0.000 NA
ATOM     19  O   UNL     1       1.314   2.887  18.212  0.00  0.00    +0.000 OA
ATOM     20  C   UNL     1       1.794   3.720  19.182  0.00  0.00    +0.000 A 
BRANCH  20  21
ATOM     21  C   UNL     1       1.206   3.732  20.588  0.00  0.00    +0.000 C 
ATOM     22  C   UNL     1       1.231   2.448  21.394  0.00  0.00    +0.000 C 
ATOM     23  C   UNL     1       2.189   3.537  21.729  0.00  0.00    +0.000 C 
ENDBRANCH  20  21
ENDBRANCH  14  16
ENDBRANCH   1  14
TORSDOF 6
ENDMDL
MODEL 2
REMARK VINA RESULT:      -7.4      4.690      6.568
REMARK  Name = 
REMARK  6 active torsions:
REMARK  status: ('A' for Active; 'I' for Inactive)
REMARK    1  A    between atoms: C_2  and  O_5
REMARK    2  A    between atoms: O_5  and  C_6
REMARK    3  A    between atoms: C_9  and  N_10
REMARK    4  A    between atoms: N_10  and  C_11
REMARK    5  A    between atoms: C_11  and  C_13
REMARK    6  A    between atoms: C_17  and  C_18
REMARK                            x       y       z     vdW  Elec       q    Type
REMARK                         _______ _______ _______ _____ _____    ______ ____
ROOT
ATOM      1  N   UNL     1       4.771   7.032  17.191  0.00  0.00    +0.000 N 
ATOM      2  H   UNL     1       4.348   7.591  16.467  0.00  0.00    +0.000 HD
ENDROOT
BRANCH   1   6
ATOM      3  C   UNL     1       2.026   4.793  19.524  0.00  0.00    +0.000 A 
ATOM      4  C   UNL     1       2.700   4.229  18.437  0.00  0.00    +0.000 A 
ATOM      5  C   UNL     1       3.620   4.978  17.696  0.00  0.00    +0.000 A 
ATOM      6  C   UNL     1       3.846   6.326  17.994  0.00  0.00    +0.000 A 
ATOM      7  C   UNL     1       3.170   6.881  19.084  0.00  0.00    +0.000 A 
ATOM      8  C   UNL     1       2.247   6.131  19.827  0.00  0.00    +0.000 A 
BRANCH   3   9
ATOM      9  O   UNL     1       1.183   3.949  20.175  0.00  0.00    +0.000 OA
BRANCH   9  11
ATOM     10  F   UNL     1       2.452   2.089  20.757  0.00  0.00    +0.000 F 
ATOM     11  C   UNL     1       1.685   3.105  21.203  0.00  0.00    +0.000 C 
ATOM     12  F   UNL     1       0.631   2.562  21.854  0.00  0.00    +0.000 F 
ATOM     13  F   UNL     1       2.394   3.836  22.089  0.00  0.00    +0.000 F 
ENDBRANCH   9  11
ENDBRANCH   3   9
ENDBRANCH   1   6
BRANCH   1  14
ATOM     14  C   UNL     1       6.151   7.141  17.326  0.00  0.00    +0.000 C 
ATOM     15  S   UNL     1       7.080   8.524  17.514  0.00  0.00    +0.000 S 
BRANCH  14  16
ATOM     16  C   UNL     1       6.918   5.902  17.227  0.00  0.00    +0.000 A 
ATOM     17  C   UNL     1       7.712   5.288  18.240  0.00  0.00    +0.000 A 
ATOM     18  N   UNL     1       8.292   4.160  17.836  0.00  0.00    +0.000 NA
ATOM     19  O   UNL     1       7.897   4.005  16.527  0.00  0.00    +0.000 OA
ATOM     20  C   UNL     1       7.088   5.040  16.153  0.00  0.00    +0.000 A 
BRANCH  20  21
ATOM     21  C   UNL     1       6.538   5.155  14.737  0.00  0.00    +0.000 C 
ATOM     22  C   UNL     1       6.483   3.908  13.878  0.00  0.00    +0.000 C 
ATOM     23  C   UNL     1       5.225   4.444  14.465  0.00  0.00    +0.000 C 
ENDBRANCH  20  21
ENDBRANCH  14  16
ENDBRANCH   1  14
TORSDOF 6
ENDMDL
MODEL 3
REMARK VINA RESULT:      -7.3      5.438      6.870
REMARK  Name = 
REMARK  6 active torsions:
REMARK  status: ('A' for Active; 'I' for Inactive)
REMARK    1  A    between atoms: C_2  and  O_5
REMARK    2  A    between atoms: O_5  and  C_6
REMARK    3  A    between atoms: C_9  and  N_10
REMARK    4  A    between atoms: N_10  and  C_11
REMARK    5  A    between atoms: C_11  and  C_13
REMARK    6  A    between atoms: C_17  and  C_18
REMARK                            x       y       z     vdW  Elec       q    Type
REMARK                         _______ _______ _______ _____ _____    ______ ____
ROOT
ATOM      1  N   UNL     1       4.835   5.746  19.270  0.00  0.00    +0.000 N 
ATOM      2  H   UNL     1       5.489   6.026  19.985  0.00  0.00    +0.000 HD
ENDROOT
BRANCH   1   6
ATOM      3  C   UNL     1       6.481   5.204  15.399  0.00  0.00    +0.000 A 
ATOM      4  C   UNL     1       5.288   5.903  15.601  0.00  0.00    +0.000 A 
ATOM      5  C   UNL     1       4.775   6.091  16.888  0.00  0.00    +0.000 A 
ATOM      6  C   UNL     1       5.419   5.538  17.999  0.00  0.00    +0.000 A 
ATOM      7  C   UNL     1       6.614   4.842  17.789  0.00  0.00    +0.000 A 
ATOM      8  C   UNL     1       7.128   4.653  16.499  0.00  0.00    +0.000 A 
BRANCH   3   9
ATOM      9  O   UNL     1       6.883   5.119  14.103  0.00  0.00    +0.000 OA
BRANCH   9  11
ATOM     10  F   UNL     1       5.064   4.304  12.905  0.00  0.00    +0.000 F 
ATOM     11  C   UNL     1       6.349   4.103  13.265  0.00  0.00    +0.000 C 
ATOM     12  F   UNL     1       6.404   2.931  13.937  0.00  0.00    +0.000 F 
ATOM     13  F   UNL     1       7.105   3.985  12.152  0.00  0.00    +0.000 F 
ENDBRANCH   9  11
ENDBRANCH   3   9
ENDBRANCH   1   6
BRANCH   1  14
ATOM     14  C   UNL     1       3.494   5.720  19.638  0.00  0.00    +0.000 C 
ATOM     15  S   UNL     1       2.335   6.918  19.463  0.00  0.00    +0.000 S 
BRANCH  14  16
ATOM     16  C   UNL     1       3.030   4.522  20.332  0.00  0.00    +0.000 A 
ATOM     17  C   UNL     1       2.268   4.455  21.536  0.00  0.00    +0.000 A 
ATOM     18  N   UNL     1       2.003   3.207  21.917  0.00  0.00    +0.000 NA
ATOM     19  O   UNL     1       2.599   2.409  20.967  0.00  0.00    +0.000 OA
ATOM     20  C   UNL     1       3.220   3.181  20.027  0.00  0.00    +0.000 A 
BRANCH  20  21
ATOM     21  C   UNL     1       4.006   2.564  18.877  0.00  0.00    +0.000 C 
ATOM     22  C   UNL     1       3.557   1.224  18.329  0.00  0.00    +0.000 C 
ATOM     23  C   UNL     1       3.282   2.460  17.547  0.00  0.00    +0.000 C 
ENDBRANCH  20  21
ENDBRANCH  14  16
ENDBRANCH   1  14
TORSDOF 6
ENDMDL
MODEL 4
REMARK VINA RESULT:      -7.3      0.200      1.042
REMARK  Name = 
REMARK  6 active torsions:
REMARK  status: ('A' for Active; 'I' for Inactive)
REMARK    1  A    between atoms: C_2  and  O_5
REMARK    2  A    between atoms: O_5  and  C_6
REMARK    3  A    between atoms: C_9  and  N_10
REMARK    4  A    between atoms: N_10  and  C_11
REMARK    5  A    between atoms: C_11  and  C_13
REMARK    6  A    between atoms: C_17  and  C_18
REMARK                            x       y       z     vdW  Elec       q    Type
REMARK                         _______ _______ _______ _____ _____    ______ ____
ROOT
ATOM      1  N   UNL     1       2.992   6.436  19.986  0.00  0.00    +0.000 N 
ATOM      2  H   UNL     1       3.003   6.203  20.966  0.00  0.00    +0.000 HD
ENDROOT
BRANCH   1   6
ATOM      3  C   UNL     1       0.722   9.851  18.901  0.00  0.00    +0.000 A 
ATOM      4  C   UNL     1       1.529   9.180  17.979  0.00  0.00    +0.000 A 
ATOM      5  C   UNL     1       2.250   8.041  18.351  0.00  0.00    +0.000 A 
ATOM      6  C   UNL     1       2.221   7.579  19.671  0.00  0.00    +0.000 A 
ATOM      7  C   UNL     1       1.409   8.255  20.587  0.00  0.00    +0.000 A 
ATOM      8  C   UNL     1       0.687   9.396  20.214  0.00  0.00    +0.000 A 
BRANCH   3   9
ATOM      9  O   UNL     1       0.053  10.924  18.403  0.00  0.00    +0.000 OA
BRANCH   9  11
ATOM     10  F   UNL     1      -1.820   9.658  17.852  0.00  0.00    +0.000 F 
ATOM     11  C   UNL     1      -1.359  10.865  18.246  0.00  0.00    +0.000 C 
ATOM     12  F   UNL     1      -1.716  11.764  17.300  0.00  0.00    +0.000 F 
ATOM     13  F   UNL     1      -1.962  11.210  19.402  0.00  0.00    +0.000 F 
ENDBRANCH   9  11
ENDBRANCH   3   9
ENDBRANCH   1   6
BRANCH   1  14
ATOM     14  C   UNL     1       3.637   5.547  19.133  0.00  0.00    +0.000 C 
ATOM     15  S   UNL     1       5.204   5.613  18.540  0.00  0.00    +0.000 S 
BRANCH  14  16
ATOM     16  C   UNL     1       2.840   4.436  18.622  0.00  0.00    +0.000 A 
ATOM     17  C   UNL     1       2.860   3.885  17.307  0.00  0.00    +0.000 A 
ATOM     18  N   UNL     1       2.009   2.873  17.152  0.00  0.00    +0.000 NA
ATOM     19  O   UNL     1       1.392   2.735  18.374  0.00  0.00    +0.000 OA
ATOM     20  C   UNL     1       1.872   3.666  19.251  0.00  0.00    +0.000 A 
BRANCH  20  21
ATOM     21  C   UNL     1       1.333   3.780  20.671  0.00  0.00    +0.000 C 
ATOM     22  C   UNL     1       1.221   2.521  21.507  0.00  0.00    +0.000 C 
ATOM     23  C   UNL     1       2.317   3.488  21.790  0.00  0.00    +0.000 C 
ENDBRANCH  20  21
ENDBRANCH  14  16
ENDBRANCH   1  14
TORSDOF 6
ENDMDL
MODEL 5
REMARK VINA RESULT:      -7.2      3.373      4.764
REMARK  Name = 
REMARK  6 active torsions:
REMARK  status: ('A' for Active; 'I' for Inactive)
REMARK    1  A    between atoms: C_2  and  O_5
REMARK    2  A    between atoms: O_5  and  C_6
REMARK    3  A    between atoms: C_9  and  N_10
REMARK    4  A    between atoms: N_10  and  C_11
REMARK    5  A    between atoms: C_11  and  C_13
REMARK    6  A    between atoms: C_17  and  C_18
REMARK                            x       y       z     vdW  Elec       q    Type
REMARK                         _______ _______ _______ _____ _____    ______ ____
ROOT
ATOM      1  N   UNL     1       3.341   5.694  17.378  0.00  0.00    +0.000 N 
ATOM      2  H   UNL     1       3.291   6.097  16.455  0.00  0.00    +0.000 HD
ENDROOT
BRANCH   1   6
ATOM      3  C   UNL     1       1.641   8.223  20.329  0.00  0.00    +0.000 A 
ATOM      4  C   UNL     1       1.906   8.677  19.034  0.00  0.00    +0.000 A 
ATOM      5  C   UNL     1       2.444   7.820  18.069  0.00  0.00    +0.000 A 
ATOM      6  C   UNL     1       2.779   6.501  18.394  0.00  0.00    +0.000 A 
ATOM      7  C   UNL     1       2.508   6.054  19.691  0.00  0.00    +0.000 A 
ATOM      8  C   UNL     1       1.970   6.913  20.659  0.00  0.00    +0.000 A 
BRANCH   3   9
ATOM      9  O   UNL     1       1.092   9.149  21.159  0.00  0.00    +0.000 OA
BRANCH   9  11
ATOM     10  F   UNL     1      -0.846   7.934  21.582  0.00  0.00    +0.000 F 
ATOM     11  C   UNL     1      -0.313   9.157  21.376  0.00  0.00    +0.000 C 
ATOM     12  F   UNL     1      -0.905   9.678  20.277  0.00  0.00    +0.000 F 
ATOM     13  F   UNL     1      -0.608   9.950  22.427  0.00  0.00    +0.000 F 
ENDBRANCH   9  11
ENDBRANCH   3   9
ENDBRANCH   1   6
BRANCH   1  14
ATOM     14  C   UNL     1       4.033   4.494  17.489  0.00  0.00    +0.000 C 
ATOM     15  S   UNL     1       3.426   2.953  17.751  0.00  0.00    +0.000 S 
BRANCH  14  16
ATOM     16  C   UNL     1       5.491   4.573  17.441  0.00  0.00    +0.000 A 
ATOM     17  C   UNL     1       6.402   4.482  18.534  0.00  0.00    +0.000 A 
ATOM     18  N   UNL     1       7.676   4.595  18.162  0.00  0.00    +0.000 NA
ATOM     19  O   UNL     1       7.635   4.774  16.798  0.00  0.00    +0.000 OA
ATOM     20  C   UNL     1       6.340   4.771  16.362  0.00  0.00    +0.000 A 
BRANCH  20  21
ATOM     21  C   UNL     1       5.989   4.998  14.897  0.00  0.00    +0.000 C 
ATOM     22  C   UNL     1       7.086   4.863  13.860  0.00  0.00    +0.000 C 
ATOM     23  C   UNL     1       6.070   3.783  13.990  0.00  0.00    +0.000 C 
ENDBRANCH  20  21
ENDBRANCH  14  16
ENDBRANCH   1  14
TORSDOF 6
ENDMDL
MODEL 6
REMARK VINA RESULT:      -7.2      4.740      6.623
REMARK  Name = 
REMARK  6 active torsions:
REMARK  status: ('A' for Active; 'I' for Inactive)
REMARK    1  A    between atoms: C_2  and  O_5
REMARK    2  A    between atoms: O_5  and  C_6
REMARK    3  A    between atoms: C_9  and  N_10
REMARK    4  A    between atoms: N_10  and  C_11
REMARK    5  A    between atoms: C_11  and  C_13
REMARK    6  A    between atoms: C_17  and  C_18
REMARK                            x       y       z     vdW  Elec       q    Type
REMARK                         _______ _______ _______ _____ _____    ______ ____
ROOT
ATOM      1  N   UNL     1       4.676   7.027  17.254  0.00  0.00    +0.000 N 
ATOM      2  H   UNL     1       4.222   7.688  16.644  0.00  0.00    +0.000 HD
ENDROOT
BRANCH   1   6
ATOM      3  C   UNL     1       1.990   4.623  19.489  0.00  0.00    +0.000 A 
ATOM      4  C   UNL     1       2.369   5.898  19.919  0.00  0.00    +0.000 A 
ATOM      5  C   UNL     1       3.237   6.683  19.154  0.00  0.00    +0.000 A 
ATOM      6  C   UNL     1       3.787   6.189  17.967  0.00  0.00    +0.000 A 
ATOM      7  C   UNL     1       3.400   4.914  17.543  0.00  0.00    +0.000 A 
ATOM      8  C   UNL     1       2.531   4.126  18.309  0.00  0.00    +0.000 A 
BRANCH   3   9
ATOM      9  O   UNL     1       1.119   3.978  20.310  0.00  0.00    +0.000 OA
BRANCH   9  11
ATOM     10  F   UNL     1       0.649   2.481  22.028  0.00  0.00    +0.000 F 
ATOM     11  C   UNL     1       1.610   3.051  21.270  0.00  0.00    +0.000 C 
ATOM     12  F   UNL     1       2.445   3.712  22.104  0.00  0.00    +0.000 F 
ATOM     13  F   UNL     1       2.315   2.082  20.651  0.00  0.00    +0.000 F 
ENDBRANCH   9  11
ENDBRANCH   3   9
ENDBRANCH   1   6
BRANCH   1  14
ATOM     14  C   UNL     1       6.059   7.132  17.357  0.00  0.00    +0.000 C 
ATOM     15  S   UNL     1       6.995   8.512  17.540  0.00  0.00    +0.000 S 
BRANCH  14  16
ATOM     16  C   UNL     1       6.821   5.894  17.221  0.00  0.00    +0.000 A 
ATOM     17  C   UNL     1       7.674   5.289  18.190  0.00  0.00    +0.000 A 
ATOM     18  N   UNL     1       8.232   4.158  17.761  0.00  0.00    +0.000 NA
ATOM     19  O   UNL     1       7.761   3.993  16.479  0.00  0.00    +0.000 OA
ATOM     20  C   UNL     1       6.930   5.024  16.146  0.00  0.00    +0.000 A 
BRANCH  20  21
ATOM     21  C   UNL     1       6.298   5.129  14.763  0.00  0.00    +0.000 C 
ATOM     22  C   UNL     1       7.143   4.784  13.553  0.00  0.00    +0.000 C 
ATOM     23  C   UNL     1       6.103   3.824  14.012  0.00  0.00    +0.000 C 
ENDBRANCH  20  21
ENDBRANCH  14  16
ENDBRANCH   1  14
TORSDOF 6
ENDMDL
MODEL 7
REMARK VINA RESULT:      -7.2      1.593      2.651
REMARK  Name = 
REMARK  6 active torsions:
REMARK  status: ('A' for Active; 'I' for Inactive)
REMARK    1  A    between atoms: C_2  and  O_5
REMARK    2  A    between atoms: O_5  and  C_6
REMARK    3  A    between atoms: C_9  and  N_10
REMARK    4  A    between atoms: N_10  and  C_11
REMARK    5  A    between atoms: C_11  and  C_13
REMARK    6  A    between atoms: C_17  and  C_18
REMARK                            x       y       z     vdW  Elec       q    Type
REMARK                         _______ _______ _______ _____ _____    ______ ____
ROOT
ATOM      1  N   UNL     1       2.931   6.283  20.231  0.00  0.00    +0.000 N 
ATOM      2  H   UNL     1       3.720   6.504  20.818  0.00  0.00    +0.000 HD
ENDROOT
BRANCH   1   6
ATOM      3  C   UNL     1       0.871   9.702  18.797  0.00  0.00    +0.000 A 
ATOM      4  C   UNL     1       0.738   9.261  20.117  0.00  0.00    +0.000 A 
ATOM      5  C   UNL     1       1.445   8.146  20.576  0.00  0.00    +0.000 A 
ATOM      6  C   UNL     1       2.262   7.414  19.709  0.00  0.00    +0.000 A 
ATOM      7  C   UNL     1       2.392   7.862  18.390  0.00  0.00    +0.000 A 
ATOM      8  C   UNL     1       1.683   8.980  17.930  0.00  0.00    +0.000 A 
BRANCH   3   9
ATOM      9  O   UNL     1       0.152  10.813  18.489  0.00  0.00    +0.000 OA
BRANCH   9  11
ATOM     10  F   UNL     1      -1.624  11.754  17.318  0.00  0.00    +0.000 F 
ATOM     11  C   UNL     1      -1.179  10.681  18.007  0.00  0.00    +0.000 C 
ATOM     12  F   UNL     1      -1.997  10.513  19.070  0.00  0.00    +0.000 F 
ATOM     13  F   UNL     1      -1.275   9.585  17.225  0.00  0.00    +0.000 F 
ENDBRANCH   9  11
ENDBRANCH   3   9
ENDBRANCH   1   6
BRANCH   1  14
ATOM     14  C   UNL     1       2.594   4.937  20.133  0.00  0.00    +0.000 C 
ATOM     15  S   UNL     1       2.075   3.895  21.340  0.00  0.00    +0.000 S 
BRANCH  14  16
ATOM     16  C   UNL     1       2.773   4.312  18.826  0.00  0.00    +0.000 A 
ATOM     17  C   UNL     1       1.768   3.740  17.991  0.00  0.00    +0.000 A 
ATOM     18  N   UNL     1       2.254   3.244  16.854  0.00  0.00    +0.000 NA
ATOM     19  O   UNL     1       3.610   3.471  16.917  0.00  0.00    +0.000 OA
ATOM     20  C   UNL     1       3.929   4.096  18.088  0.00  0.00    +0.000 A 
BRANCH  20  21
ATOM     21  C   UNL     1       5.371   4.429  18.451  0.00  0.00    +0.000 C 
ATOM     22  C   UNL     1       6.367   4.649  17.330  0.00  0.00    +0.000 C 
ATOM     23  C   UNL     1       5.851   5.823  18.086  0.00  0.00    +0.000 C 
ENDBRANCH  20  21
ENDBRANCH  14  16
ENDBRANCH   1  14
TORSDOF 6
ENDMDL
MODEL 8
REMARK VINA RESULT:      -7.1      1.597      2.851
REMARK  Name = 
REMARK  6 active torsions:
REMARK  status: ('A' for Active; 'I' for Inactive)
REMARK    1  A    between atoms: C_2  and  O_5
REMARK    2  A    between atoms: O_5  and  C_6
REMARK    3  A    between atoms: C_9  and  N_10
REMARK    4  A    between atoms: N_10  and  C_11
REMARK    5  A    between atoms: C_11  and  C_13
REMARK    6  A    between atoms: C_17  and  C_18
REMARK                            x       y       z     vdW  Elec       q    Type
REMARK                         _______ _______ _______ _____ _____    ______ ____
ROOT
ATOM      1  N   UNL     1       2.932   6.303  20.210  0.00  0.00    +0.000 N 
ATOM      2  H   UNL     1       3.802   6.485  20.686  0.00  0.00    +0.000 HD
ENDROOT
BRANCH   1   6
ATOM      3  C   UNL     1       0.825   9.774  18.988  0.00  0.00    +0.000 A 
ATOM      4  C   UNL     1       1.655   9.070  18.112  0.00  0.00    +0.000 A 
ATOM      5  C   UNL     1       2.321   7.913  18.528  0.00  0.00    +0.000 A 
ATOM      6  C   UNL     1       2.214   7.465  19.849  0.00  0.00    +0.000 A 
ATOM      7  C   UNL     1       1.380   8.174  20.719  0.00  0.00    +0.000 A 
ATOM      8  C   UNL     1       0.712   9.334  20.302  0.00  0.00    +0.000 A 
BRANCH   3   9
ATOM      9  O   UNL     1       0.214  10.862  18.449  0.00  0.00    +0.000 OA
BRANCH   9  11
ATOM     10  F   UNL     1      -1.906  10.978  19.397  0.00  0.00    +0.000 F 
ATOM     11  C   UNL     1      -1.194  10.858  18.256  0.00  0.00    +0.000 C 
ATOM     12  F   UNL     1      -1.537   9.682  17.685  0.00  0.00    +0.000 F 
ATOM     13  F   UNL     1      -1.543  11.852  17.412  0.00  0.00    +0.000 F 
ENDBRANCH   9  11
ENDBRANCH   3   9
ENDBRANCH   1   6
BRANCH   1  14
ATOM     14  C   UNL     1       2.562   4.967  20.097  0.00  0.00    +0.000 C 
ATOM     15  S   UNL     1       1.986   3.934  21.285  0.00  0.00    +0.000 S 
BRANCH  14  16
ATOM     16  C   UNL     1       2.756   4.343  18.791  0.00  0.00    +0.000 A 
ATOM     17  C   UNL     1       1.771   3.715  17.973  0.00  0.00    +0.000 A 
ATOM     18  N   UNL     1       2.266   3.237  16.833  0.00  0.00    +0.000 NA
ATOM     19  O   UNL     1       3.610   3.535  16.876  0.00  0.00    +0.000 OA
ATOM     20  C   UNL     1       3.911   4.183  18.039  0.00  0.00    +0.000 A 
BRANCH  20  21
ATOM     21  C   UNL     1       5.339   4.593  18.380  0.00  0.00    +0.000 C 
ATOM     22  C   UNL     1       6.353   4.687  17.258  0.00  0.00    +0.000 C 
ATOM     23  C   UNL     1       5.798   5.937  17.845  0.00  0.00    +0.000 C 
ENDBRANCH  20  21
ENDBRANCH  14  16
ENDBRANCH   1  14
TORSDOF 6
ENDMDL
MODEL 9
REMARK VINA RESULT:      -7.1      1.326      1.938
REMARK  Name = 
REMARK  6 active torsions:
REMARK  status: ('A' for Active; 'I' for Inactive)
REMARK    1  A    between atoms: C_2  and  O_5
REMARK    2  A    between atoms: O_5  and  C_6
REMARK    3  A    between atoms: C_9  and  N_10
REMARK    4  A    between atoms: N_10  and  C_11
REMARK    5  A    between atoms: C_11  and  C_13
REMARK    6  A    between atoms: C_17  and  C_18
REMARK                            x       y       z     vdW  Elec       q    Type
REMARK                         _______ _______ _______ _____ _____    ______ ____
ROOT
ATOM      1  N   UNL     1       3.120   6.181  17.890  0.00  0.00    +0.000 N 
ATOM      2  H   UNL     1       2.984   6.116  16.893  0.00  0.00    +0.000 HD
ENDROOT
BRANCH   1   6
ATOM      3  C   UNL     1       1.275   9.619  19.552  0.00  0.00    +0.000 A 
ATOM      4  C   UNL     1       1.682   9.575  18.216  0.00  0.00    +0.000 A 
ATOM      5  C   UNL     1       2.267   8.423  17.681  0.00  0.00    +0.000 A 
ATOM      6  C   UNL     1       2.505   7.305  18.487  0.00  0.00    +0.000 A 
ATOM      7  C   UNL     1       2.093   7.356  19.822  0.00  0.00    +0.000 A 
ATOM      8  C   UNL     1       1.508   8.512  20.359  0.00  0.00    +0.000 A 
BRANCH   3   9
ATOM      9  O   UNL     1       0.696  10.788  19.936  0.00  0.00    +0.000 OA
BRANCH   9  11
ATOM     10  F   UNL     1      -1.252  12.059  19.892  0.00  0.00    +0.000 F 
ATOM     11  C   UNL     1      -0.711  10.846  20.135  0.00  0.00    +0.000 C 
ATOM     12  F   UNL     1      -0.966  10.539  21.427  0.00  0.00    +0.000 F 
ATOM     13  F   UNL     1      -1.320   9.928  19.356  0.00  0.00    +0.000 F 
ENDBRANCH   9  11
ENDBRANCH   3   9
ENDBRANCH   1   6
BRANCH   1  14
ATOM     14  C   UNL     1       3.959   5.230  18.460  0.00  0.00    +0.000 C 
ATOM     15  S   UNL     1       5.480   5.441  19.133  0.00  0.00    +0.000 S 
BRANCH  14  16
ATOM     16  C   UNL     1       3.501   3.844  18.415  0.00  0.00    +0.000 A 
ATOM     17  C   UNL     1       3.938   2.812  17.533  0.00  0.00    +0.000 A 
ATOM     18  N   UNL     1       3.323   1.650  17.743  0.00  0.00    +0.000 NA
ATOM     19  O   UNL     1       2.448   1.892  18.777  0.00  0.00    +0.000 OA
ATOM     20  C   UNL     1       2.540   3.195  19.176  0.00  0.00    +0.000 A 
BRANCH  20  21
ATOM     21  C   UNL     1       1.649   3.759  20.277  0.00  0.00    +0.000 C 
ATOM     22  C   UNL     1       1.238   2.847  21.415  0.00  0.00    +0.000 C 
ATOM     23  C   UNL     1       2.278   3.884  21.653  0.00  0.00    +0.000 C 
ENDBRANCH  20  21
ENDBRANCH  14  16
ENDBRANCH   1  14
TORSDOF 6
ENDMDL
