MODEL 1
REMARK VINA RESULT:      -7.8      0.000      0.000
REMARK  Name = 
REMARK  5 active torsions:
REMARK  status: ('A' for Active; 'I' for Inactive)
REMARK    1  A    between atoms: C_1  and  C_2
REMARK    2  A    between atoms: C_6  and  C_7
REMARK    3  A    between atoms: C_9  and  O_10
REMARK    4  A    between atoms: C_13  and  O_14
REMARK    5  A    between atoms: C_19  and  C_20
REMARK                            x       y       z     vdW  Elec       q    Type
REMARK                         _______ _______ _______ _____ _____    ______ ____
ROOT
ATOM      1  C   UNL     1       1.813   2.647  21.303  0.00  0.00    +0.000 C 
ATOM      2  C   UNL     1       2.542   3.255  20.148  0.00  0.00    +0.000 A 
ATOM      3  S   UNL     1       3.412   2.249  19.071  0.00  0.00    +0.000 S 
ATOM      4  C   UNL     1       3.899   3.571  18.111  0.00  0.00    +0.000 A 
ATOM      5  N   UNL     1       4.659   3.388  16.995  0.00  0.00    +0.000 NA
ATOM      6  C   UNL     1       4.908   4.474  16.327  0.00  0.00    +0.000 A 
ATOM      7  N   UNL     1       4.484   5.724  16.739  0.00  0.00    +0.000 N 
ATOM      8  C   UNL     1       3.726   5.961  17.858  0.00  0.00    +0.000 A 
ATOM      9  O   UNL     1       3.361   7.094  18.154  0.00  0.00    +0.000 OA
ATOM     10  C   UNL     1       3.404   4.760  18.604  0.00  0.00    +0.000 A 
ATOM     11  C   UNL     1       2.619   4.595  19.800  0.00  0.00    +0.000 A 
ATOM     12  C   UNL     1       1.961   5.694  20.572  0.00  0.00    +0.000 C 
ATOM     13  H   UNL     1       4.666   6.529  16.153  0.00  0.00    +0.000 HD
ENDROOT
BRANCH   6  14
ATOM     14  C   UNL     1       5.700   4.448  15.063  0.00  0.00    +0.000 A 
ATOM     15  C   UNL     1       5.236   3.662  14.000  0.00  0.00    +0.000 A 
ATOM     16  C   UNL     1       5.981   3.593  12.824  0.00  0.00    +0.000 A 
ATOM     17  C   UNL     1       7.167   4.305  12.681  0.00  0.00    +0.000 A 
ATOM     18  C   UNL     1       7.623   5.111  13.722  0.00  0.00    +0.000 A 
ATOM     19  C   UNL     1       6.894   5.177  14.910  0.00  0.00    +0.000 A 
BRANCH  16  20
ATOM     20  O   UNL     1       5.581   2.824  11.772  0.00  0.00    +0.000 OA
ATOM     21  H   UNL     1       6.045   3.119  10.970  0.00  0.00    +0.000 HD
ENDBRANCH  16  20
BRANCH  19  22
ATOM     22  O   UNL     1       7.365   5.961  15.931  0.00  0.00    +0.000 OA
ATOM     23  H   UNL     1       6.618   6.232  16.494  0.00  0.00    +0.000 HD
ENDBRANCH  19  22
ENDBRANCH   6  14
TORSDOF 3
ENDMDL
MODEL 2
REMARK VINA RESULT:      -7.4      1.607      2.246
REMARK  Name = 
REMARK  5 active torsions:
REMARK  status: ('A' for Active; 'I' for Inactive)
REMARK    1  A    between atoms: C_1  and  C_2
REMARK    2  A    between atoms: C_6  and  C_7
REMARK    3  A    between atoms: C_9  and  O_10
REMARK    4  A    between atoms: C_13  and  O_14
REMARK    5  A    between atoms: C_19  and  C_20
REMARK                            x       y       z     vdW  Elec       q    Type
REMARK                         _______ _______ _______ _____ _____    ______ ____
ROOT
ATOM      1  C   UNL     1       1.527   6.838  20.897  0.00  0.00    +0.000 C 
ATOM      2  C   UNL     1       2.312   6.131  19.841  0.00  0.00    +0.000 A 
ATOM      3  S   UNL     1       2.871   6.999  18.476  0.00  0.00    +0.000 S 
ATOM      4  C   UNL     1       3.622   5.620  17.812  0.00  0.00    +0.000 A 
ATOM      5  N   UNL     1       4.311   5.690  16.639  0.00  0.00    +0.000 NA
ATOM      6  C   UNL     1       4.882   4.580  16.280  0.00  0.00    +0.000 A 
ATOM      7  N   UNL     1       4.758   3.405  16.999  0.00  0.00    +0.000 N 
ATOM      8  C   UNL     1       4.069   3.280  18.179  0.00  0.00    +0.000 A 
ATOM      9  O   UNL     1       4.019   2.213  18.780  0.00  0.00    +0.000 OA
ATOM     10  C   UNL     1       3.451   4.516  18.620  0.00  0.00    +0.000 A 
ATOM     11  C   UNL     1       2.678   4.794  19.804  0.00  0.00    +0.000 A 
ATOM     12  C   UNL     1       2.315   3.802  20.863  0.00  0.00    +0.000 C 
ATOM     13  H   UNL     1       5.265   2.582  16.698  0.00  0.00    +0.000 HD
ENDROOT
BRANCH   6  14
ATOM     14  C   UNL     1       5.702   4.489  15.038  0.00  0.00    +0.000 A 
ATOM     15  C   UNL     1       5.229   3.701  13.980  0.00  0.00    +0.000 A 
ATOM     16  C   UNL     1       5.998   3.572  12.825  0.00  0.00    +0.000 A 
ATOM     17  C   UNL     1       7.219   4.225  12.697  0.00  0.00    +0.000 A 
ATOM     18  C   UNL     1       7.685   5.034  13.732  0.00  0.00    +0.000 A 
ATOM     19  C   UNL     1       6.932   5.159  14.899  0.00  0.00    +0.000 A 
BRANCH  16  20
ATOM     20  O   UNL     1       5.590   2.797  11.780  0.00  0.00    +0.000 OA
ATOM     21  H   UNL     1       4.743   2.379  12.008  0.00  0.00    +0.000 HD
ENDBRANCH  16  20
BRANCH  19  22
ATOM     22  O   UNL     1       7.413   5.944  15.914  0.00  0.00    +0.000 OA
ATOM     23  H   UNL     1       7.067   5.614  16.763  0.00  0.00    +0.000 HD
ENDBRANCH  19  22
ENDBRANCH   6  14
TORSDOF 3
ENDMDL
MODEL 3
REMARK VINA RESULT:      -7.3      4.423      6.528
REMARK  Name = 
REMARK  5 active torsions:
REMARK  status: ('A' for Active; 'I' for Inactive)
REMARK    1  A    between atoms: C_1  and  C_2
REMARK    2  A    between atoms: C_6  and  C_7
REMARK    3  A    between atoms: C_9  and  O_10
REMARK    4  A    between atoms: C_13  and  O_14
REMARK    5  A    between atoms: C_19  and  C_20
REMARK                            x       y       z     vdW  Elec       q    Type
REMARK                         _______ _______ _______ _____ _____    ______ ____
ROOT
ATOM      1  C   UNL     1      -0.764  11.704  21.917  0.00  0.00    +0.000 C 
ATOM      2  C   UNL     1       0.017  10.609  21.265  0.00  0.00    +0.000 A 
ATOM      3  S   UNL     1       0.367   9.180  22.139  0.00  0.00    +0.000 S 
ATOM      4  C   UNL     1       1.195   8.486  20.821  0.00  0.00    +0.000 A 
ATOM      5  N   UNL     1       1.730   7.236  20.904  0.00  0.00    +0.000 NA
ATOM      6  C   UNL     1       2.281   6.808  19.808  0.00  0.00    +0.000 A 
ATOM      7  N   UNL     1       2.368   7.578  18.662  0.00  0.00    +0.000 N 
ATOM      8  C   UNL     1       1.855   8.843  18.530  0.00  0.00    +0.000 A 
ATOM      9  O   UNL     1       1.945   9.462  17.475  0.00  0.00    +0.000 OA
ATOM     10  C   UNL     1       1.203   9.330  19.730  0.00  0.00    +0.000 A 
ATOM     11  C   UNL     1       0.529  10.580  19.976  0.00  0.00    +0.000 A 
ATOM     12  C   UNL     1       0.380  11.700  18.996  0.00  0.00    +0.000 C 
ATOM     13  H   UNL     1       2.765   7.175  17.823  0.00  0.00    +0.000 HD
ENDROOT
BRANCH   6  14
ATOM     14  C   UNL     1       2.887   5.449  19.717  0.00  0.00    +0.000 A 
ATOM     15  C   UNL     1       4.215   5.336  19.286  0.00  0.00    +0.000 A 
ATOM     16  C   UNL     1       4.788   4.072  19.157  0.00  0.00    +0.000 A 
ATOM     17  C   UNL     1       4.069   2.922  19.464  0.00  0.00    +0.000 A 
ATOM     18  C   UNL     1       2.757   3.025  19.921  0.00  0.00    +0.000 A 
ATOM     19  C   UNL     1       2.168   4.283  20.040  0.00  0.00    +0.000 A 
BRANCH  16  20
ATOM     20  O   UNL     1       6.069   3.912  18.719  0.00  0.00    +0.000 OA
ATOM     21  H   UNL     1       6.626   3.634  19.465  0.00  0.00    +0.000 HD
ENDBRANCH  16  20
BRANCH  19  22
ATOM     22  O   UNL     1       0.869   4.366  20.473  0.00  0.00    +0.000 OA
ATOM     23  H   UNL     1       0.494   5.218  20.189  0.00  0.00    +0.000 HD
ENDBRANCH  19  22
ENDBRANCH   6  14
TORSDOF 3
ENDMDL
MODEL 4
REMARK VINA RESULT:      -7.1      4.527      5.903
REMARK  Name = 
REMARK  5 active torsions:
REMARK  status: ('A' for Active; 'I' for Inactive)
REMARK    1  A    between atoms: C_1  and  C_2
REMARK    2  A    between atoms: C_6  and  C_7
REMARK    3  A    between atoms: C_9  and  O_10
REMARK    4  A    between atoms: C_13  and  O_14
REMARK    5  A    between atoms: C_19  and  C_20
REMARK                            x       y       z     vdW  Elec       q    Type
REMARK                         _______ _______ _______ _____ _____    ______ ____
ROOT
ATOM      1  C   UNL     1      -0.048  10.898  21.578  0.00  0.00    +0.000 C 
ATOM      2  C   UNL     1       0.607   9.760  20.865  0.00  0.00    +0.000 A 
ATOM      3  S   UNL     1       0.658   8.215  21.600  0.00  0.00    +0.000 S 
ATOM      4  C   UNL     1       1.477   7.527  20.272  0.00  0.00    +0.000 A 
ATOM      5  N   UNL     1       1.803   6.205  20.255  0.00  0.00    +0.000 NA
ATOM      6  C   UNL     1       2.372   5.802  19.158  0.00  0.00    +0.000 A 
ATOM      7  N   UNL     1       2.672   6.655  18.112  0.00  0.00    +0.000 N 
ATOM      8  C   UNL     1       2.373   7.993  18.084  0.00  0.00    +0.000 A 
ATOM      9  O   UNL     1       2.646   8.689  17.111  0.00  0.00    +0.000 OA
ATOM     10  C   UNL     1       1.706   8.461  19.283  0.00  0.00    +0.000 A 
ATOM     11  C   UNL     1       1.215   9.773  19.618  0.00  0.00    +0.000 A 
ATOM     12  C   UNL     1       1.323  10.992  18.758  0.00  0.00    +0.000 C 
ATOM     13  H   UNL     1       3.071   6.276  17.262  0.00  0.00    +0.000 HD
ENDROOT
BRANCH   6  14
ATOM     14  C   UNL     1       2.766   4.377  18.961  0.00  0.00    +0.000 A 
ATOM     15  C   UNL     1       3.793   3.851  19.756  0.00  0.00    +0.000 A 
ATOM     16  C   UNL     1       4.203   2.534  19.561  0.00  0.00    +0.000 A 
ATOM     17  C   UNL     1       3.599   1.727  18.603  0.00  0.00    +0.000 A 
ATOM     18  C   UNL     1       2.558   2.232  17.826  0.00  0.00    +0.000 A 
ATOM     19  C   UNL     1       2.149   3.553  18.002  0.00  0.00    +0.000 A 
BRANCH  16  20
ATOM     20  O   UNL     1       5.213   1.986  20.295  0.00  0.00    +0.000 OA
ATOM     21  H   UNL     1       4.837   1.566  21.086  0.00  0.00    +0.000 HD
ENDBRANCH  16  20
BRANCH  19  22
ATOM     22  O   UNL     1       1.135   4.040  17.217  0.00  0.00    +0.000 OA
ATOM     23  H   UNL     1       1.301   4.982  17.032  0.00  0.00    +0.000 HD
ENDBRANCH  19  22
ENDBRANCH   6  14
TORSDOF 3
ENDMDL
MODEL 5
REMARK VINA RESULT:      -7.1      3.812      7.912
REMARK  Name = 
REMARK  5 active torsions:
REMARK  status: ('A' for Active; 'I' for Inactive)
REMARK    1  A    between atoms: C_1  and  C_2
REMARK    2  A    between atoms: C_6  and  C_7
REMARK    3  A    between atoms: C_9  and  O_10
REMARK    4  A    between atoms: C_13  and  O_14
REMARK    5  A    between atoms: C_19  and  C_20
REMARK                            x       y       z     vdW  Elec       q    Type
REMARK                         _______ _______ _______ _____ _____    ______ ____
ROOT
ATOM      1  C   UNL     1       5.459   4.265  16.197  0.00  0.00    +0.000 C 
ATOM      2  C   UNL     1       4.604   4.925  17.230  0.00  0.00    +0.000 A 
ATOM      3  S   UNL     1       4.230   6.589  17.086  0.00  0.00    +0.000 S 
ATOM      4  C   UNL     1       3.291   6.578  18.508  0.00  0.00    +0.000 A 
ATOM      5  N   UNL     1       2.656   7.703  18.942  0.00  0.00    +0.000 NA
ATOM      6  C   UNL     1       1.929   7.539  20.005  0.00  0.00    +0.000 A 
ATOM      7  N   UNL     1       1.845   6.333  20.679  0.00  0.00    +0.000 N 
ATOM      8  C   UNL     1       2.470   5.177  20.290  0.00  0.00    +0.000 A 
ATOM      9  O   UNL     1       2.334   4.133  20.920  0.00  0.00    +0.000 OA
ATOM     10  C   UNL     1       3.262   5.325  19.083  0.00  0.00    +0.000 A 
ATOM     11  C   UNL     1       4.033   4.349  18.356  0.00  0.00    +0.000 A 
ATOM     12  C   UNL     1       4.204   2.912  18.733  0.00  0.00    +0.000 C 
ATOM     13  H   UNL     1       1.224   6.251  21.474  0.00  0.00    +0.000 HD
ENDROOT
BRANCH   6  14
ATOM     14  C   UNL     1       1.142   8.661  20.594  0.00  0.00    +0.000 A 
ATOM     15  C   UNL     1       0.973   8.701  21.985  0.00  0.00    +0.000 A 
ATOM     16  C   UNL     1       0.209   9.719  22.552  0.00  0.00    +0.000 A 
ATOM     17  C   UNL     1      -0.375  10.705  21.764  0.00  0.00    +0.000 A 
ATOM     18  C   UNL     1      -0.190  10.689  20.383  0.00  0.00    +0.000 A 
ATOM     19  C   UNL     1       0.561   9.668  19.802  0.00  0.00    +0.000 A 
BRANCH  16  20
ATOM     20  O   UNL     1      -0.002   9.786  23.897  0.00  0.00    +0.000 OA
ATOM     21  H   UNL     1      -0.958   9.829  24.066  0.00  0.00    +0.000 HD
ENDBRANCH  16  20
BRANCH  19  22
ATOM     22  O   UNL     1       0.718   9.657  18.440  0.00  0.00    +0.000 OA
ATOM     23  H   UNL     1       1.668   9.614  18.230  0.00  0.00    +0.000 HD
ENDBRANCH  19  22
ENDBRANCH   6  14
TORSDOF 3
ENDMDL
MODEL 6
REMARK VINA RESULT:      -7.0      3.213      7.289
REMARK  Name = 
REMARK  5 active torsions:
REMARK  status: ('A' for Active; 'I' for Inactive)
REMARK    1  A    between atoms: C_1  and  C_2
REMARK    2  A    between atoms: C_6  and  C_7
REMARK    3  A    between atoms: C_9  and  O_10
REMARK    4  A    between atoms: C_13  and  O_14
REMARK    5  A    between atoms: C_19  and  C_20
REMARK                            x       y       z     vdW  Elec       q    Type
REMARK                         _______ _______ _______ _____ _____    ______ ____
ROOT
ATOM      1  C   UNL     1       3.701   1.411  18.503  0.00  0.00    +0.000 C 
ATOM      2  C   UNL     1       3.384   2.867  18.625  0.00  0.00    +0.000 A 
ATOM      3  S   UNL     1       2.294   3.399  19.832  0.00  0.00    +0.000 S 
ATOM      4  C   UNL     1       2.461   5.031  19.370  0.00  0.00    +0.000 A 
ATOM      5  N   UNL     1       1.800   6.022  20.031  0.00  0.00    +0.000 NA
ATOM      6  C   UNL     1       2.065   7.223  19.612  0.00  0.00    +0.000 A 
ATOM      7  N   UNL     1       2.907   7.477  18.545  0.00  0.00    +0.000 N 
ATOM      8  C   UNL     1       3.588   6.516  17.841  0.00  0.00    +0.000 A 
ATOM      9  O   UNL     1       4.340   6.812  16.919  0.00  0.00    +0.000 OA
ATOM     10  C   UNL     1       3.337   5.168  18.313  0.00  0.00    +0.000 A 
ATOM     11  C   UNL     1       3.876   3.912  17.857  0.00  0.00    +0.000 A 
ATOM     12  C   UNL     1       4.839   3.733  16.727  0.00  0.00    +0.000 C 
ATOM     13  H   UNL     1       3.114   8.435  18.293  0.00  0.00    +0.000 HD
ENDROOT
BRANCH   6  14
ATOM     14  C   UNL     1       1.451   8.424  20.247  0.00  0.00    +0.000 A 
ATOM     15  C   UNL     1       1.367   8.472  21.645  0.00  0.00    +0.000 A 
ATOM     16  C   UNL     1       0.762   9.568  22.258  0.00  0.00    +0.000 A 
ATOM     17  C   UNL     1       0.255  10.622  21.506  0.00  0.00    +0.000 A 
ATOM     18  C   UNL     1       0.358  10.597  20.117  0.00  0.00    +0.000 A 
ATOM     19  C   UNL     1       0.948   9.500  19.492  0.00  0.00    +0.000 A 
BRANCH  16  20
ATOM     20  O   UNL     1       0.638   9.648  23.613  0.00  0.00    +0.000 OA
ATOM     21  H   UNL     1      -0.190   9.213  23.881  0.00  0.00    +0.000 HD
ENDBRANCH  16  20
BRANCH  19  22
ATOM     22  O   UNL     1       1.025   9.482  18.123  0.00  0.00    +0.000 OA
ATOM     23  H   UNL     1       0.333  10.061  17.758  0.00  0.00    +0.000 HD
ENDBRANCH  19  22
ENDBRANCH   6  14
TORSDOF 3
ENDMDL
MODEL 7
REMARK VINA RESULT:      -7.0      4.545      5.991
REMARK  Name = 
REMARK  5 active torsions:
REMARK  status: ('A' for Active; 'I' for Inactive)
REMARK    1  A    between atoms: C_1  and  C_2
REMARK    2  A    between atoms: C_6  and  C_7
REMARK    3  A    between atoms: C_9  and  O_10
REMARK    4  A    between atoms: C_13  and  O_14
REMARK    5  A    between atoms: C_19  and  C_20
REMARK                            x       y       z     vdW  Elec       q    Type
REMARK                         _______ _______ _______ _____ _____    ______ ____
ROOT
ATOM      1  C   UNL     1      -0.201  11.394  21.767  0.00  0.00    +0.000 C 
ATOM      2  C   UNL     1       0.460  10.261  21.051  0.00  0.00    +0.000 A 
ATOM      3  S   UNL     1       0.680   8.764  21.852  0.00  0.00    +0.000 S 
ATOM      4  C   UNL     1       1.418   8.057  20.488  0.00  0.00    +0.000 A 
ATOM      5  N   UNL     1       1.828   6.758  20.503  0.00  0.00    +0.000 NA
ATOM      6  C   UNL     1       2.320   6.332  19.379  0.00  0.00    +0.000 A 
ATOM      7  N   UNL     1       2.467   7.144  18.268  0.00  0.00    +0.000 N 
ATOM      8  C   UNL     1       2.079   8.458  18.205  0.00  0.00    +0.000 A 
ATOM      9  O   UNL     1       2.216   9.116  17.179  0.00  0.00    +0.000 OA
ATOM     10  C   UNL     1       1.494   8.948  19.438  0.00  0.00    +0.000 A 
ATOM     11  C   UNL     1       0.950  10.244  19.753  0.00  0.00    +0.000 A 
ATOM     12  C   UNL     1       0.899  11.420  18.829  0.00  0.00    +0.000 C 
ATOM     13  H   UNL     1       2.812   6.745  17.404  0.00  0.00    +0.000 HD
ENDROOT
BRANCH   6  14
ATOM     14  C   UNL     1       2.788   4.926  19.214  0.00  0.00    +0.000 A 
ATOM     15  C   UNL     1       1.833   3.928  18.977  0.00  0.00    +0.000 A 
ATOM     16  C   UNL     1       2.245   2.602  18.859  0.00  0.00    +0.000 A 
ATOM     17  C   UNL     1       3.588   2.254  18.955  0.00  0.00    +0.000 A 
ATOM     18  C   UNL     1       4.548   3.242  19.162  0.00  0.00    +0.000 A 
ATOM     19  C   UNL     1       4.147   4.571  19.297  0.00  0.00    +0.000 A 
BRANCH  16  20
ATOM     20  O   UNL     1       1.350   1.594  18.652  0.00  0.00    +0.000 OA
ATOM     21  H   UNL     1       0.476   1.979  18.470  0.00  0.00    +0.000 HD
ENDBRANCH  16  20
BRANCH  19  22
ATOM     22  O   UNL     1       5.102   5.530  19.519  0.00  0.00    +0.000 OA
ATOM     23  H   UNL     1       5.641   5.269  20.287  0.00  0.00    +0.000 HD
ENDBRANCH  19  22
ENDBRANCH   6  14
TORSDOF 3
ENDMDL
MODEL 8
REMARK VINA RESULT:      -7.0      3.146      4.653
REMARK  Name = 
REMARK  5 active torsions:
REMARK  status: ('A' for Active; 'I' for Inactive)
REMARK    1  A    between atoms: C_1  and  C_2
REMARK    2  A    between atoms: C_6  and  C_7
REMARK    3  A    between atoms: C_9  and  O_10
REMARK    4  A    between atoms: C_13  and  O_14
REMARK    5  A    between atoms: C_19  and  C_20
REMARK                            x       y       z     vdW  Elec       q    Type
REMARK                         _______ _______ _______ _____ _____    ______ ____
ROOT
ATOM      1  C   UNL     1       0.191  11.169  19.913  0.00  0.00    +0.000 C 
ATOM      2  C   UNL     1       0.931   9.919  19.562  0.00  0.00    +0.000 A 
ATOM      3  S   UNL     1       1.857   9.857  18.124  0.00  0.00    +0.000 S 
ATOM      4  C   UNL     1       2.355   8.254  18.425  0.00  0.00    +0.000 A 
ATOM      5  N   UNL     1       3.197   7.607  17.572  0.00  0.00    +0.000 NA
ATOM      6  C   UNL     1       3.541   6.413  17.953  0.00  0.00    +0.000 A 
ATOM      7  N   UNL     1       3.051   5.822  19.104  0.00  0.00    +0.000 N 
ATOM      8  C   UNL     1       2.196   6.427  19.990  0.00  0.00    +0.000 A 
ATOM      9  O   UNL     1       1.819   5.855  21.007  0.00  0.00    +0.000 OA
ATOM     10  C   UNL     1       1.824   7.775  19.605  0.00  0.00    +0.000 A 
ATOM     11  C   UNL     1       0.980   8.731  20.276  0.00  0.00    +0.000 A 
ATOM     12  C   UNL     1       0.256   8.503  21.565  0.00  0.00    +0.000 C 
ATOM     13  H   UNL     1       3.391   4.909  19.377  0.00  0.00    +0.000 HD
ENDROOT
BRANCH   6  14
ATOM     14  C   UNL     1       4.481   5.578  17.152  0.00  0.00    +0.000 A 
ATOM     15  C   UNL     1       5.676   6.158  16.707  0.00  0.00    +0.000 A 
ATOM     16  C   UNL     1       6.552   5.408  15.924  0.00  0.00    +0.000 A 
ATOM     17  C   UNL     1       6.267   4.088  15.591  0.00  0.00    +0.000 A 
ATOM     18  C   UNL     1       5.095   3.493  16.052  0.00  0.00    +0.000 A 
ATOM     19  C   UNL     1       4.204   4.238  16.824  0.00  0.00    +0.000 A 
BRANCH  16  20
ATOM     20  O   UNL     1       7.715   5.937  15.449  0.00  0.00    +0.000 OA
ATOM     21  H   UNL     1       7.904   6.764  15.923  0.00  0.00    +0.000 HD
ENDBRANCH  16  20
BRANCH  19  22
ATOM     22  O   UNL     1       3.046   3.643  17.254  0.00  0.00    +0.000 OA
ATOM     23  H   UNL     1       2.289   4.206  17.008  0.00  0.00    +0.000 HD
ENDBRANCH  19  22
ENDBRANCH   6  14
TORSDOF 3
ENDMDL
MODEL 9
REMARK VINA RESULT:      -6.9      4.511      6.766
REMARK  Name = 
REMARK  5 active torsions:
REMARK  status: ('A' for Active; 'I' for Inactive)
REMARK    1  A    between atoms: C_1  and  C_2
REMARK    2  A    between atoms: C_6  and  C_7
REMARK    3  A    between atoms: C_9  and  O_10
REMARK    4  A    between atoms: C_13  and  O_14
REMARK    5  A    between atoms: C_19  and  C_20
REMARK                            x       y       z     vdW  Elec       q    Type
REMARK                         _______ _______ _______ _____ _____    ______ ____
ROOT
ATOM      1  C   UNL     1       0.754  12.643  18.455  0.00  0.00    +0.000 C 
ATOM      2  C   UNL     1       1.028  11.254  18.934  0.00  0.00    +0.000 A 
ATOM      3  S   UNL     1       1.849  10.152  17.914  0.00  0.00    +0.000 S 
ATOM      4  C   UNL     1       1.791   8.911  19.082  0.00  0.00    +0.000 A 
ATOM      5  N   UNL     1       2.351   7.692  18.843  0.00  0.00    +0.000 NA
ATOM      6  C   UNL     1       2.286   6.862  19.840  0.00  0.00    +0.000 A 
ATOM      7  N   UNL     1       1.653   7.168  21.031  0.00  0.00    +0.000 N 
ATOM      8  C   UNL     1       1.068   8.374  21.318  0.00  0.00    +0.000 A 
ATOM      9  O   UNL     1       0.544   8.589  22.406  0.00  0.00    +0.000 OA
ATOM     10  C   UNL     1       1.158   9.332  20.233  0.00  0.00    +0.000 A 
ATOM     11  C   UNL     1       0.695  10.694  20.159  0.00  0.00    +0.000 A 
ATOM     12  C   UNL     1      -0.035  11.429  21.238  0.00  0.00    +0.000 C 
ATOM     13  H   UNL     1       1.676   6.499  21.791  0.00  0.00    +0.000 HD
ENDROOT
BRANCH   6  14
ATOM     14  C   UNL     1       2.877   5.495  19.758  0.00  0.00    +0.000 A 
ATOM     15  C   UNL     1       4.201   5.365  19.317  0.00  0.00    +0.000 A 
ATOM     16  C   UNL     1       4.760   4.095  19.196  0.00  0.00    +0.000 A 
ATOM     17  C   UNL     1       4.033   2.955  19.520  0.00  0.00    +0.000 A 
ATOM     18  C   UNL     1       2.725   3.075  19.986  0.00  0.00    +0.000 A 
ATOM     19  C   UNL     1       2.149   4.340  20.097  0.00  0.00    +0.000 A 
BRANCH  16  20
ATOM     20  O   UNL     1       6.036   3.918  18.750  0.00  0.00    +0.000 OA
ATOM     21  H   UNL     1       6.057   4.053  17.788  0.00  0.00    +0.000 HD
ENDBRANCH  16  20
BRANCH  19  22
ATOM     22  O   UNL     1       0.855   4.440  20.539  0.00  0.00    +0.000 OA
ATOM     23  H   UNL     1       0.252   4.354  19.779  0.00  0.00    +0.000 HD
ENDBRANCH  19  22
ENDBRANCH   6  14
TORSDOF 3
ENDMDL
