MODEL 1
REMARK VINA RESULT:      -8.9      0.000      0.000
REMARK  Name = 
REMARK  3 active torsions:
REMARK  status: ('A' for Active; 'I' for Inactive)
REMARK    1  A    between atoms: C_2  and  C_3
REMARK    2  A    between atoms: C_6  and  C_7
REMARK    3  A    between atoms: C_12  and  C_13
REMARK                            x       y       z     vdW  Elec       q    Type
REMARK                         _______ _______ _______ _____ _____    ______ ____
ROOT
ATOM      1  C   UNL     1       4.002   3.510  17.896  0.00  0.00    +0.000 A 
ATOM      2  N   UNL     1       3.923   2.151  17.804  0.00  0.00    +0.000 NA
ATOM      3  C   UNL     1       3.179   1.518  18.736  0.00  0.00    +0.000 A 
ATOM      4  C   UNL     1       2.533   2.198  19.745  0.00  0.00    +0.000 A 
ATOM      5  N   UNL     1       2.595   3.539  19.859  0.00  0.00    +0.000 NA
ATOM      6  C   UNL     1       3.339   4.214  18.934  0.00  0.00    +0.000 A 
ENDROOT
BRANCH   6   7
ATOM      7  C   UNL     1       3.328   5.763  19.159  0.00  0.00    +0.000 C 
ATOM      8  C   UNL     1       2.609   6.731  18.198  0.00  0.00    +0.000 C 
ATOM      9  N   UNL     1       2.258   7.478  19.356  0.00  0.00    +0.000 N 
ATOM     10  C   UNL     1       1.494   8.626  19.536  0.00  0.00    +0.000 A 
ATOM     11  C   UNL     1       1.346   9.557  18.514  0.00  0.00    +0.000 A 
ATOM     12  C   UNL     1       0.665  10.746  18.768  0.00  0.00    +0.000 A 
ATOM     13  C   UNL     1       0.149  10.983  20.047  0.00  0.00    +0.000 A 
ATOM     14  C   UNL     1      -0.511  12.178  20.386  0.00  0.00    +0.000 A 
ATOM     15  C   UNL     1      -0.978  12.376  21.686  0.00  0.00    +0.000 A 
ATOM     16  C   UNL     1      -0.802  11.381  22.641  0.00  0.00    +0.000 A 
ATOM     17  C   UNL     1      -0.162  10.192  22.294  0.00  0.00    +0.000 A 
ATOM     18  C   UNL     1       0.327   9.979  21.016  0.00  0.00    +0.000 A 
ATOM     19  N   UNL     1       0.976   8.835  20.763  0.00  0.00    +0.000 NA
ATOM     20  C   UNL     1       2.425   6.379  20.247  0.00  0.00    +0.000 C 
ENDBRANCH   6   7
BRANCH   1  24
ATOM     21  C   UNL     1       6.722   5.042  14.916  0.00  0.00    +0.000 A 
ATOM     22  C   UNL     1       6.932   5.337  16.260  0.00  0.00    +0.000 A 
ATOM     23  C   UNL     1       5.999   4.923  17.218  0.00  0.00    +0.000 A 
ATOM     24  C   UNL     1       4.886   4.135  16.882  0.00  0.00    +0.000 A 
ATOM     25  C   UNL     1       4.650   3.935  15.507  0.00  0.00    +0.000 A 
ATOM     26  C   UNL     1       5.560   4.381  14.545  0.00  0.00    +0.000 A 
ATOM     27  F   UNL     1       5.305   4.132  13.253  0.00  0.00    +0.000 F 
BRANCH  21  29
ATOM     28  N   UNL     1       8.514   5.736  13.181  0.00  0.00    +0.000 NA
ATOM     29  C   UNL     1       7.695   5.412  13.942  0.00  0.00    +0.000 C 
ENDBRANCH  21  29
ENDBRANCH   1  24
TORSDOF 3
ENDMDL
MODEL 2
REMARK VINA RESULT:      -8.8      1.481      1.952
REMARK  Name = 
REMARK  3 active torsions:
REMARK  status: ('A' for Active; 'I' for Inactive)
REMARK    1  A    between atoms: C_2  and  C_3
REMARK    2  A    between atoms: C_6  and  C_7
REMARK    3  A    between atoms: C_12  and  C_13
REMARK                            x       y       z     vdW  Elec       q    Type
REMARK                         _______ _______ _______ _____ _____    ______ ____
ROOT
ATOM      1  C   UNL     1       3.064   3.600  19.169  0.00  0.00    +0.000 A 
ATOM      2  N   UNL     1       2.746   2.282  19.319  0.00  0.00    +0.000 NA
ATOM      3  C   UNL     1       1.826   1.979  20.260  0.00  0.00    +0.000 A 
ATOM      4  C   UNL     1       1.235   2.943  21.045  0.00  0.00    +0.000 A 
ATOM      5  N   UNL     1       1.530   4.252  20.918  0.00  0.00    +0.000 NA
ATOM      6  C   UNL     1       2.458   4.596  19.977  0.00  0.00    +0.000 A 
ENDROOT
BRANCH   6   7
ATOM      7  C   UNL     1       2.711   6.140  19.912  0.00  0.00    +0.000 C 
ATOM      8  C   UNL     1       2.297   6.992  18.695  0.00  0.00    +0.000 C 
ATOM      9  N   UNL     1       1.965   8.008  19.633  0.00  0.00    +0.000 N 
ATOM     10  C   UNL     1       1.413   9.277  19.486  0.00  0.00    +0.000 A 
ATOM     11  C   UNL     1       1.557   9.989  18.301  0.00  0.00    +0.000 A 
ATOM     12  C   UNL     1       1.086  11.298  18.231  0.00  0.00    +0.000 A 
ATOM     13  C   UNL     1       0.482  11.873  19.356  0.00  0.00    +0.000 A 
ATOM     14  C   UNL     1       0.023  13.203  19.371  0.00  0.00    +0.000 A 
ATOM     15  C   UNL     1      -0.541  13.736  20.530  0.00  0.00    +0.000 A 
ATOM     16  C   UNL     1      -0.663  12.943  21.666  0.00  0.00    +0.000 A 
ATOM     17  C   UNL     1      -0.220  11.621  21.639  0.00  0.00    +0.000 A 
ATOM     18  C   UNL     1       0.360  11.074  20.507  0.00  0.00    +0.000 A 
ATOM     19  N   UNL     1       0.808   9.813  20.566  0.00  0.00    +0.000 NA
ATOM     20  C   UNL     1       1.823   7.103  20.725  0.00  0.00    +0.000 C 
ENDBRANCH   6   7
BRANCH   1  24
ATOM     21  C   UNL     1       6.098   4.666  16.290  0.00  0.00    +0.000 A 
ATOM     22  C   UNL     1       4.856   4.213  15.852  0.00  0.00    +0.000 A 
ATOM     23  C   UNL     1       3.906   3.776  16.781  0.00  0.00    +0.000 A 
ATOM     24  C   UNL     1       4.126   3.857  18.166  0.00  0.00    +0.000 A 
ATOM     25  C   UNL     1       5.423   4.228  18.575  0.00  0.00    +0.000 A 
ATOM     26  C   UNL     1       6.387   4.628  17.647  0.00  0.00    +0.000 A 
ATOM     27  F   UNL     1       7.594   5.005  18.093  0.00  0.00    +0.000 F 
BRANCH  21  29
ATOM     28  N   UNL     1       7.821   5.531  14.563  0.00  0.00    +0.000 NA
ATOM     29  C   UNL     1       7.050   5.164  15.353  0.00  0.00    +0.000 C 
ENDBRANCH  21  29
ENDBRANCH   1  24
TORSDOF 3
ENDMDL
MODEL 3
REMARK VINA RESULT:      -8.5      5.091      7.444
REMARK  Name = 
REMARK  3 active torsions:
REMARK  status: ('A' for Active; 'I' for Inactive)
REMARK    1  A    between atoms: C_2  and  C_3
REMARK    2  A    between atoms: C_6  and  C_7
REMARK    3  A    between atoms: C_12  and  C_13
REMARK                            x       y       z     vdW  Elec       q    Type
REMARK                         _______ _______ _______ _____ _____    ______ ____
ROOT
ATOM      1  C   UNL     1       5.687   4.574  16.773  0.00  0.00    +0.000 A 
ATOM      2  N   UNL     1       5.585   3.606  15.817  0.00  0.00    +0.000 NA
ATOM      3  C   UNL     1       6.309   3.782  14.691  0.00  0.00    +0.000 A 
ATOM      4  C   UNL     1       7.109   4.885  14.497  0.00  0.00    +0.000 A 
ATOM      5  N   UNL     1       7.228   5.856  15.425  0.00  0.00    +0.000 NA
ATOM      6  C   UNL     1       6.510   5.713  16.578  0.00  0.00    +0.000 A 
ENDROOT
BRANCH   6   7
ATOM      7  C   UNL     1       6.736   6.891  17.583  0.00  0.00    +0.000 C 
ATOM      8  C   UNL     1       8.106   7.167  18.237  0.00  0.00    +0.000 C 
ATOM      9  N   UNL     1       7.791   8.547  18.104  0.00  0.00    +0.000 N 
ATOM     10  C   UNL     1       8.501   9.705  18.406  0.00  0.00    +0.000 A 
ATOM     11  C   UNL     1       9.484   9.708  19.388  0.00  0.00    +0.000 A 
ATOM     12  C   UNL     1      10.095  10.910  19.737  0.00  0.00    +0.000 A 
ATOM     13  C   UNL     1       9.704  12.091  19.098  0.00  0.00    +0.000 A 
ATOM     14  C   UNL     1      10.246  13.347  19.430  0.00  0.00    +0.000 A 
ATOM     15  C   UNL     1       9.796  14.498  18.783  0.00  0.00    +0.000 A 
ATOM     16  C   UNL     1       8.820  14.398  17.797  0.00  0.00    +0.000 A 
ATOM     17  C   UNL     1       8.298  13.150  17.462  0.00  0.00    +0.000 A 
ATOM     18  C   UNL     1       8.715  11.995  18.102  0.00  0.00    +0.000 A 
ATOM     19  N   UNL     1       8.137  10.834  17.765  0.00  0.00    +0.000 NA
ATOM     20  C   UNL     1       6.838   8.340  17.065  0.00  0.00    +0.000 C 
ENDBRANCH   6   7
BRANCH   1  24
ATOM     21  C   UNL     1       3.036   3.671  20.057  0.00  0.00    +0.000 A 
ATOM     22  C   UNL     1       2.724   4.707  19.181  0.00  0.00    +0.000 A 
ATOM     23  C   UNL     1       3.628   5.065  18.175  0.00  0.00    +0.000 A 
ATOM     24  C   UNL     1       4.819   4.352  17.956  0.00  0.00    +0.000 A 
ATOM     25  C   UNL     1       5.150   3.374  18.914  0.00  0.00    +0.000 A 
ATOM     26  C   UNL     1       4.267   3.040  19.943  0.00  0.00    +0.000 A 
ATOM     27  F   UNL     1       4.618   2.077  20.807  0.00  0.00    +0.000 F 
BRANCH  21  29
ATOM     28  N   UNL     1       1.363   2.912  21.882  0.00  0.00    +0.000 NA
ATOM     29  C   UNL     1       2.096   3.265  21.049  0.00  0.00    +0.000 C 
ENDBRANCH  21  29
ENDBRANCH   1  24
TORSDOF 3
ENDMDL
MODEL 4
REMARK VINA RESULT:      -8.4      3.760      9.716
REMARK  Name = 
REMARK  3 active torsions:
REMARK  status: ('A' for Active; 'I' for Inactive)
REMARK    1  A    between atoms: C_2  and  C_3
REMARK    2  A    between atoms: C_6  and  C_7
REMARK    3  A    between atoms: C_12  and  C_13
REMARK                            x       y       z     vdW  Elec       q    Type
REMARK                         _______ _______ _______ _____ _____    ______ ____
ROOT
ATOM      1  C   UNL     1      -0.155  12.770  18.978  0.00  0.00    +0.000 A 
ATOM      2  N   UNL     1      -0.022  14.083  19.324  0.00  0.00    +0.000 NA
ATOM      3  C   UNL     1       1.235  14.545  19.496  0.00  0.00    +0.000 A 
ATOM      4  C   UNL     1       2.340  13.738  19.342  0.00  0.00    +0.000 A 
ATOM      5  N   UNL     1       2.238  12.438  19.001  0.00  0.00    +0.000 NA
ATOM      6  C   UNL     1       0.981  11.935  18.819  0.00  0.00    +0.000 A 
ENDROOT
BRANCH   6   7
ATOM      7  C   UNL     1       0.985  10.423  18.415  0.00  0.00    +0.000 C 
ATOM      8  C   UNL     1       2.234   9.729  17.834  0.00  0.00    +0.000 C 
ATOM      9  N   UNL     1       1.837   8.587  18.583  0.00  0.00    +0.000 N 
ATOM     10  C   UNL     1       2.413   7.333  18.758  0.00  0.00    +0.000 A 
ATOM     11  C   UNL     1       3.257   6.790  17.796  0.00  0.00    +0.000 A 
ATOM     12  C   UNL     1       3.726   5.488  17.957  0.00  0.00    +0.000 A 
ATOM     13  C   UNL     1       3.335   4.750  19.080  0.00  0.00    +0.000 A 
ATOM     14  C   UNL     1       3.734   3.416  19.285  0.00  0.00    +0.000 A 
ATOM     15  C   UNL     1       3.287   2.715  20.406  0.00  0.00    +0.000 A 
ATOM     16  C   UNL     1       2.459   3.345  21.328  0.00  0.00    +0.000 A 
ATOM     17  C   UNL     1       2.080   4.672  21.127  0.00  0.00    +0.000 A 
ATOM     18  C   UNL     1       2.494   5.383  20.013  0.00  0.00    +0.000 A 
ATOM     19  N   UNL     1       2.053   6.638  19.857  0.00  0.00    +0.000 NA
ATOM     20  C   UNL     1       1.046   9.332  19.504  0.00  0.00    +0.000 C 
ENDBRANCH   6   7
BRANCH   1  24
ATOM     21  C   UNL     1      -4.307  11.702  18.478  0.00  0.00    +0.000 A 
ATOM     22  C   UNL     1      -3.876  12.263  19.678  0.00  0.00    +0.000 A 
ATOM     23  C   UNL     1      -2.516  12.520  19.877  0.00  0.00    +0.000 A 
ATOM     24  C   UNL     1      -1.562  12.311  18.868  0.00  0.00    +0.000 A 
ATOM     25  C   UNL     1      -2.013  11.656  17.704  0.00  0.00    +0.000 A 
ATOM     26  C   UNL     1      -3.365  11.363  17.517  0.00  0.00    +0.000 A 
ATOM     27  F   UNL     1      -3.745  10.771  16.376  0.00  0.00    +0.000 F 
BRANCH  21  29
ATOM     28  N   UNL     1      -6.824  11.269  18.053  0.00  0.00    +0.000 NA
ATOM     29  C   UNL     1      -5.697  11.489  18.247  0.00  0.00    +0.000 C 
ENDBRANCH  21  29
ENDBRANCH   1  24
TORSDOF 3
ENDMDL
MODEL 5
REMARK VINA RESULT:      -8.4      1.378      1.716
REMARK  Name = 
REMARK  3 active torsions:
REMARK  status: ('A' for Active; 'I' for Inactive)
REMARK    1  A    between atoms: C_2  and  C_3
REMARK    2  A    between atoms: C_6  and  C_7
REMARK    3  A    between atoms: C_12  and  C_13
REMARK                            x       y       z     vdW  Elec       q    Type
REMARK                         _______ _______ _______ _____ _____    ______ ____
ROOT
ATOM      1  C   UNL     1       3.046   4.231  19.071  0.00  0.00    +0.000 A 
ATOM      2  N   UNL     1       2.801   2.888  19.098  0.00  0.00    +0.000 NA
ATOM      3  C   UNL     1       1.830   2.461  19.934  0.00  0.00    +0.000 A 
ATOM      4  C   UNL     1       1.118   3.327  20.734  0.00  0.00    +0.000 A 
ATOM      5  N   UNL     1       1.339   4.657  20.726  0.00  0.00    +0.000 NA
ATOM      6  C   UNL     1       2.315   5.125  19.894  0.00  0.00    +0.000 A 
ENDROOT
BRANCH   6   7
ATOM      7  C   UNL     1       2.474   6.681  19.960  0.00  0.00    +0.000 C 
ATOM      8  C   UNL     1       1.940   7.612  18.853  0.00  0.00    +0.000 C 
ATOM      9  N   UNL     1       1.605   8.516  19.898  0.00  0.00    +0.000 N 
ATOM     10  C   UNL     1       0.973   9.755  19.901  0.00  0.00    +0.000 A 
ATOM     11  C   UNL     1       1.005  10.580  18.782  0.00  0.00    +0.000 A 
ATOM     12  C   UNL     1       0.455  11.857  18.861  0.00  0.00    +0.000 A 
ATOM     13  C   UNL     1      -0.114  12.288  20.065  0.00  0.00    +0.000 A 
ATOM     14  C   UNL     1      -0.648  13.580  20.229  0.00  0.00    +0.000 A 
ATOM     15  C   UNL     1      -1.173  13.969  21.462  0.00  0.00    +0.000 A 
ATOM     16  C   UNL     1      -1.181  13.070  22.523  0.00  0.00    +0.000 A 
ATOM     17  C   UNL     1      -0.665  11.787  22.349  0.00  0.00    +0.000 A 
ATOM     18  C   UNL     1      -0.121  11.383  21.141  0.00  0.00    +0.000 A 
ATOM     19  N   UNL     1       0.402  10.153  21.057  0.00  0.00    +0.000 NA
ATOM     20  C   UNL     1       1.580   7.509  20.906  0.00  0.00    +0.000 C 
ENDBRANCH   6   7
BRANCH   1  24
ATOM     21  C   UNL     1       6.179   5.177  16.257  0.00  0.00    +0.000 A 
ATOM     22  C   UNL     1       6.431   4.291  17.302  0.00  0.00    +0.000 A 
ATOM     23  C   UNL     1       5.448   4.057  18.270  0.00  0.00    +0.000 A 
ATOM     24  C   UNL     1       4.166   4.624  18.181  0.00  0.00    +0.000 A 
ATOM     25  C   UNL     1       3.973   5.587  17.170  0.00  0.00    +0.000 A 
ATOM     26  C   UNL     1       4.966   5.851  16.224  0.00  0.00    +0.000 A 
ATOM     27  F   UNL     1       4.717   6.751  15.262  0.00  0.00    +0.000 F 
BRANCH  21  29
ATOM     28  N   UNL     1       7.921   5.526  14.374  0.00  0.00    +0.000 NA
ATOM     29  C   UNL     1       7.155   5.378  15.238  0.00  0.00    +0.000 C 
ENDBRANCH  21  29
ENDBRANCH   1  24
TORSDOF 3
ENDMDL
MODEL 6
REMARK VINA RESULT:      -8.1      2.021      4.538
REMARK  Name = 
REMARK  3 active torsions:
REMARK  status: ('A' for Active; 'I' for Inactive)
REMARK    1  A    between atoms: C_2  and  C_3
REMARK    2  A    between atoms: C_6  and  C_7
REMARK    3  A    between atoms: C_12  and  C_13
REMARK                            x       y       z     vdW  Elec       q    Type
REMARK                         _______ _______ _______ _____ _____    ______ ____
ROOT
ATOM      1  C   UNL     1       5.103   4.163  16.478  0.00  0.00    +0.000 A 
ATOM      2  N   UNL     1       5.552   3.165  15.663  0.00  0.00    +0.000 NA
ATOM      3  C   UNL     1       6.226   3.539  14.554  0.00  0.00    +0.000 A 
ATOM      4  C   UNL     1       6.448   4.861  14.242  0.00  0.00    +0.000 A 
ATOM      5  N   UNL     1       6.015   5.867  15.028  0.00  0.00    +0.000 NA
ATOM      6  C   UNL     1       5.328   5.527  16.159  0.00  0.00    +0.000 A 
ENDROOT
BRANCH   6   7
ATOM      7  C   UNL     1       4.887   6.772  16.998  0.00  0.00    +0.000 C 
ATOM      8  C   UNL     1       3.781   7.737  16.523  0.00  0.00    +0.000 C 
ATOM      9  N   UNL     1       3.392   7.821  17.888  0.00  0.00    +0.000 N 
ATOM     10  C   UNL     1       2.354   8.489  18.528  0.00  0.00    +0.000 A 
ATOM     11  C   UNL     1       1.790   9.634  17.978  0.00  0.00    +0.000 A 
ATOM     12  C   UNL     1       0.828  10.336  18.701  0.00  0.00    +0.000 A 
ATOM     13  C   UNL     1       0.452   9.878  19.969  0.00  0.00    +0.000 A 
ATOM     14  C   UNL     1      -0.480  10.560  20.774  0.00  0.00    +0.000 A 
ATOM     15  C   UNL     1      -0.794  10.078  22.045  0.00  0.00    +0.000 A 
ATOM     16  C   UNL     1      -0.194   8.912  22.508  0.00  0.00    +0.000 A 
ATOM     17  C   UNL     1       0.717   8.232  21.699  0.00  0.00    +0.000 A 
ATOM     18  C   UNL     1       1.059   8.700  20.442  0.00  0.00    +0.000 A 
ATOM     19  N   UNL     1       1.977   8.026  19.738  0.00  0.00    +0.000 NA
ATOM     20  C   UNL     1       4.006   6.587  18.250  0.00  0.00    +0.000 C 
ENDBRANCH   6   7
BRANCH   1  24
ATOM     21  C   UNL     1       2.734   3.088  19.922  0.00  0.00    +0.000 A 
ATOM     22  C   UNL     1       4.121   3.139  20.025  0.00  0.00    +0.000 A 
ATOM     23  C   UNL     1       4.896   3.393  18.888  0.00  0.00    +0.000 A 
ATOM     24  C   UNL     1       4.316   3.687  17.642  0.00  0.00    +0.000 A 
ATOM     25  C   UNL     1       2.919   3.533  17.548  0.00  0.00    +0.000 A 
ATOM     26  C   UNL     1       2.145   3.242  18.674  0.00  0.00    +0.000 A 
ATOM     27  F   UNL     1       0.816   3.143  18.535  0.00  0.00    +0.000 F 
BRANCH  21  29
ATOM     28  N   UNL     1       1.287   2.672  22.028  0.00  0.00    +0.000 NA
ATOM     29  C   UNL     1       1.937   2.884  21.086  0.00  0.00    +0.000 C 
ENDBRANCH  21  29
ENDBRANCH   1  24
TORSDOF 3
ENDMDL
MODEL 7
REMARK VINA RESULT:      -8.1      2.275      2.742
REMARK  Name = 
REMARK  3 active torsions:
REMARK  status: ('A' for Active; 'I' for Inactive)
REMARK    1  A    between atoms: C_2  and  C_3
REMARK    2  A    between atoms: C_6  and  C_7
REMARK    3  A    between atoms: C_12  and  C_13
REMARK                            x       y       z     vdW  Elec       q    Type
REMARK                         _______ _______ _______ _____ _____    ______ ____
ROOT
ATOM      1  C   UNL     1       2.847   4.546  19.137  0.00  0.00    +0.000 A 
ATOM      2  N   UNL     1       2.638   3.244  18.782  0.00  0.00    +0.000 NA
ATOM      3  C   UNL     1       1.567   2.628  19.326  0.00  0.00    +0.000 A 
ATOM      4  C   UNL     1       0.722   3.266  20.207  0.00  0.00    +0.000 A 
ATOM      5  N   UNL     1       0.905   4.550  20.573  0.00  0.00    +0.000 NA
ATOM      6  C   UNL     1       1.979   5.206  20.044  0.00  0.00    +0.000 A 
ENDROOT
BRANCH   6   7
ATOM      7  C   UNL     1       2.083   6.690  20.530  0.00  0.00    +0.000 C 
ATOM      8  C   UNL     1       1.893   7.886  19.575  0.00  0.00    +0.000 C 
ATOM      9  N   UNL     1       1.242   8.534  20.661  0.00  0.00    +0.000 N 
ATOM     10  C   UNL     1       0.617   9.772  20.777  0.00  0.00    +0.000 A 
ATOM     11  C   UNL     1       0.971  10.834  19.954  0.00  0.00    +0.000 A 
ATOM     12  C   UNL     1       0.401  12.086  20.174  0.00  0.00    +0.000 A 
ATOM     13  C   UNL     1      -0.511  12.252  21.221  0.00  0.00    +0.000 A 
ATOM     14  C   UNL     1      -1.093  13.496  21.529  0.00  0.00    +0.000 A 
ATOM     15  C   UNL     1      -1.972  13.612  22.606  0.00  0.00    +0.000 A 
ATOM     16  C   UNL     1      -2.284  12.490  23.365  0.00  0.00    +0.000 A 
ATOM     17  C   UNL     1      -1.717  11.256  23.045  0.00  0.00    +0.000 A 
ATOM     18  C   UNL     1      -0.828  11.119  21.993  0.00  0.00    +0.000 A 
ATOM     19  N   UNL     1      -0.282   9.916  21.772  0.00  0.00    +0.000 NA
ATOM     20  C   UNL     1       0.931   7.320  21.340  0.00  0.00    +0.000 C 
ENDBRANCH   6   7
BRANCH   1  24
ATOM     21  C   UNL     1       6.376   6.534  17.646  0.00  0.00    +0.000 A 
ATOM     22  C   UNL     1       5.197   6.568  16.905  0.00  0.00    +0.000 A 
ATOM     23  C   UNL     1       4.081   5.845  17.338  0.00  0.00    +0.000 A 
ATOM     24  C   UNL     1       4.074   5.143  18.555  0.00  0.00    +0.000 A 
ATOM     25  C   UNL     1       5.306   5.049  19.232  0.00  0.00    +0.000 A 
ATOM     26  C   UNL     1       6.434   5.739  18.782  0.00  0.00    +0.000 A 
ATOM     27  F   UNL     1       7.571   5.643  19.485  0.00  0.00    +0.000 F 
BRANCH  21  29
ATOM     28  N   UNL     1       8.411   7.973  16.948  0.00  0.00    +0.000 NA
ATOM     29  C   UNL     1       7.499   7.313  17.240  0.00  0.00    +0.000 C 
ENDBRANCH  21  29
ENDBRANCH   1  24
TORSDOF 3
ENDMDL
MODEL 8
REMARK VINA RESULT:      -8.1      4.179      9.894
REMARK  Name = 
REMARK  3 active torsions:
REMARK  status: ('A' for Active; 'I' for Inactive)
REMARK    1  A    between atoms: C_2  and  C_3
REMARK    2  A    between atoms: C_6  and  C_7
REMARK    3  A    between atoms: C_12  and  C_13
REMARK                            x       y       z     vdW  Elec       q    Type
REMARK                         _______ _______ _______ _____ _____    ______ ____
ROOT
ATOM      1  C   UNL     1      -0.144  12.911  19.248  0.00  0.00    +0.000 A 
ATOM      2  N   UNL     1       0.024  14.201  19.662  0.00  0.00    +0.000 NA
ATOM      3  C   UNL     1       1.278  14.579  19.989  0.00  0.00    +0.000 A 
ATOM      4  C   UNL     1       2.347  13.713  19.922  0.00  0.00    +0.000 A 
ATOM      5  N   UNL     1       2.209  12.435  19.516  0.00  0.00    +0.000 NA
ATOM      6  C   UNL     1       0.954  12.015  19.178  0.00  0.00    +0.000 A 
ENDROOT
BRANCH   6   7
ATOM      7  C   UNL     1       0.918  10.522  18.713  0.00  0.00    +0.000 C 
ATOM      8  C   UNL     1       2.124   9.840  18.035  0.00  0.00    +0.000 C 
ATOM      9  N   UNL     1       1.757   8.672  18.757  0.00  0.00    +0.000 N 
ATOM     10  C   UNL     1       2.327   7.406  18.849  0.00  0.00    +0.000 A 
ATOM     11  C   UNL     1       3.109   6.896  17.819  0.00  0.00    +0.000 A 
ATOM     12  C   UNL     1       3.572   5.584  17.901  0.00  0.00    +0.000 A 
ATOM     13  C   UNL     1       3.235   4.804  19.012  0.00  0.00    +0.000 A 
ATOM     14  C   UNL     1       3.629   3.459  19.140  0.00  0.00    +0.000 A 
ATOM     15  C   UNL     1       3.237   2.717  20.255  0.00  0.00    +0.000 A 
ATOM     16  C   UNL     1       2.469   3.316  21.247  0.00  0.00    +0.000 A 
ATOM     17  C   UNL     1       2.095   4.653  21.122  0.00  0.00    +0.000 A 
ATOM     18  C   UNL     1       2.455   5.406  20.017  0.00  0.00    +0.000 A 
ATOM     19  N   UNL     1       2.021   6.670  19.937  0.00  0.00    +0.000 NA
ATOM     20  C   UNL     1       1.027   9.386  19.751  0.00  0.00    +0.000 C 
ENDBRANCH   6   7
BRANCH   1  24
ATOM     21  C   UNL     1      -4.199  11.576  18.616  0.00  0.00    +0.000 A 
ATOM     22  C   UNL     1      -3.246  11.388  17.620  0.00  0.00    +0.000 A 
ATOM     23  C   UNL     1      -1.956  11.905  17.782  0.00  0.00    +0.000 A 
ATOM     24  C   UNL     1      -1.553  12.543  18.967  0.00  0.00    +0.000 A 
ATOM     25  C   UNL     1      -2.563  12.802  19.915  0.00  0.00    +0.000 A 
ATOM     26  C   UNL     1      -3.862  12.321  19.739  0.00  0.00    +0.000 A 
ATOM     27  F   UNL     1      -4.775  12.565  20.689  0.00  0.00    +0.000 F 
BRANCH  21  29
ATOM     28  N   UNL     1      -6.577  10.576  18.393  0.00  0.00    +0.000 NA
ATOM     29  C   UNL     1      -5.498  11.005  18.481  0.00  0.00    +0.000 C 
ENDBRANCH  21  29
ENDBRANCH   1  24
TORSDOF 3
ENDMDL
MODEL 9
REMARK VINA RESULT:      -7.9      4.178     10.006
REMARK  Name = 
REMARK  3 active torsions:
REMARK  status: ('A' for Active; 'I' for Inactive)
REMARK    1  A    between atoms: C_2  and  C_3
REMARK    2  A    between atoms: C_6  and  C_7
REMARK    3  A    between atoms: C_12  and  C_13
REMARK                            x       y       z     vdW  Elec       q    Type
REMARK                         _______ _______ _______ _____ _____    ______ ____
ROOT
ATOM      1  C   UNL     1       0.904  12.963  19.835  0.00  0.00    +0.000 A 
ATOM      2  N   UNL     1       1.332  14.253  19.963  0.00  0.00    +0.000 NA
ATOM      3  C   UNL     1       2.395  14.620  19.215  0.00  0.00    +0.000 A 
ATOM      4  C   UNL     1       3.033  13.743  18.366  0.00  0.00    +0.000 A 
ATOM      5  N   UNL     1       2.630  12.465  18.220  0.00  0.00    +0.000 NA
ATOM      6  C   UNL     1       1.558  12.057  18.962  0.00  0.00    +0.000 A 
ENDROOT
BRANCH   6   7
ATOM      7  C   UNL     1       1.175  10.562  18.702  0.00  0.00    +0.000 C 
ATOM      8  C   UNL     1       2.034   9.632  17.821  0.00  0.00    +0.000 C 
ATOM      9  N   UNL     1       1.709   8.603  18.747  0.00  0.00    +0.000 N 
ATOM     10  C   UNL     1       2.089   7.267  18.837  0.00  0.00    +0.000 A 
ATOM     11  C   UNL     1       2.474   6.553  17.709  0.00  0.00    +0.000 A 
ATOM     12  C   UNL     1       2.741   5.190  17.822  0.00  0.00    +0.000 A 
ATOM     13  C   UNL     1       2.610   4.566  19.068  0.00  0.00    +0.000 A 
ATOM     14  C   UNL     1       2.821   3.186  19.248  0.00  0.00    +0.000 A 
ATOM     15  C   UNL     1       2.644   2.608  20.506  0.00  0.00    +0.000 A 
ATOM     16  C   UNL     1       2.275   3.404  21.584  0.00  0.00    +0.000 A 
ATOM     17  C   UNL     1       2.084   4.774  21.403  0.00  0.00    +0.000 A 
ATOM     18  C   UNL     1       2.234   5.368  20.161  0.00  0.00    +0.000 A 
ATOM     19  N   UNL     1       1.987   6.679  20.046  0.00  0.00    +0.000 NA
ATOM     20  C   UNL     1       1.395   9.505  19.804  0.00  0.00    +0.000 C 
ENDBRANCH   6   7
BRANCH   1  24
ATOM     21  C   UNL     1      -2.393  12.243  22.526  0.00  0.00    +0.000 A 
ATOM     22  C   UNL     1      -1.098  11.904  22.911  0.00  0.00    +0.000 A 
ATOM     23  C   UNL     1      -0.042  12.046  22.005  0.00  0.00    +0.000 A 
ATOM     24  C   UNL     1      -0.224  12.608  20.730  0.00  0.00    +0.000 A 
ATOM     25  C   UNL     1      -1.555  12.851  20.337  0.00  0.00    +0.000 A 
ATOM     26  C   UNL     1      -2.617  12.674  21.226  0.00  0.00    +0.000 A 
ATOM     27  F   UNL     1      -3.860  12.955  20.811  0.00  0.00    +0.000 F 
BRANCH  21  29
ATOM     28  N   UNL     1      -4.308  12.082  24.260  0.00  0.00    +0.000 NA
ATOM     29  C   UNL     1      -3.464  12.153  23.462  0.00  0.00    +0.000 C 
ENDBRANCH  21  29
ENDBRANCH   1  24
TORSDOF 3
ENDMDL
