MODEL 1
REMARK VINA RESULT:      -8.1      0.000      0.000
REMARK  Name = 
REMARK  9 active torsions:
REMARK  status: ('A' for Active; 'I' for Inactive)
REMARK    1  A    between atoms: C_1  and  C_2
REMARK    2  A    between atoms: C_2  and  N_3
REMARK    3  A    between atoms: C_4  and  C_6
REMARK    4  A    between atoms: C_7  and  N_8
REMARK    5  A    between atoms: C_9  and  C_11
REMARK    6  A    between atoms: C_13  and  C_14
REMARK    7  A    between atoms: C_17  and  C_18
REMARK    8  A    between atoms: C_19  and  C_20
REMARK    9  A    between atoms: C_21  and  O_22
REMARK                            x       y       z     vdW  Elec       q    Type
REMARK                         _______ _______ _______ _____ _____    ______ ____
ROOT
ATOM      1  N   UNL     1      -0.506  10.175  20.622  0.00  0.00    +0.000 N 
ATOM      2  C   UNL     1       0.729  10.328  20.012  0.00  0.00    +0.000 C 
ATOM      3  O   UNL     1       1.293  11.395  19.776  0.00  0.00    +0.000 OA
ATOM      4  H   UNL     1      -0.646   9.256  21.037  0.00  0.00    +0.000 HD
ENDROOT
BRANCH   1   6
ATOM      5  C   UNL     1      -1.924  12.214  20.372  0.00  0.00    +0.000 A 
ATOM      6  C   UNL     1      -1.241  11.248  21.095  0.00  0.00    +0.000 A 
ATOM      7  S   UNL     1      -1.221  11.543  22.769  0.00  0.00    +0.000 S 
ATOM      8  C   UNL     1      -2.092  12.988  22.583  0.00  0.00    +0.000 A 
ATOM      9  C   UNL     1      -2.411  13.253  21.264  0.00  0.00    +0.000 A 
ATOM     10  C   UNL     1      -3.232  14.459  20.893  0.00  0.00    +0.000 C 
ATOM     11  C   UNL     1      -3.236  15.518  22.009  0.00  0.00    +0.000 C 
ATOM     12  C   UNL     1      -3.501  14.891  23.384  0.00  0.00    +0.000 C 
ATOM     13  C   UNL     1      -2.429  13.858  23.757  0.00  0.00    +0.000 C 
BRANCH   5  15
ATOM     14  N   UNL     1      -3.350  11.551  18.568  0.00  0.00    +0.000 N 
ATOM     15  C   UNL     1      -2.158  12.154  18.925  0.00  0.00    +0.000 C 
ATOM     16  O   UNL     1      -1.384  12.631  18.102  0.00  0.00    +0.000 OA
ATOM     17  H   UNL     1      -4.029  11.387  19.300  0.00  0.00    +0.000 HD
BRANCH  14  19
ATOM     18  C   UNL     1      -3.327  10.156  16.553  0.00  0.00    +0.000 C 
ATOM     19  C   UNL     1      -3.800  11.445  17.198  0.00  0.00    +0.000 C 
ENDBRANCH  14  19
ENDBRANCH   5  15
ENDBRANCH   1   6
BRANCH   2  20
ATOM     20  C   UNL     1       1.404   9.038  19.776  0.00  0.00    +0.000 A 
ATOM     21  C   UNL     1       1.967   8.579  18.556  0.00  0.00    +0.000 A 
ATOM     22  C   UNL     1       2.526   7.343  18.820  0.00  0.00    +0.000 A 
ATOM     23  N   UNL     1       2.238   7.126  20.143  0.00  0.00    +0.000 N 
ATOM     24  N   UNL     1       1.609   8.146  20.765  0.00  0.00    +0.000 NA
ATOM     25  H   UNL     1       2.483   6.294  20.673  0.00  0.00    +0.000 HD
BRANCH  22  26
ATOM     26  C   UNL     1       3.299   6.397  17.993  0.00  0.00    +0.000 A 
ATOM     27  C   UNL     1       4.261   6.889  17.103  0.00  0.00    +0.000 A 
ATOM     28  C   UNL     1       5.071   6.025  16.365  0.00  0.00    +0.000 A 
ATOM     29  C   UNL     1       4.939   4.634  16.475  0.00  0.00    +0.000 A 
ATOM     30  C   UNL     1       5.882   3.762  15.688  0.00  0.00    +0.000 C 
ATOM     31  C   UNL     1       3.937   4.100  17.315  0.00  0.00    +0.000 A 
ATOM     32  C   UNL     1       3.706   2.611  17.393  0.00  0.00    +0.000 C 
ATOM     33  C   UNL     1       3.145   4.994  18.078  0.00  0.00    +0.000 A 
BRANCH  33  34
ATOM     34  O   UNL     1       2.194   4.506  18.952  0.00  0.00    +0.000 OA
ATOM     35  H   UNL     1       2.085   5.130  19.687  0.00  0.00    +0.000 HD
ENDBRANCH  33  34
ENDBRANCH  22  26
ENDBRANCH   2  20
TORSDOF 6
ENDMDL
MODEL 2
REMARK VINA RESULT:      -8.0      2.016      2.582
REMARK  Name = 
REMARK  9 active torsions:
REMARK  status: ('A' for Active; 'I' for Inactive)
REMARK    1  A    between atoms: C_1  and  C_2
REMARK    2  A    between atoms: C_2  and  N_3
REMARK    3  A    between atoms: C_4  and  C_6
REMARK    4  A    between atoms: C_7  and  N_8
REMARK    5  A    between atoms: C_9  and  C_11
REMARK    6  A    between atoms: C_13  and  C_14
REMARK    7  A    between atoms: C_17  and  C_18
REMARK    8  A    between atoms: C_19  and  C_20
REMARK    9  A    between atoms: C_21  and  O_22
REMARK                            x       y       z     vdW  Elec       q    Type
REMARK                         _______ _______ _______ _____ _____    ______ ____
ROOT
ATOM      1  N   UNL     1       0.114  10.785  21.624  0.00  0.00    +0.000 N 
ATOM      2  C   UNL     1       0.157  10.427  20.286  0.00  0.00    +0.000 C 
ATOM      3  O   UNL     1      -0.317  11.067  19.349  0.00  0.00    +0.000 OA
ATOM      4  H   UNL     1       0.832  10.338  22.190  0.00  0.00    +0.000 HD
ENDROOT
BRANCH   1   6
ATOM      5  C   UNL     1       0.056  13.262  21.934  0.00  0.00    +0.000 A 
ATOM      6  C   UNL     1      -0.444  11.975  22.059  0.00  0.00    +0.000 A 
ATOM      7  S   UNL     1      -1.860  11.886  22.996  0.00  0.00    +0.000 S 
ATOM      8  C   UNL     1      -1.835  13.557  23.296  0.00  0.00    +0.000 A 
ATOM      9  C   UNL     1      -0.768  14.193  22.687  0.00  0.00    +0.000 A 
ATOM     10  C   UNL     1      -0.598  15.686  22.783  0.00  0.00    +0.000 C 
ATOM     11  C   UNL     1      -1.403  16.281  23.951  0.00  0.00    +0.000 C 
ATOM     12  C   UNL     1      -2.838  15.740  23.986  0.00  0.00    +0.000 C 
ATOM     13  C   UNL     1      -2.869  14.215  24.158  0.00  0.00    +0.000 C 
BRANCH   5  15
ATOM     14  N   UNL     1       0.921  13.857  19.783  0.00  0.00    +0.000 N 
ATOM     15  C   UNL     1       1.217  13.623  21.113  0.00  0.00    +0.000 C 
ATOM     16  O   UNL     1       2.348  13.746  21.572  0.00  0.00    +0.000 OA
ATOM     17  H   UNL     1      -0.055  13.954  19.531  0.00  0.00    +0.000 HD
BRANCH  14  19
ATOM     18  C   UNL     1       2.569  13.102  18.134  0.00  0.00    +0.000 C 
ATOM     19  C   UNL     1       1.909  14.284  18.818  0.00  0.00    +0.000 C 
ENDBRANCH  14  19
ENDBRANCH   5  15
ENDBRANCH   1   6
BRANCH   2  20
ATOM     20  C   UNL     1       0.972   9.221  20.052  0.00  0.00    +0.000 A 
ATOM     21  C   UNL     1       1.483   8.764  18.808  0.00  0.00    +0.000 A 
ATOM     22  C   UNL     1       2.221   7.626  19.080  0.00  0.00    +0.000 A 
ATOM     23  N   UNL     1       2.079   7.455  20.434  0.00  0.00    +0.000 N 
ATOM     24  N   UNL     1       1.377   8.423  21.060  0.00  0.00    +0.000 NA
ATOM     25  H   UNL     1       2.476   6.695  20.978  0.00  0.00    +0.000 HD
BRANCH  22  26
ATOM     26  C   UNL     1       3.037   6.737  18.232  0.00  0.00    +0.000 A 
ATOM     27  C   UNL     1       4.008   7.292  17.390  0.00  0.00    +0.000 A 
ATOM     28  C   UNL     1       4.857   6.480  16.635  0.00  0.00    +0.000 A 
ATOM     29  C   UNL     1       4.757   5.083  16.681  0.00  0.00    +0.000 A 
ATOM     30  C   UNL     1       5.741   4.270  15.880  0.00  0.00    +0.000 C 
ATOM     31  C   UNL     1       3.749   4.488  17.470  0.00  0.00    +0.000 A 
ATOM     32  C   UNL     1       3.554   2.993  17.477  0.00  0.00    +0.000 C 
ATOM     33  C   UNL     1       2.917   5.328  18.251  0.00  0.00    +0.000 A 
BRANCH  33  34
ATOM     34  O   UNL     1       1.957   4.779  19.078  0.00  0.00    +0.000 OA
ATOM     35  H   UNL     1       2.163   3.844  19.231  0.00  0.00    +0.000 HD
ENDBRANCH  33  34
ENDBRANCH  22  26
ENDBRANCH   2  20
TORSDOF 6
ENDMDL
MODEL 3
REMARK VINA RESULT:      -8.0      6.014      9.854
REMARK  Name = 
REMARK  9 active torsions:
REMARK  status: ('A' for Active; 'I' for Inactive)
REMARK    1  A    between atoms: C_1  and  C_2
REMARK    2  A    between atoms: C_2  and  N_3
REMARK    3  A    between atoms: C_4  and  C_6
REMARK    4  A    between atoms: C_7  and  N_8
REMARK    5  A    between atoms: C_9  and  C_11
REMARK    6  A    between atoms: C_13  and  C_14
REMARK    7  A    between atoms: C_17  and  C_18
REMARK    8  A    between atoms: C_19  and  C_20
REMARK    9  A    between atoms: C_21  and  O_22
REMARK                            x       y       z     vdW  Elec       q    Type
REMARK                         _______ _______ _______ _____ _____    ______ ____
ROOT
ATOM      1  N   UNL     1       6.153   6.495  18.532  0.00  0.00    +0.000 N 
ATOM      2  C   UNL     1       6.874   7.048  17.486  0.00  0.00    +0.000 C 
ATOM      3  O   UNL     1       6.753   6.769  16.295  0.00  0.00    +0.000 OA
ATOM      4  H   UNL     1       6.137   7.073  19.369  0.00  0.00    +0.000 HD
ENDROOT
BRANCH   1   6
ATOM      5  C   UNL     1       3.772   5.767  18.349  0.00  0.00    +0.000 A 
ATOM      6  C   UNL     1       5.144   5.569  18.333  0.00  0.00    +0.000 A 
ATOM      7  S   UNL     1       5.589   3.934  18.182  0.00  0.00    +0.000 S 
ATOM      8  C   UNL     1       3.967   3.434  18.169  0.00  0.00    +0.000 A 
ATOM      9  C   UNL     1       3.081   4.491  18.268  0.00  0.00    +0.000 A 
ATOM     10  C   UNL     1       1.594   4.263  18.216  0.00  0.00    +0.000 C 
ATOM     11  C   UNL     1       1.226   2.800  18.518  0.00  0.00    +0.000 C 
ATOM     12  C   UNL     1       2.109   1.820  17.734  0.00  0.00    +0.000 C 
ATOM     13  C   UNL     1       3.595   1.985  18.083  0.00  0.00    +0.000 C 
BRANCH   5  15
ATOM     14  N   UNL     1       2.316   7.288  19.489  0.00  0.00    +0.000 N 
ATOM     15  C   UNL     1       3.127   7.085  18.387  0.00  0.00    +0.000 C 
ATOM     16  O   UNL     1       3.319   7.948  17.537  0.00  0.00    +0.000 OA
ATOM     17  H   UNL     1       2.385   6.623  20.249  0.00  0.00    +0.000 HD
BRANCH  14  19
ATOM     18  C   UNL     1       1.076   8.586  21.157  0.00  0.00    +0.000 C 
ATOM     19  C   UNL     1       1.638   8.538  19.748  0.00  0.00    +0.000 C 
ENDBRANCH  14  19
ENDBRANCH   5  15
ENDBRANCH   1   6
BRANCH   2  20
ATOM     20  C   UNL     1       7.751   8.149  17.927  0.00  0.00    +0.000 A 
ATOM     21  C   UNL     1       7.784   9.472  17.412  0.00  0.00    +0.000 A 
ATOM     22  C   UNL     1       8.723  10.161  18.157  0.00  0.00    +0.000 A 
ATOM     23  N   UNL     1       9.209   9.219  19.029  0.00  0.00    +0.000 N 
ATOM     24  N   UNL     1       8.612   8.012  18.955  0.00  0.00    +0.000 NA
ATOM     25  H   UNL     1       9.939   9.374  19.719  0.00  0.00    +0.000 HD
BRANCH  22  26
ATOM     26  C   UNL     1       9.170  11.567  18.151  0.00  0.00    +0.000 A 
ATOM     27  C   UNL     1       8.298  12.562  17.693  0.00  0.00    +0.000 A 
ATOM     28  C   UNL     1       8.651  13.912  17.750  0.00  0.00    +0.000 A 
ATOM     29  C   UNL     1       9.896  14.317  18.251  0.00  0.00    +0.000 A 
ATOM     30  C   UNL     1      10.188  15.793  18.330  0.00  0.00    +0.000 C 
ATOM     31  C   UNL     1      10.826  13.338  18.663  0.00  0.00    +0.000 A 
ATOM     32  C   UNL     1      12.207  13.730  19.125  0.00  0.00    +0.000 C 
ATOM     33  C   UNL     1      10.437  11.976  18.625  0.00  0.00    +0.000 A 
BRANCH  33  34
ATOM     34  O   UNL     1      11.300  10.995  19.073  0.00  0.00    +0.000 OA
ATOM     35  H   UNL     1      11.821  11.341  19.814  0.00  0.00    +0.000 HD
ENDBRANCH  33  34
ENDBRANCH  22  26
ENDBRANCH   2  20
TORSDOF 6
ENDMDL
MODEL 4
REMARK VINA RESULT:      -7.9      2.507     10.100
REMARK  Name = 
REMARK  9 active torsions:
REMARK  status: ('A' for Active; 'I' for Inactive)
REMARK    1  A    between atoms: C_1  and  C_2
REMARK    2  A    between atoms: C_2  and  N_3
REMARK    3  A    between atoms: C_4  and  C_6
REMARK    4  A    between atoms: C_7  and  N_8
REMARK    5  A    between atoms: C_9  and  C_11
REMARK    6  A    between atoms: C_13  and  C_14
REMARK    7  A    between atoms: C_17  and  C_18
REMARK    8  A    between atoms: C_19  and  C_20
REMARK    9  A    between atoms: C_21  and  O_22
REMARK                            x       y       z     vdW  Elec       q    Type
REMARK                         _______ _______ _______ _____ _____    ______ ____
ROOT
ATOM      1  N   UNL     1       2.505   7.587  18.856  0.00  0.00    +0.000 N 
ATOM      2  C   UNL     1       1.950   8.784  18.433  0.00  0.00    +0.000 C 
ATOM      3  O   UNL     1       2.085   9.293  17.322  0.00  0.00    +0.000 OA
ATOM      4  H   UNL     1       2.019   7.167  19.646  0.00  0.00    +0.000 HD
ENDROOT
BRANCH   1   6
ATOM      5  C   UNL     1       3.116   5.425  17.767  0.00  0.00    +0.000 A 
ATOM      6  C   UNL     1       3.260   6.780  18.023  0.00  0.00    +0.000 A 
ATOM      7  S   UNL     1       4.641   7.462  17.301  0.00  0.00    +0.000 S 
ATOM      8  C   UNL     1       5.112   5.966  16.653  0.00  0.00    +0.000 A 
ATOM      9  C   UNL     1       4.231   4.946  16.967  0.00  0.00    +0.000 A 
ATOM     10  C   UNL     1       4.439   3.552  16.438  0.00  0.00    +0.000 C 
ATOM     11  C   UNL     1       5.887   3.326  15.971  0.00  0.00    +0.000 C 
ATOM     12  C   UNL     1       6.390   4.484  15.099  0.00  0.00    +0.000 C 
ATOM     13  C   UNL     1       6.373   5.819  15.857  0.00  0.00    +0.000 C 
BRANCH   5  15
ATOM     14  N   UNL     1       1.998   4.268  19.540  0.00  0.00    +0.000 N 
ATOM     15  C   UNL     1       1.971   4.618  18.203  0.00  0.00    +0.000 C 
ATOM     16  O   UNL     1       1.047   4.311  17.456  0.00  0.00    +0.000 OA
ATOM     17  H   UNL     1       2.669   4.741  20.133  0.00  0.00    +0.000 HD
BRANCH  14  19
ATOM     18  C   UNL     1       1.425   2.828  21.438  0.00  0.00    +0.000 C 
ATOM     19  C   UNL     1       0.937   3.528  20.183  0.00  0.00    +0.000 C 
ENDBRANCH  14  19
ENDBRANCH   5  15
ENDBRANCH   1   6
BRANCH   2  20
ATOM     20  C   UNL     1       1.029   9.361  19.430  0.00  0.00    +0.000 A 
ATOM     21  C   UNL     1       0.216  10.514  19.275  0.00  0.00    +0.000 A 
ATOM     22  C   UNL     1      -0.508  10.647  20.445  0.00  0.00    +0.000 A 
ATOM     23  N   UNL     1      -0.065   9.610  21.227  0.00  0.00    +0.000 N 
ATOM     24  N   UNL     1       0.820   8.785  20.631  0.00  0.00    +0.000 NA
ATOM     25  H   UNL     1      -0.372   9.413  22.175  0.00  0.00    +0.000 HD
BRANCH  22  26
ATOM     26  C   UNL     1      -1.552  11.597  20.874  0.00  0.00    +0.000 A 
ATOM     27  C   UNL     1      -2.429  12.129  19.922  0.00  0.00    +0.000 A 
ATOM     28  C   UNL     1      -3.482  12.965  20.298  0.00  0.00    +0.000 A 
ATOM     29  C   UNL     1      -3.689  13.314  21.640  0.00  0.00    +0.000 A 
ATOM     30  C   UNL     1      -4.877  14.177  21.978  0.00  0.00    +0.000 C 
ATOM     31  C   UNL     1      -2.788  12.847  22.621  0.00  0.00    +0.000 A 
ATOM     32  C   UNL     1      -2.927  13.271  24.062  0.00  0.00    +0.000 C 
ATOM     33  C   UNL     1      -1.743  11.976  22.223  0.00  0.00    +0.000 A 
BRANCH  33  34
ATOM     34  O   UNL     1      -0.877  11.456  23.163  0.00  0.00    +0.000 OA
ATOM     35  H   UNL     1      -0.956  11.962  23.986  0.00  0.00    +0.000 HD
ENDBRANCH  33  34
ENDBRANCH  22  26
ENDBRANCH   2  20
TORSDOF 6
ENDMDL
MODEL 5
REMARK VINA RESULT:      -7.8      2.840      3.177
REMARK  Name = 
REMARK  9 active torsions:
REMARK  status: ('A' for Active; 'I' for Inactive)
REMARK    1  A    between atoms: C_1  and  C_2
REMARK    2  A    between atoms: C_2  and  N_3
REMARK    3  A    between atoms: C_4  and  C_6
REMARK    4  A    between atoms: C_7  and  N_8
REMARK    5  A    between atoms: C_9  and  C_11
REMARK    6  A    between atoms: C_13  and  C_14
REMARK    7  A    between atoms: C_17  and  C_18
REMARK    8  A    between atoms: C_19  and  C_20
REMARK    9  A    between atoms: C_21  and  O_22
REMARK                            x       y       z     vdW  Elec       q    Type
REMARK                         _______ _______ _______ _____ _____    ______ ____
ROOT
ATOM      1  N   UNL     1       1.513  11.859  19.889  0.00  0.00    +0.000 N 
ATOM      2  C   UNL     1       0.986  11.124  20.939  0.00  0.00    +0.000 C 
ATOM      3  O   UNL     1       0.251  11.552  21.826  0.00  0.00    +0.000 OA
ATOM      4  H   UNL     1       1.794  11.292  19.092  0.00  0.00    +0.000 HD
ENDROOT
BRANCH   1   6
ATOM      5  C   UNL     1       0.064  13.758  19.163  0.00  0.00    +0.000 A 
ATOM      6  C   UNL     1       1.215  13.197  19.693  0.00  0.00    +0.000 A 
ATOM      7  S   UNL     1       2.442  14.333  20.000  0.00  0.00    +0.000 S 
ATOM      8  C   UNL     1       1.492  15.606  19.402  0.00  0.00    +0.000 A 
ATOM      9  C   UNL     1       0.244  15.188  18.977  0.00  0.00    +0.000 A 
ATOM     10  C   UNL     1      -0.771  16.175  18.466  0.00  0.00    +0.000 C 
ATOM     11  C   UNL     1      -0.120  17.504  18.048  0.00  0.00    +0.000 C 
ATOM     12  C   UNL     1       0.869  18.009  19.106  0.00  0.00    +0.000 C 
ATOM     13  C   UNL     1       2.012  17.011  19.341  0.00  0.00    +0.000 C 
BRANCH   5  15
ATOM     14  N   UNL     1      -1.217  12.444  17.625  0.00  0.00    +0.000 N 
ATOM     15  C   UNL     1      -1.169  13.011  18.885  0.00  0.00    +0.000 C 
ATOM     16  O   UNL     1      -2.064  12.868  19.711  0.00  0.00    +0.000 OA
ATOM     17  H   UNL     1      -0.357  12.418  17.091  0.00  0.00    +0.000 HD
BRANCH  14  19
ATOM     18  C   UNL     1      -1.997  10.141  17.318  0.00  0.00    +0.000 C 
ATOM     19  C   UNL     1      -2.314  11.618  17.174  0.00  0.00    +0.000 C 
ENDBRANCH  14  19
ENDBRANCH   5  15
ENDBRANCH   1   6
BRANCH   2  20
ATOM     20  C   UNL     1       1.287   9.684  20.823  0.00  0.00    +0.000 A 
ATOM     21  C   UNL     1       1.646   8.979  19.644  0.00  0.00    +0.000 A 
ATOM     22  C   UNL     1       1.876   7.670  20.022  0.00  0.00    +0.000 A 
ATOM     23  N   UNL     1       1.611   7.663  21.368  0.00  0.00    +0.000 N 
ATOM     24  N   UNL     1       1.304   8.867  21.894  0.00  0.00    +0.000 NA
ATOM     25  H   UNL     1       1.658   6.850  21.976  0.00  0.00    +0.000 HD
BRANCH  22  26
ATOM     26  C   UNL     1       2.330   6.479  19.280  0.00  0.00    +0.000 A 
ATOM     27  C   UNL     1       3.216   6.634  18.208  0.00  0.00    +0.000 A 
ATOM     28  C   UNL     1       3.735   5.527  17.533  0.00  0.00    +0.000 A 
ATOM     29  C   UNL     1       3.374   4.222  17.895  0.00  0.00    +0.000 A 
ATOM     30  C   UNL     1       4.013   3.074  17.157  0.00  0.00    +0.000 C 
ATOM     31  C   UNL     1       2.434   4.027  18.930  0.00  0.00    +0.000 A 
ATOM     32  C   UNL     1       1.955   2.643  19.289  0.00  0.00    +0.000 C 
ATOM     33  C   UNL     1       1.942   5.163  19.621  0.00  0.00    +0.000 A 
BRANCH  33  34
ATOM     34  O   UNL     1       1.065   5.007  20.676  0.00  0.00    +0.000 OA
ATOM     35  H   UNL     1       0.695   4.110  20.655  0.00  0.00    +0.000 HD
ENDBRANCH  33  34
ENDBRANCH  22  26
ENDBRANCH   2  20
TORSDOF 6
ENDMDL
MODEL 6
REMARK VINA RESULT:      -7.8      2.132      3.169
REMARK  Name = 
REMARK  9 active torsions:
REMARK  status: ('A' for Active; 'I' for Inactive)
REMARK    1  A    between atoms: C_1  and  C_2
REMARK    2  A    between atoms: C_2  and  N_3
REMARK    3  A    between atoms: C_4  and  C_6
REMARK    4  A    between atoms: C_7  and  N_8
REMARK    5  A    between atoms: C_9  and  C_11
REMARK    6  A    between atoms: C_13  and  C_14
REMARK    7  A    between atoms: C_17  and  C_18
REMARK    8  A    between atoms: C_19  and  C_20
REMARK    9  A    between atoms: C_21  and  O_22
REMARK                            x       y       z     vdW  Elec       q    Type
REMARK                         _______ _______ _______ _____ _____    ______ ____
ROOT
ATOM      1  N   UNL     1       0.906  11.632  20.037  0.00  0.00    +0.000 N 
ATOM      2  C   UNL     1       0.201  10.546  19.544  0.00  0.00    +0.000 C 
ATOM      3  O   UNL     1      -0.944  10.569  19.096  0.00  0.00    +0.000 OA
ATOM      4  H   UNL     1       1.915  11.501  20.034  0.00  0.00    +0.000 HD
ENDROOT
BRANCH   1   6
ATOM      5  C   UNL     1      -0.545  13.479  20.883  0.00  0.00    +0.000 A 
ATOM      6  C   UNL     1       0.394  12.918  20.031  0.00  0.00    +0.000 A 
ATOM      7  S   UNL     1       0.839  13.940  18.747  0.00  0.00    +0.000 S 
ATOM      8  C   UNL     1      -0.232  15.152  19.264  0.00  0.00    +0.000 A 
ATOM      9  C   UNL     1      -0.924  14.800  20.409  0.00  0.00    +0.000 A 
ATOM     10  C   UNL     1      -1.881  15.761  21.062  0.00  0.00    +0.000 C 
ATOM     11  C   UNL     1      -2.321  16.877  20.099  0.00  0.00    +0.000 C 
ATOM     12  C   UNL     1      -1.126  17.484  19.351  0.00  0.00    +0.000 C 
ATOM     13  C   UNL     1      -0.388  16.435  18.506  0.00  0.00    +0.000 C 
BRANCH   5  15
ATOM     14  N   UNL     1      -2.413  12.803  22.219  0.00  0.00    +0.000 N 
ATOM     15  C   UNL     1      -1.036  12.841  22.110  0.00  0.00    +0.000 C 
ATOM     16  O   UNL     1      -0.290  12.347  22.950  0.00  0.00    +0.000 OA
ATOM     17  H   UNL     1      -2.954  13.026  21.392  0.00  0.00    +0.000 HD
BRANCH  14  19
ATOM     18  C   UNL     1      -3.686  13.185  24.278  0.00  0.00    +0.000 C 
ATOM     19  C   UNL     1      -3.100  12.165  23.319  0.00  0.00    +0.000 C 
ENDBRANCH  14  19
ENDBRANCH   5  15
ENDBRANCH   1   6
BRANCH   2  20
ATOM     20  C   UNL     1       1.025   9.325  19.474  0.00  0.00    +0.000 A 
ATOM     21  C   UNL     1       1.610   8.755  18.312  0.00  0.00    +0.000 A 
ATOM     22  C   UNL     1       2.326   7.650  18.734  0.00  0.00    +0.000 A 
ATOM     23  N   UNL     1       2.100   7.606  20.086  0.00  0.00    +0.000 N 
ATOM     24  N   UNL     1       1.365   8.626  20.575  0.00  0.00    +0.000 NA
ATOM     25  H   UNL     1       2.461   6.900  20.722  0.00  0.00    +0.000 HD
BRANCH  22  26
ATOM     26  C   UNL     1       3.189   6.687  18.024  0.00  0.00    +0.000 A 
ATOM     27  C   UNL     1       4.230   7.163  17.218  0.00  0.00    +0.000 A 
ATOM     28  C   UNL     1       5.122   6.285  16.597  0.00  0.00    +0.000 A 
ATOM     29  C   UNL     1       4.995   4.897  16.745  0.00  0.00    +0.000 A 
ATOM     30  C   UNL     1       6.023   4.012  16.089  0.00  0.00    +0.000 C 
ATOM     31  C   UNL     1       3.920   4.378  17.498  0.00  0.00    +0.000 A 
ATOM     32  C   UNL     1       3.700   2.890  17.608  0.00  0.00    +0.000 C 
ATOM     33  C   UNL     1       3.044   5.286  18.145  0.00  0.00    +0.000 A 
BRANCH  33  34
ATOM     34  O   UNL     1       2.015   4.815  18.935  0.00  0.00    +0.000 OA
ATOM     35  H   UNL     1       1.324   4.436  18.369  0.00  0.00    +0.000 HD
ENDBRANCH  33  34
ENDBRANCH  22  26
ENDBRANCH   2  20
TORSDOF 6
ENDMDL
MODEL 7
REMARK VINA RESULT:      -7.6      2.256      2.432
REMARK  Name = 
REMARK  9 active torsions:
REMARK  status: ('A' for Active; 'I' for Inactive)
REMARK    1  A    between atoms: C_1  and  C_2
REMARK    2  A    between atoms: C_2  and  N_3
REMARK    3  A    between atoms: C_4  and  C_6
REMARK    4  A    between atoms: C_7  and  N_8
REMARK    5  A    between atoms: C_9  and  C_11
REMARK    6  A    between atoms: C_13  and  C_14
REMARK    7  A    between atoms: C_17  and  C_18
REMARK    8  A    between atoms: C_19  and  C_20
REMARK    9  A    between atoms: C_21  and  O_22
REMARK                            x       y       z     vdW  Elec       q    Type
REMARK                         _______ _______ _______ _____ _____    ______ ____
ROOT
ATOM      1  N   UNL     1       1.332  11.566  19.979  0.00  0.00    +0.000 N 
ATOM      2  C   UNL     1       0.832  10.580  20.815  0.00  0.00    +0.000 C 
ATOM      3  O   UNL     1       0.002  10.740  21.708  0.00  0.00    +0.000 OA
ATOM      4  H   UNL     1       1.722  11.207  19.110  0.00  0.00    +0.000 HD
ENDROOT
BRANCH   1   6
ATOM      5  C   UNL     1      -0.291  13.415  19.550  0.00  0.00    +0.000 A 
ATOM      6  C   UNL     1       0.894  12.878  20.030  0.00  0.00    +0.000 A 
ATOM      7  S   UNL     1       1.974  14.049  20.626  0.00  0.00    +0.000 S 
ATOM      8  C   UNL     1       0.912  15.313  20.232  0.00  0.00    +0.000 A 
ATOM      9  C   UNL     1      -0.264  14.864  19.659  0.00  0.00    +0.000 A 
ATOM     10  C   UNL     1      -1.362  15.825  19.289  0.00  0.00    +0.000 C 
ATOM     11  C   UNL     1      -0.847  17.270  19.178  0.00  0.00    +0.000 C 
ATOM     12  C   UNL     1       0.038  17.650  20.373  0.00  0.00    +0.000 C 
ATOM     13  C   UNL     1       1.275  16.746  20.477  0.00  0.00    +0.000 C 
BRANCH   5  15
ATOM     14  N   UNL     1      -1.371  12.338  17.705  0.00  0.00    +0.000 N 
ATOM     15  C   UNL     1      -1.420  12.618  19.058  0.00  0.00    +0.000 C 
ATOM     16  O   UNL     1      -2.313  12.200  19.789  0.00  0.00    +0.000 OA
ATOM     17  H   UNL     1      -0.502  12.523  17.221  0.00  0.00    +0.000 HD
BRANCH  14  19
ATOM     18  C   UNL     1      -1.941  10.057  17.014  0.00  0.00    +0.000 C 
ATOM     19  C   UNL     1      -2.353  11.517  17.034  0.00  0.00    +0.000 C 
ENDBRANCH  14  19
ENDBRANCH   5  15
ENDBRANCH   1   6
BRANCH   2  20
ATOM     20  C   UNL     1       1.302   9.234  20.440  0.00  0.00    +0.000 A 
ATOM     21  C   UNL     1       1.907   8.852  19.213  0.00  0.00    +0.000 A 
ATOM     22  C   UNL     1       2.220   7.510  19.329  0.00  0.00    +0.000 A 
ATOM     23  N   UNL     1       1.759   7.170  20.576  0.00  0.00    +0.000 N 
ATOM     24  N   UNL     1       1.248   8.192  21.293  0.00  0.00    +0.000 NA
ATOM     25  H   UNL     1       1.804   6.243  20.989  0.00  0.00    +0.000 HD
BRANCH  22  26
ATOM     26  C   UNL     1       2.907   6.561  18.432  0.00  0.00    +0.000 A 
ATOM     27  C   UNL     1       3.925   7.026  17.592  0.00  0.00    +0.000 A 
ATOM     28  C   UNL     1       4.656   6.147  16.790  0.00  0.00    +0.000 A 
ATOM     29  C   UNL     1       4.385   4.772  16.785  0.00  0.00    +0.000 A 
ATOM     30  C   UNL     1       5.248   3.877  15.935  0.00  0.00    +0.000 C 
ATOM     31  C   UNL     1       3.324   4.274  17.572  0.00  0.00    +0.000 A 
ATOM     32  C   UNL     1       2.946   2.815  17.528  0.00  0.00    +0.000 C 
ATOM     33  C   UNL     1       2.614   5.179  18.401  0.00  0.00    +0.000 A 
BRANCH  33  34
ATOM     34  O   UNL     1       1.607   4.719  19.227  0.00  0.00    +0.000 OA
ATOM     35  H   UNL     1       1.999   4.251  19.981  0.00  0.00    +0.000 HD
ENDBRANCH  33  34
ENDBRANCH  22  26
ENDBRANCH   2  20
TORSDOF 6
ENDMDL
MODEL 8
REMARK VINA RESULT:      -7.6      2.656      3.452
REMARK  Name = 
REMARK  9 active torsions:
REMARK  status: ('A' for Active; 'I' for Inactive)
REMARK    1  A    between atoms: C_1  and  C_2
REMARK    2  A    between atoms: C_2  and  N_3
REMARK    3  A    between atoms: C_4  and  C_6
REMARK    4  A    between atoms: C_7  and  N_8
REMARK    5  A    between atoms: C_9  and  C_11
REMARK    6  A    between atoms: C_13  and  C_14
REMARK    7  A    between atoms: C_17  and  C_18
REMARK    8  A    between atoms: C_19  and  C_20
REMARK    9  A    between atoms: C_21  and  O_22
REMARK                            x       y       z     vdW  Elec       q    Type
REMARK                         _______ _______ _______ _____ _____    ______ ____
ROOT
ATOM      1  N   UNL     1       1.390  11.890  19.508  0.00  0.00    +0.000 N 
ATOM      2  C   UNL     1       0.631  10.921  18.873  0.00  0.00    +0.000 C 
ATOM      3  O   UNL     1      -0.413  11.110  18.251  0.00  0.00    +0.000 OA
ATOM      4  H   UNL     1       2.359  11.617  19.660  0.00  0.00    +0.000 HD
ENDROOT
BRANCH   1   6
ATOM      5  C   UNL     1      -0.065  13.869  19.954  0.00  0.00    +0.000 A 
ATOM      6  C   UNL     1       1.068  13.235  19.466  0.00  0.00    +0.000 A 
ATOM      7  S   UNL     1       2.096  14.268  18.590  0.00  0.00    +0.000 S 
ATOM      8  C   UNL     1       1.049  15.586  18.803  0.00  0.00    +0.000 A 
ATOM      9  C   UNL     1      -0.076  15.262  19.540  0.00  0.00    +0.000 A 
ATOM     10  C   UNL     1      -1.102  16.307  19.889  0.00  0.00    +0.000 C 
ATOM     11  C   UNL     1      -0.996  17.542  18.978  0.00  0.00    +0.000 C 
ATOM     12  C   UNL     1       0.456  18.014  18.828  0.00  0.00    +0.000 C 
ATOM     13  C   UNL     1       1.348  16.929  18.209  0.00  0.00    +0.000 C 
BRANCH   5  15
ATOM     14  N   UNL     1      -0.653  13.006  22.108  0.00  0.00    +0.000 N 
ATOM     15  C   UNL     1      -1.070  13.226  20.809  0.00  0.00    +0.000 C 
ATOM     16  O   UNL     1      -2.197  12.942  20.417  0.00  0.00    +0.000 OA
ATOM     17  H   UNL     1       0.198  13.465  22.410  0.00  0.00    +0.000 HD
BRANCH  14  19
ATOM     18  C   UNL     1      -1.366  10.933  23.202  0.00  0.00    +0.000 C 
ATOM     19  C   UNL     1      -1.509  12.441  23.126  0.00  0.00    +0.000 C 
ENDBRANCH  14  19
ENDBRANCH   5  15
ENDBRANCH   1   6
BRANCH   2  20
ATOM     20  C   UNL     1       1.280   9.596  18.892  0.00  0.00    +0.000 A 
ATOM     21  C   UNL     1       1.917   8.942  17.804  0.00  0.00    +0.000 A 
ATOM     22  C   UNL     1       2.415   7.751  18.298  0.00  0.00    +0.000 A 
ATOM     23  N   UNL     1       2.023   7.748  19.613  0.00  0.00    +0.000 N 
ATOM     24  N   UNL     1       1.383   8.865  20.019  0.00  0.00    +0.000 NA
ATOM     25  H   UNL     1       2.201   7.004  20.281  0.00  0.00    +0.000 HD
BRANCH  22  26
ATOM     26  C   UNL     1       3.217   6.672  17.690  0.00  0.00    +0.000 A 
ATOM     27  C   UNL     1       4.287   7.002  16.850  0.00  0.00    +0.000 A 
ATOM     28  C   UNL     1       5.121   6.015  16.322  0.00  0.00    +0.000 A 
ATOM     29  C   UNL     1       4.906   4.657  16.600  0.00  0.00    +0.000 A 
ATOM     30  C   UNL     1       5.877   3.651  16.038  0.00  0.00    +0.000 C 
ATOM     31  C   UNL     1       3.799   4.281  17.391  0.00  0.00    +0.000 A 
ATOM     32  C   UNL     1       3.484   2.828  17.639  0.00  0.00    +0.000 C 
ATOM     33  C   UNL     1       2.983   5.301  17.941  0.00  0.00    +0.000 A 
BRANCH  33  34
ATOM     34  O   UNL     1       1.924   4.973  18.765  0.00  0.00    +0.000 OA
ATOM     35  H   UNL     1       1.104   4.969  18.247  0.00  0.00    +0.000 HD
ENDBRANCH  33  34
ENDBRANCH  22  26
ENDBRANCH   2  20
TORSDOF 6
ENDMDL
MODEL 9
REMARK VINA RESULT:      -7.5      2.521      3.119
REMARK  Name = 
REMARK  9 active torsions:
REMARK  status: ('A' for Active; 'I' for Inactive)
REMARK    1  A    between atoms: C_1  and  C_2
REMARK    2  A    between atoms: C_2  and  N_3
REMARK    3  A    between atoms: C_4  and  C_6
REMARK    4  A    between atoms: C_7  and  N_8
REMARK    5  A    between atoms: C_9  and  C_11
REMARK    6  A    between atoms: C_13  and  C_14
REMARK    7  A    between atoms: C_17  and  C_18
REMARK    8  A    between atoms: C_19  and  C_20
REMARK    9  A    between atoms: C_21  and  O_22
REMARK                            x       y       z     vdW  Elec       q    Type
REMARK                         _______ _______ _______ _____ _____    ______ ____
ROOT
ATOM      1  N   UNL     1       0.914  11.208  20.890  0.00  0.00    +0.000 N 
ATOM      2  C   UNL     1       0.313  10.313  20.018  0.00  0.00    +0.000 C 
ATOM      3  O   UNL     1      -0.707  10.515  19.362  0.00  0.00    +0.000 OA
ATOM      4  H   UNL     1       1.897  11.012  21.064  0.00  0.00    +0.000 HD
ENDROOT
BRANCH   1   6
ATOM      5  C   UNL     1       0.809  13.660  20.433  0.00  0.00    +0.000 A 
ATOM      6  C   UNL     1       0.438  12.493  21.083  0.00  0.00    +0.000 A 
ATOM      7  S   UNL     1      -0.646  12.750  22.368  0.00  0.00    +0.000 S 
ATOM      8  C   UNL     1      -0.628  14.430  22.123  0.00  0.00    +0.000 A 
ATOM      9  C   UNL     1       0.184  14.807  21.069  0.00  0.00    +0.000 A 
ATOM     10  C   UNL     1       0.292  16.250  20.652  0.00  0.00    +0.000 C 
ATOM     11  C   UNL     1      -0.178  17.205  21.762  0.00  0.00    +0.000 C 
ATOM     12  C   UNL     1      -1.512  16.754  22.372  0.00  0.00    +0.000 C 
ATOM     13  C   UNL     1      -1.408  15.359  23.003  0.00  0.00    +0.000 C 
BRANCH   5  15
ATOM     14  N   UNL     1       2.853  14.395  19.424  0.00  0.00    +0.000 N 
ATOM     15  C   UNL     1       1.667  13.707  19.243  0.00  0.00    +0.000 C 
ATOM     16  O   UNL     1       1.378  13.152  18.188  0.00  0.00    +0.000 OA
ATOM     17  H   UNL     1       3.117  14.629  20.373  0.00  0.00    +0.000 HD
BRANCH  14  19
ATOM     18  C   UNL     1       3.649  15.736  17.534  0.00  0.00    +0.000 C 
ATOM     19  C   UNL     1       3.864  14.507  18.398  0.00  0.00    +0.000 C 
ENDBRANCH  14  19
ENDBRANCH   5  15
ENDBRANCH   1   6
BRANCH   2  20
ATOM     20  C   UNL     1       1.111   9.087  19.834  0.00  0.00    +0.000 A 
ATOM     21  C   UNL     1       1.641   8.589  18.614  0.00  0.00    +0.000 A 
ATOM     22  C   UNL     1       2.351   7.446  18.930  0.00  0.00    +0.000 A 
ATOM     23  N   UNL     1       2.175   7.311  20.284  0.00  0.00    +0.000 N 
ATOM     24  N   UNL     1       1.478   8.308  20.870  0.00  0.00    +0.000 NA
ATOM     25  H   UNL     1       2.545   6.558  20.856  0.00  0.00    +0.000 HD
BRANCH  22  26
ATOM     26  C   UNL     1       3.169   6.520  18.123  0.00  0.00    +0.000 A 
ATOM     27  C   UNL     1       4.150   7.038  17.270  0.00  0.00    +0.000 A 
ATOM     28  C   UNL     1       5.001   6.194  16.553  0.00  0.00    +0.000 A 
ATOM     29  C   UNL     1       4.893   4.800  16.650  0.00  0.00    +0.000 A 
ATOM     30  C   UNL     1       5.878   3.952  15.889  0.00  0.00    +0.000 C 
ATOM     31  C   UNL     1       3.874   4.241  17.453  0.00  0.00    +0.000 A 
ATOM     32  C   UNL     1       3.670   2.748  17.514  0.00  0.00    +0.000 C 
ATOM     33  C   UNL     1       3.040   5.114  18.194  0.00  0.00    +0.000 A 
BRANCH  33  34
ATOM     34  O   UNL     1       2.070   4.602  19.033  0.00  0.00    +0.000 OA
ATOM     35  H   UNL     1       1.373   4.186  18.500  0.00  0.00    +0.000 HD
ENDBRANCH  33  34
ENDBRANCH  22  26
ENDBRANCH   2  20
TORSDOF 6
ENDMDL
