MODEL 1
REMARK VINA RESULT:      -8.2      0.000      0.000
REMARK  Name = 
REMARK  5 active torsions:
REMARK  status: ('A' for Active; 'I' for Inactive)
REMARK    1  A    between atoms: N_4  and  C_5
REMARK    2  A    between atoms: C_5  and  C_6
REMARK    3  A    between atoms: C_12  and  C_13
REMARK    4  A    between atoms: N_17  and  C_18
REMARK    5  A    between atoms: C_18  and  C_19
REMARK                            x       y       z     vdW  Elec       q    Type
REMARK                         _______ _______ _______ _____ _____    ______ ____
ROOT
ATOM      1  C   UNL     1       6.611   5.080  14.779  0.00  0.00    +0.000 C 
ATOM      2  O   UNL     1       7.763   5.269  14.375  0.00  0.00    +0.000 OA
ATOM      3  N   UNL     1       6.208   5.456  16.055  0.00  0.00    +0.000 N 
ATOM      4  C   UNL     1       7.090   6.284  16.877  0.00  0.00    +0.000 C 
ATOM      5  C   UNL     1       7.417   5.617  18.215  0.00  0.00    +0.000 C 
ATOM      6  C   UNL     1       6.164   5.088  18.922  0.00  0.00    +0.000 C 
ATOM      7  C   UNL     1       5.369   4.172  17.976  0.00  0.00    +0.000 C 
ATOM      8  C   UNL     1       4.983   4.989  16.728  0.00  0.00    +0.000 C 
ENDROOT
BRANCH   7   9
ATOM      9  C   UNL     1       4.168   3.572  18.652  0.00  0.00    +0.000 A 
ATOM     10  N   UNL     1       3.746   2.336  18.461  0.00  0.00    +0.000 NA
ATOM     11  C   UNL     1       2.639   2.183  19.252  0.00  0.00    +0.000 A 
ATOM     12  C   UNL     1       2.367   3.343  19.931  0.00  0.00    +0.000 A 
ATOM     13  N   UNL     1       3.347   4.228  19.554  0.00  0.00    +0.000 N 
BRANCH  13  14
ATOM     14  C   UNL     1       3.353   5.640  19.934  0.00  0.00    +0.000 C 
BRANCH  14  15
ATOM     15  C   UNL     1       2.250   6.492  19.304  0.00  0.00    +0.000 C 
ATOM     16  C   UNL     1       1.871   7.826  19.988  0.00  0.00    +0.000 C 
ATOM     17  C   UNL     1       1.996   8.543  18.635  0.00  0.00    +0.000 C 
ATOM     18  C   UNL     1       2.710   7.309  18.069  0.00  0.00    +0.000 C 
ENDBRANCH  14  15
ENDBRANCH  13  14
ENDBRANCH   7   9
BRANCH   1  19
ATOM     19  C   UNL     1       5.617   4.335  13.887  0.00  0.00    +0.000 C 
BRANCH  19  23
ATOM     20  N   UNL     1       6.496   1.781  11.472  0.00  0.00    +0.000 N 
ATOM     21  C   UNL     1       5.736   2.748  12.041  0.00  0.00    +0.000 C 
ATOM     22  O   UNL     1       4.655   3.063  11.576  0.00  0.00    +0.000 OA
ATOM     23  N   UNL     1       6.280   3.251  13.183  0.00  0.00    +0.000 N 
ATOM     24  H   UNL     1       6.158   1.432  10.585  0.00  0.00    +0.000 HD
ATOM     25  H   UNL     1       7.482   1.705  11.657  0.00  0.00    +0.000 HD
ATOM     26  H   UNL     1       7.278   3.172  13.309  0.00  0.00    +0.000 HD
ENDBRANCH  19  23
ENDBRANCH   1  19
TORSDOF 5
ENDMDL
MODEL 2
REMARK VINA RESULT:      -7.9      0.863      1.008
REMARK  Name = 
REMARK  5 active torsions:
REMARK  status: ('A' for Active; 'I' for Inactive)
REMARK    1  A    between atoms: N_4  and  C_5
REMARK    2  A    between atoms: C_5  and  C_6
REMARK    3  A    between atoms: C_12  and  C_13
REMARK    4  A    between atoms: N_17  and  C_18
REMARK    5  A    between atoms: C_18  and  C_19
REMARK                            x       y       z     vdW  Elec       q    Type
REMARK                         _______ _______ _______ _____ _____    ______ ____
ROOT
ATOM      1  C   UNL     1       6.611   5.156  15.031  0.00  0.00    +0.000 C 
ATOM      2  O   UNL     1       7.688   5.501  14.532  0.00  0.00    +0.000 OA
ATOM      3  N   UNL     1       6.238   5.539  16.314  0.00  0.00    +0.000 N 
ATOM      4  C   UNL     1       7.026   6.545  17.026  0.00  0.00    +0.000 C 
ATOM      5  C   UNL     1       7.545   6.020  18.366  0.00  0.00    +0.000 C 
ATOM      6  C   UNL     1       6.446   5.343  19.191  0.00  0.00    +0.000 C 
ATOM      7  C   UNL     1       5.750   4.256  18.353  0.00  0.00    +0.000 C 
ATOM      8  C   UNL     1       5.153   4.924  17.100  0.00  0.00    +0.000 C 
ENDROOT
BRANCH   7   9
ATOM      9  C   UNL     1       4.710   3.514  19.146  0.00  0.00    +0.000 A 
ATOM     10  N   UNL     1       4.983   2.606  20.065  0.00  0.00    +0.000 NA
ATOM     11  C   UNL     1       3.776   2.175  20.547  0.00  0.00    +0.000 A 
ATOM     12  C   UNL     1       2.745   2.817  19.909  0.00  0.00    +0.000 A 
ATOM     13  N   UNL     1       3.341   3.677  19.020  0.00  0.00    +0.000 N 
BRANCH  13  14
ATOM     14  C   UNL     1       2.602   4.457  18.029  0.00  0.00    +0.000 C 
BRANCH  14  15
ATOM     15  C   UNL     1       1.851   5.670  18.579  0.00  0.00    +0.000 C 
ATOM     16  C   UNL     1       2.030   6.031  20.071  0.00  0.00    +0.000 C 
ATOM     17  C   UNL     1       2.324   7.486  19.674  0.00  0.00    +0.000 C 
ATOM     18  C   UNL     1       2.498   7.032  18.219  0.00  0.00    +0.000 C 
ENDBRANCH  14  15
ENDBRANCH  13  14
ENDBRANCH   7   9
BRANCH   1  19
ATOM     19  C   UNL     1       5.695   4.210  14.254  0.00  0.00    +0.000 C 
BRANCH  19  23
ATOM     20  N   UNL     1       6.883   2.158  11.515  0.00  0.00    +0.000 N 
ATOM     21  C   UNL     1       6.019   2.951  12.192  0.00  0.00    +0.000 C 
ATOM     22  O   UNL     1       4.926   3.235  11.736  0.00  0.00    +0.000 OA
ATOM     23  N   UNL     1       6.479   3.315  13.421  0.00  0.00    +0.000 N 
ATOM     24  H   UNL     1       6.605   1.924  10.571  0.00  0.00    +0.000 HD
ATOM     25  H   UNL     1       7.867   2.144  11.728  0.00  0.00    +0.000 HD
ATOM     26  H   UNL     1       7.476   3.308  13.576  0.00  0.00    +0.000 HD
ENDBRANCH  19  23
ENDBRANCH   1  19
TORSDOF 5
ENDMDL
MODEL 3
REMARK VINA RESULT:      -7.8      2.997      6.471
REMARK  Name = 
REMARK  5 active torsions:
REMARK  status: ('A' for Active; 'I' for Inactive)
REMARK    1  A    between atoms: N_4  and  C_5
REMARK    2  A    between atoms: C_5  and  C_6
REMARK    3  A    between atoms: C_12  and  C_13
REMARK    4  A    between atoms: N_17  and  C_18
REMARK    5  A    between atoms: C_18  and  C_19
REMARK                            x       y       z     vdW  Elec       q    Type
REMARK                         _______ _______ _______ _____ _____    ______ ____
ROOT
ATOM      1  C   UNL     1       1.733   4.300  20.364  0.00  0.00    +0.000 C 
ATOM      2  O   UNL     1       0.509   4.450  20.285  0.00  0.00    +0.000 OA
ATOM      3  N   UNL     1       2.623   5.289  19.966  0.00  0.00    +0.000 N 
ATOM      4  C   UNL     1       2.122   6.624  19.639  0.00  0.00    +0.000 C 
ATOM      5  C   UNL     1       2.504   7.046  18.218  0.00  0.00    +0.000 C 
ATOM      6  C   UNL     1       3.989   6.811  17.921  0.00  0.00    +0.000 C 
ATOM      7  C   UNL     1       4.367   5.353  18.233  0.00  0.00    +0.000 C 
ATOM      8  C   UNL     1       4.062   5.085  19.720  0.00  0.00    +0.000 C 
ENDROOT
BRANCH   7   9
ATOM      9  C   UNL     1       5.800   5.057  17.888  0.00  0.00    +0.000 A 
ATOM     10  N   UNL     1       6.798   5.102  18.751  0.00  0.00    +0.000 NA
ATOM     11  C   UNL     1       7.925   4.771  18.049  0.00  0.00    +0.000 A 
ATOM     12  C   UNL     1       7.622   4.531  16.733  0.00  0.00    +0.000 A 
ATOM     13  N   UNL     1       6.264   4.706  16.631  0.00  0.00    +0.000 N 
BRANCH  13  14
ATOM     14  C   UNL     1       5.538   4.687  15.363  0.00  0.00    +0.000 C 
BRANCH  14  15
ATOM     15  C   UNL     1       6.175   3.844  14.257  0.00  0.00    +0.000 C 
ATOM     16  C   UNL     1       5.339   3.537  12.993  0.00  0.00    +0.000 C 
ATOM     17  C   UNL     1       6.513   4.001  12.117  0.00  0.00    +0.000 C 
ATOM     18  C   UNL     1       7.166   4.626  13.356  0.00  0.00    +0.000 C 
ENDBRANCH  14  15
ENDBRANCH  13  14
ENDBRANCH   7   9
BRANCH   1  19
ATOM     19  C   UNL     1       2.293   2.957  20.835  0.00  0.00    +0.000 C 
BRANCH  19  23
ATOM     20  N   UNL     1       3.951   0.809  18.435  0.00  0.00    +0.000 N 
ATOM     21  C   UNL     1       3.849   1.636  19.503  0.00  0.00    +0.000 C 
ATOM     22  O   UNL     1       4.826   1.950  20.160  0.00  0.00    +0.000 OA
ATOM     23  N   UNL     1       2.585   2.102  19.698  0.00  0.00    +0.000 N 
ATOM     24  H   UNL     1       4.862   0.389  18.300  0.00  0.00    +0.000 HD
ATOM     25  H   UNL     1       3.153   0.321  18.065  0.00  0.00    +0.000 HD
ATOM     26  H   UNL     1       1.817   1.562  19.328  0.00  0.00    +0.000 HD
ENDBRANCH  19  23
ENDBRANCH   1  19
TORSDOF 5
ENDMDL
MODEL 4
REMARK VINA RESULT:      -7.7      3.305      6.878
REMARK  Name = 
REMARK  5 active torsions:
REMARK  status: ('A' for Active; 'I' for Inactive)
REMARK    1  A    between atoms: N_4  and  C_5
REMARK    2  A    between atoms: C_5  and  C_6
REMARK    3  A    between atoms: C_12  and  C_13
REMARK    4  A    between atoms: N_17  and  C_18
REMARK    5  A    between atoms: C_18  and  C_19
REMARK                            x       y       z     vdW  Elec       q    Type
REMARK                         _______ _______ _______ _____ _____    ______ ____
ROOT
ATOM      1  C   UNL     1       2.050   5.209  19.842  0.00  0.00    +0.000 C 
ATOM      2  O   UNL     1       1.589   4.832  20.924  0.00  0.00    +0.000 OA
ATOM      3  N   UNL     1       2.271   4.329  18.789  0.00  0.00    +0.000 N 
ATOM      4  C   UNL     1       1.758   2.962  18.870  0.00  0.00    +0.000 C 
ATOM      5  C   UNL     1       2.871   1.924  18.715  0.00  0.00    +0.000 C 
ATOM      6  C   UNL     1       3.775   2.215  17.512  0.00  0.00    +0.000 C 
ATOM      7  C   UNL     1       4.309   3.657  17.589  0.00  0.00    +0.000 C 
ATOM      8  C   UNL     1       3.103   4.615  17.606  0.00  0.00    +0.000 C 
ENDROOT
BRANCH   7   9
ATOM      9  C   UNL     1       5.259   3.965  16.465  0.00  0.00    +0.000 A 
ATOM     10  N   UNL     1       5.021   3.700  15.195  0.00  0.00    +0.000 NA
ATOM     11  C   UNL     1       6.120   4.130  14.502  0.00  0.00    +0.000 A 
ATOM     12  C   UNL     1       7.054   4.656  15.356  0.00  0.00    +0.000 A 
ATOM     13  N   UNL     1       6.502   4.558  16.610  0.00  0.00    +0.000 N 
BRANCH  13  14
ATOM     14  C   UNL     1       7.226   4.874  17.840  0.00  0.00    +0.000 C 
BRANCH  14  15
ATOM     15  C   UNL     1       7.064   6.310  18.344  0.00  0.00    +0.000 C 
ATOM     16  C   UNL     1       8.339   7.134  18.635  0.00  0.00    +0.000 C 
ATOM     17  C   UNL     1       7.773   8.289  17.794  0.00  0.00    +0.000 C 
ATOM     18  C   UNL     1       6.712   7.333  17.234  0.00  0.00    +0.000 C 
ENDBRANCH  14  15
ENDBRANCH  13  14
ENDBRANCH   7   9
BRANCH   1  19
ATOM     19  C   UNL     1       2.472   6.670  19.676  0.00  0.00    +0.000 C 
BRANCH  19  23
ATOM     20  N   UNL     1       0.981   9.205  21.791  0.00  0.00    +0.000 N 
ATOM     21  C   UNL     1       1.357   8.616  20.631  0.00  0.00    +0.000 C 
ATOM     22  O   UNL     1       1.135   9.136  19.552  0.00  0.00    +0.000 OA
ATOM     23  N   UNL     1       2.043   7.455  20.820  0.00  0.00    +0.000 N 
ATOM     24  H   UNL     1       0.409  10.033  21.688  0.00  0.00    +0.000 HD
ATOM     25  H   UNL     1       0.895   8.683  22.647  0.00  0.00    +0.000 HD
ATOM     26  H   UNL     1       1.904   6.956  21.686  0.00  0.00    +0.000 HD
ENDBRANCH  19  23
ENDBRANCH   1  19
TORSDOF 5
ENDMDL
MODEL 5
REMARK VINA RESULT:      -7.7      3.062      6.325
REMARK  Name = 
REMARK  5 active torsions:
REMARK  status: ('A' for Active; 'I' for Inactive)
REMARK    1  A    between atoms: N_4  and  C_5
REMARK    2  A    between atoms: C_5  and  C_6
REMARK    3  A    between atoms: C_12  and  C_13
REMARK    4  A    between atoms: N_17  and  C_18
REMARK    5  A    between atoms: C_18  and  C_19
REMARK                            x       y       z     vdW  Elec       q    Type
REMARK                         _______ _______ _______ _____ _____    ______ ____
ROOT
ATOM      1  C   UNL     1       2.129   5.722  19.719  0.00  0.00    +0.000 C 
ATOM      2  O   UNL     1       1.560   5.415  20.771  0.00  0.00    +0.000 OA
ATOM      3  N   UNL     1       2.250   4.831  18.659  0.00  0.00    +0.000 N 
ATOM      4  C   UNL     1       1.511   3.569  18.689  0.00  0.00    +0.000 C 
ATOM      5  C   UNL     1       2.441   2.360  18.562  0.00  0.00    +0.000 C 
ATOM      6  C   UNL     1       3.437   2.511  17.407  0.00  0.00    +0.000 C 
ATOM      7  C   UNL     1       4.200   3.841  17.538  0.00  0.00    +0.000 C 
ATOM      8  C   UNL     1       3.173   4.989  17.521  0.00  0.00    +0.000 C 
ENDROOT
BRANCH   7   9
ATOM      9  C   UNL     1       5.241   3.999  16.465  0.00  0.00    +0.000 A 
ATOM     10  N   UNL     1       5.063   3.667  15.200  0.00  0.00    +0.000 NA
ATOM     11  C   UNL     1       6.235   3.965  14.558  0.00  0.00    +0.000 A 
ATOM     12  C   UNL     1       7.152   4.476  15.439  0.00  0.00    +0.000 A 
ATOM     13  N   UNL     1       6.516   4.505  16.656  0.00  0.00    +0.000 N 
BRANCH  13  14
ATOM     14  C   UNL     1       7.183   4.848  17.910  0.00  0.00    +0.000 C 
BRANCH  14  15
ATOM     15  C   UNL     1       7.023   6.302  18.360  0.00  0.00    +0.000 C 
ATOM     16  C   UNL     1       8.298   7.149  18.576  0.00  0.00    +0.000 C 
ATOM     17  C   UNL     1       7.693   8.263  17.708  0.00  0.00    +0.000 C 
ATOM     18  C   UNL     1       6.625   7.276  17.221  0.00  0.00    +0.000 C 
ENDBRANCH  14  15
ENDBRANCH  13  14
ENDBRANCH   7   9
BRANCH   1  19
ATOM     19  C   UNL     1       2.798   7.093  19.602  0.00  0.00    +0.000 C 
BRANCH  19  23
ATOM     20  N   UNL     1       0.834   9.605  17.883  0.00  0.00    +0.000 N 
ATOM     21  C   UNL     1       1.844   8.720  18.058  0.00  0.00    +0.000 C 
ATOM     22  O   UNL     1       2.703   8.560  17.210  0.00  0.00    +0.000 OA
ATOM     23  N   UNL     1       1.815   8.111  19.276  0.00  0.00    +0.000 N 
ATOM     24  H   UNL     1       0.783  10.026  16.965  0.00  0.00    +0.000 HD
ATOM     25  H   UNL     1      -0.017   9.551  18.418  0.00  0.00    +0.000 HD
ATOM     26  H   UNL     1       0.932   8.061  19.761  0.00  0.00    +0.000 HD
ENDBRANCH  19  23
ENDBRANCH   1  19
TORSDOF 5
ENDMDL
MODEL 6
REMARK VINA RESULT:      -7.2      2.953      5.987
REMARK  Name = 
REMARK  5 active torsions:
REMARK  status: ('A' for Active; 'I' for Inactive)
REMARK    1  A    between atoms: N_4  and  C_5
REMARK    2  A    between atoms: C_5  and  C_6
REMARK    3  A    between atoms: C_12  and  C_13
REMARK    4  A    between atoms: N_17  and  C_18
REMARK    5  A    between atoms: C_18  and  C_19
REMARK                            x       y       z     vdW  Elec       q    Type
REMARK                         _______ _______ _______ _____ _____    ______ ____
ROOT
ATOM      1  C   UNL     1       2.074   4.784  20.533  0.00  0.00    +0.000 C 
ATOM      2  O   UNL     1       0.917   5.078  20.850  0.00  0.00    +0.000 OA
ATOM      3  N   UNL     1       2.885   5.656  19.816  0.00  0.00    +0.000 N 
ATOM      4  C   UNL     1       2.452   7.037  19.605  0.00  0.00    +0.000 C 
ATOM      5  C   UNL     1       2.386   7.394  18.119  0.00  0.00    +0.000 C 
ATOM      6  C   UNL     1       3.655   6.981  17.365  0.00  0.00    +0.000 C 
ATOM      7  C   UNL     1       3.954   5.492  17.609  0.00  0.00    +0.000 C 
ATOM      8  C   UNL     1       4.130   5.279  19.124  0.00  0.00    +0.000 C 
ENDROOT
BRANCH   7   9
ATOM      9  C   UNL     1       5.151   5.024  16.829  0.00  0.00    +0.000 A 
ATOM     10  N   UNL     1       5.100   4.161  15.832  0.00  0.00    +0.000 NA
ATOM     11  C   UNL     1       6.387   4.003  15.396  0.00  0.00    +0.000 A 
ATOM     12  C   UNL     1       7.247   4.768  16.142  0.00  0.00    +0.000 A 
ATOM     13  N   UNL     1       6.457   5.426  17.052  0.00  0.00    +0.000 N 
BRANCH  13  14
ATOM     14  C   UNL     1       6.987   6.244  18.142  0.00  0.00    +0.000 C 
BRANCH  14  15
ATOM     15  C   UNL     1       7.940   7.363  17.717  0.00  0.00    +0.000 C 
ATOM     16  C   UNL     1       7.342   8.743  17.364  0.00  0.00    +0.000 C 
ATOM     17  C   UNL     1       8.364   9.413  18.296  0.00  0.00    +0.000 C 
ATOM     18  C   UNL     1       8.688   8.039  18.895  0.00  0.00    +0.000 C 
ENDBRANCH  14  15
ENDBRANCH  13  14
ENDBRANCH   7   9
BRANCH   1  19
ATOM     19  C   UNL     1       2.609   3.389  20.861  0.00  0.00    +0.000 C 
BRANCH  19  23
ATOM     20  N   UNL     1       3.762   1.145  18.262  0.00  0.00    +0.000 N 
ATOM     21  C   UNL     1       3.844   1.886  19.393  0.00  0.00    +0.000 C 
ATOM     22  O   UNL     1       4.871   1.939  20.046  0.00  0.00    +0.000 OA
ATOM     23  N   UNL     1       2.706   2.586  19.655  0.00  0.00    +0.000 N 
ATOM     24  H   UNL     1       4.564   0.558  18.072  0.00  0.00    +0.000 HD
ATOM     25  H   UNL     1       2.876   0.862  17.877  0.00  0.00    +0.000 HD
ATOM     26  H   UNL     1       1.839   2.247  19.266  0.00  0.00    +0.000 HD
ENDBRANCH  19  23
ENDBRANCH   1  19
TORSDOF 5
ENDMDL
MODEL 7
REMARK VINA RESULT:      -7.2      3.636      6.651
REMARK  Name = 
REMARK  5 active torsions:
REMARK  status: ('A' for Active; 'I' for Inactive)
REMARK    1  A    between atoms: N_4  and  C_5
REMARK    2  A    between atoms: C_5  and  C_6
REMARK    3  A    between atoms: C_12  and  C_13
REMARK    4  A    between atoms: N_17  and  C_18
REMARK    5  A    between atoms: C_18  and  C_19
REMARK                            x       y       z     vdW  Elec       q    Type
REMARK                         _______ _______ _______ _____ _____    ______ ____
ROOT
ATOM      1  C   UNL     1       2.184   7.228  19.350  0.00  0.00    +0.000 C 
ATOM      2  O   UNL     1       1.809   7.478  20.500  0.00  0.00    +0.000 OA
ATOM      3  N   UNL     1       2.413   5.929  18.915  0.00  0.00    +0.000 N 
ATOM      4  C   UNL     1       2.006   4.803  19.755  0.00  0.00    +0.000 C 
ATOM      5  C   UNL     1       3.182   3.882  20.086  0.00  0.00    +0.000 C 
ATOM      6  C   UNL     1       3.998   3.511  18.842  0.00  0.00    +0.000 C 
ATOM      7  C   UNL     1       4.428   4.785  18.094  0.00  0.00    +0.000 C 
ATOM      8  C   UNL     1       3.158   5.562  17.698  0.00  0.00    +0.000 C 
ENDROOT
BRANCH   7   9
ATOM      9  C   UNL     1       5.293   4.472  16.905  0.00  0.00    +0.000 A 
ATOM     10  N   UNL     1       4.860   3.895  15.800  0.00  0.00    +0.000 NA
ATOM     11  C   UNL     1       5.945   3.790  14.972  0.00  0.00    +0.000 A 
ATOM     12  C   UNL     1       7.066   4.297  15.578  0.00  0.00    +0.000 A 
ATOM     13  N   UNL     1       6.649   4.739  16.810  0.00  0.00    +0.000 N 
BRANCH  13  14
ATOM     14  C   UNL     1       7.558   5.225  17.846  0.00  0.00    +0.000 C 
BRANCH  14  15
ATOM     15  C   UNL     1       7.298   6.654  18.327  0.00  0.00    +0.000 C 
ATOM     16  C   UNL     1       8.501   7.498  18.806  0.00  0.00    +0.000 C 
ATOM     17  C   UNL     1       8.042   8.649  17.897  0.00  0.00    +0.000 C 
ATOM     18  C   UNL     1       7.092   7.679  17.182  0.00  0.00    +0.000 C 
ENDBRANCH  14  15
ENDBRANCH  13  14
ENDBRANCH   7   9
BRANCH   1  19
ATOM     19  C   UNL     1       2.490   8.384  18.396  0.00  0.00    +0.000 C 
BRANCH  19  23
ATOM     20  N   UNL     1      -0.437  10.424  17.764  0.00  0.00    +0.000 N 
ATOM     21  C   UNL     1       0.669  10.005  18.424  0.00  0.00    +0.000 C 
ATOM     22  O   UNL     1       1.029  10.532  19.462  0.00  0.00    +0.000 OA
ATOM     23  N   UNL     1       1.260   8.925  17.843  0.00  0.00    +0.000 N 
ATOM     24  H   UNL     1      -0.863  11.266  18.128  0.00  0.00    +0.000 HD
ATOM     25  H   UNL     1      -0.588  10.208  16.793  0.00  0.00    +0.000 HD
ATOM     26  H   UNL     1       1.097   8.766  16.860  0.00  0.00    +0.000 HD
ENDBRANCH  19  23
ENDBRANCH   1  19
TORSDOF 5
ENDMDL
MODEL 8
REMARK VINA RESULT:      -7.2      3.445      6.849
REMARK  Name = 
REMARK  5 active torsions:
REMARK  status: ('A' for Active; 'I' for Inactive)
REMARK    1  A    between atoms: N_4  and  C_5
REMARK    2  A    between atoms: C_5  and  C_6
REMARK    3  A    between atoms: C_12  and  C_13
REMARK    4  A    between atoms: N_17  and  C_18
REMARK    5  A    between atoms: C_18  and  C_19
REMARK                            x       y       z     vdW  Elec       q    Type
REMARK                         _______ _______ _______ _____ _____    ______ ____
ROOT
ATOM      1  C   UNL     1       1.996   6.153  19.758  0.00  0.00    +0.000 C 
ATOM      2  O   UNL     1       1.598   6.019  20.920  0.00  0.00    +0.000 OA
ATOM      3  N   UNL     1       2.281   5.061  18.947  0.00  0.00    +0.000 N 
ATOM      4  C   UNL     1       1.908   3.718  19.386  0.00  0.00    +0.000 C 
ATOM      5  C   UNL     1       3.114   2.778  19.442  0.00  0.00    +0.000 C 
ATOM      6  C   UNL     1       3.959   2.840  18.164  0.00  0.00    +0.000 C 
ATOM      7  C   UNL     1       4.349   4.297  17.858  0.00  0.00    +0.000 C 
ATOM      8  C   UNL     1       3.055   5.116  17.693  0.00  0.00    +0.000 C 
ENDROOT
BRANCH   7   9
ATOM      9  C   UNL     1       5.239   4.399  16.651  0.00  0.00    +0.000 A 
ATOM     10  N   UNL     1       5.476   3.406  15.815  0.00  0.00    +0.000 NA
ATOM     11  C   UNL     1       6.327   3.901  14.864  0.00  0.00    +0.000 A 
ATOM     12  C   UNL     1       6.629   5.214  15.123  0.00  0.00    +0.000 A 
ATOM     13  N   UNL     1       5.929   5.534  16.260  0.00  0.00    +0.000 N 
BRANCH  13  14
ATOM     14  C   UNL     1       6.076   6.803  16.971  0.00  0.00    +0.000 C 
BRANCH  14  15
ATOM     15  C   UNL     1       7.518   7.246  17.227  0.00  0.00    +0.000 C 
ATOM     16  C   UNL     1       7.780   8.727  17.583  0.00  0.00    +0.000 C 
ATOM     17  C   UNL     1       8.623   8.279  18.787  0.00  0.00    +0.000 C 
ATOM     18  C   UNL     1       8.058   6.862  18.629  0.00  0.00    +0.000 C 
ENDBRANCH  14  15
ENDBRANCH  13  14
ENDBRANCH   7   9
BRANCH   1  19
ATOM     19  C   UNL     1       2.268   7.558  19.217  0.00  0.00    +0.000 C 
BRANCH  19  23
ATOM     20  N   UNL     1       0.222  10.400  20.144  0.00  0.00    +0.000 N 
ATOM     21  C   UNL     1       0.937   9.597  19.320  0.00  0.00    +0.000 C 
ATOM     22  O   UNL     1       1.075   9.859  18.139  0.00  0.00    +0.000 OA
ATOM     23  N   UNL     1       1.512   8.546  19.966  0.00  0.00    +0.000 N 
ATOM     24  H   UNL     1      -0.275  11.153  19.688  0.00  0.00    +0.000 HD
ATOM     25  H   UNL     1      -0.137  10.071  21.025  0.00  0.00    +0.000 HD
ATOM     26  H   UNL     1       1.099   8.238  20.834  0.00  0.00    +0.000 HD
ENDBRANCH  19  23
ENDBRANCH   1  19
TORSDOF 5
ENDMDL
MODEL 9
REMARK VINA RESULT:      -7.1      3.308      6.867
REMARK  Name = 
REMARK  5 active torsions:
REMARK  status: ('A' for Active; 'I' for Inactive)
REMARK    1  A    between atoms: N_4  and  C_5
REMARK    2  A    between atoms: C_5  and  C_6
REMARK    3  A    between atoms: C_12  and  C_13
REMARK    4  A    between atoms: N_17  and  C_18
REMARK    5  A    between atoms: C_18  and  C_19
REMARK                            x       y       z     vdW  Elec       q    Type
REMARK                         _______ _______ _______ _____ _____    ______ ____
ROOT
ATOM      1  C   UNL     1       1.851   4.930  19.882  0.00  0.00    +0.000 C 
ATOM      2  O   UNL     1       1.497   4.525  20.994  0.00  0.00    +0.000 OA
ATOM      3  N   UNL     1       2.138   4.060  18.838  0.00  0.00    +0.000 N 
ATOM      4  C   UNL     1       1.819   2.639  18.974  0.00  0.00    +0.000 C 
ATOM      5  C   UNL     1       3.053   1.755  18.783  0.00  0.00    +0.000 C 
ATOM      6  C   UNL     1       3.851   2.132  17.530  0.00  0.00    +0.000 C 
ATOM      7  C   UNL     1       4.188   3.633  17.550  0.00  0.00    +0.000 C 
ATOM      8  C   UNL     1       2.866   4.422  17.609  0.00  0.00    +0.000 C 
ENDROOT
BRANCH   7   9
ATOM      9  C   UNL     1       5.034   4.035  16.373  0.00  0.00    +0.000 A 
ATOM     10  N   UNL     1       5.611   3.184  15.546  0.00  0.00    +0.000 NA
ATOM     11  C   UNL     1       6.280   3.941  14.624  0.00  0.00    +0.000 A 
ATOM     12  C   UNL     1       6.124   5.277  14.891  0.00  0.00    +0.000 A 
ATOM     13  N   UNL     1       5.322   5.338  16.004  0.00  0.00    +0.000 N 
BRANCH  13  14
ATOM     14  C   UNL     1       5.020   6.577  16.718  0.00  0.00    +0.000 C 
BRANCH  14  15
ATOM     15  C   UNL     1       5.967   6.915  17.871  0.00  0.00    +0.000 C 
ATOM     16  C   UNL     1       6.425   5.772  18.805  0.00  0.00    +0.000 C 
ATOM     17  C   UNL     1       7.883   6.223  18.626  0.00  0.00    +0.000 C 
ATOM     18  C   UNL     1       7.446   7.097  17.443  0.00  0.00    +0.000 C 
ENDBRANCH  14  15
ENDBRANCH  13  14
ENDBRANCH   7   9
BRANCH   1  19
ATOM     19  C   UNL     1       2.063   6.429  19.665  0.00  0.00    +0.000 C 
BRANCH  19  23
ATOM     20  N   UNL     1       1.428   8.900  22.237  0.00  0.00    +0.000 N 
ATOM     21  C   UNL     1       1.466   8.391  20.982  0.00  0.00    +0.000 C 
ATOM     22  O   UNL     1       1.103   9.044  20.020  0.00  0.00    +0.000 OA
ATOM     23  N   UNL     1       2.000   7.140  20.930  0.00  0.00    +0.000 N 
ATOM     24  H   UNL     1       0.974   9.800  22.324  0.00  0.00    +0.000 HD
ATOM     25  H   UNL     1       1.446   8.307  23.050  0.00  0.00    +0.000 HD
ATOM     26  H   UNL     1       1.972   6.576  21.766  0.00  0.00    +0.000 HD
ENDBRANCH  19  23
ENDBRANCH   1  19
TORSDOF 5
ENDMDL
