MODEL 1
REMARK VINA RESULT:      -8.1      0.000      0.000
REMARK  Name = 
REMARK  8 active torsions:
REMARK  status: ('A' for Active; 'I' for Inactive)
REMARK    1  A    between atoms: C_1  and  C_2
REMARK    2  A    between atoms: C_5  and  C_6
REMARK    3  A    between atoms: C_6  and  N_7
REMARK    4  A    between atoms: C_8  and  C_10
REMARK    5  A    between atoms: C_10  and  N_11
REMARK    6  A    between atoms: N_14  and  C_15
REMARK    7  A    between atoms: C_15  and  C_16
REMARK    8  A    between atoms: C_19  and  C_20
REMARK                            x       y       z     vdW  Elec       q    Type
REMARK                         _______ _______ _______ _____ _____    ______ ____
ROOT
ATOM      1  N   UNL     1       6.464   6.366  16.911  0.00  0.00    +0.000 N 
ATOM      2  C   UNL     1       7.133   5.339  16.140  0.00  0.00    +0.000 C 
ATOM      3  C   UNL     1       6.310   4.095  16.436  0.00  0.00    +0.000 C 
ATOM      4  N   UNL     1       5.022   4.652  16.782  0.00  0.00    +0.000 N 
ATOM      5  C   UNL     1       5.144   5.982  17.162  0.00  0.00    +0.000 C 
ATOM      6  O   UNL     1       4.275   6.713  17.609  0.00  0.00    +0.000 OA
ENDROOT
BRANCH   1   7
ATOM      7  C   UNL     1       6.870   7.758  16.828  0.00  0.00    +0.000 C 
BRANCH   7   9
ATOM      8  N   UNL     1       8.194   9.510  17.934  0.00  0.00    +0.000 N 
ATOM      9  C   UNL     1       7.830   8.182  17.945  0.00  0.00    +0.000 C 
ATOM     10  O   UNL     1       8.325   7.351  18.705  0.00  0.00    +0.000 OA
ATOM     11  H   UNL     1       7.763  10.124  17.250  0.00  0.00    +0.000 HD
BRANCH   8  12
ATOM     12  C   UNL     1       9.197  10.028  18.832  0.00  0.00    +0.000 C 
BRANCH  12  17
ATOM     13  C   UNL     1      11.262  15.175  17.040  0.00  0.00    +0.000 C 
ATOM     14  C   UNL     1      10.744  13.853  17.523  0.00  0.00    +0.000 A 
ATOM     15  C   UNL     1      11.523  12.696  17.420  0.00  0.00    +0.000 A 
ATOM     16  C   UNL     1      11.023  11.468  17.860  0.00  0.00    +0.000 A 
ATOM     17  C   UNL     1       9.734  11.369  18.401  0.00  0.00    +0.000 A 
ATOM     18  C   UNL     1       8.963  12.531  18.520  0.00  0.00    +0.000 A 
ATOM     19  C   UNL     1       9.462  13.761  18.079  0.00  0.00    +0.000 A 
ENDBRANCH  12  17
ENDBRANCH   8  12
ENDBRANCH   7   9
ENDBRANCH   1   7
BRANCH   4  20
ATOM     20  C   UNL     1       3.787   3.902  16.709  0.00  0.00    +0.000 C 
BRANCH  20  21
ATOM     21  C   UNL     1       3.186   3.629  18.070  0.00  0.00    +0.000 A 
ATOM     22  C   UNL     1       1.861   3.990  18.356  0.00  0.00    +0.000 A 
ATOM     23  C   UNL     1       1.283   3.676  19.589  0.00  0.00    +0.000 A 
ATOM     24  C   UNL     1       2.017   2.993  20.569  0.00  0.00    +0.000 A 
ATOM     25  C   UNL     1       1.400   2.613  21.882  0.00  0.00    +0.000 C 
ATOM     26  C   UNL     1       3.347   2.646  20.296  0.00  0.00    +0.000 A 
ATOM     27  C   UNL     1       3.921   2.959  19.059  0.00  0.00    +0.000 A 
ENDBRANCH  20  21
ENDBRANCH   4  20
TORSDOF 6
ENDMDL
MODEL 2
REMARK VINA RESULT:      -7.9      0.996      1.576
REMARK  Name = 
REMARK  8 active torsions:
REMARK  status: ('A' for Active; 'I' for Inactive)
REMARK    1  A    between atoms: C_1  and  C_2
REMARK    2  A    between atoms: C_5  and  C_6
REMARK    3  A    between atoms: C_6  and  N_7
REMARK    4  A    between atoms: C_8  and  C_10
REMARK    5  A    between atoms: C_10  and  N_11
REMARK    6  A    between atoms: N_14  and  C_15
REMARK    7  A    between atoms: C_15  and  C_16
REMARK    8  A    between atoms: C_19  and  C_20
REMARK                            x       y       z     vdW  Elec       q    Type
REMARK                         _______ _______ _______ _____ _____    ______ ____
ROOT
ATOM      1  N   UNL     1       6.035   6.431  16.622  0.00  0.00    +0.000 N 
ATOM      2  C   UNL     1       5.119   7.000  17.588  0.00  0.00    +0.000 C 
ATOM      3  C   UNL     1       3.854   6.181  17.390  0.00  0.00    +0.000 C 
ATOM      4  N   UNL     1       4.369   4.944  16.848  0.00  0.00    +0.000 N 
ATOM      5  C   UNL     1       5.632   5.132  16.301  0.00  0.00    +0.000 C 
ATOM      6  O   UNL     1       6.301   4.326  15.675  0.00  0.00    +0.000 OA
ENDROOT
BRANCH   1   7
ATOM      7  C   UNL     1       7.421   6.859  16.550  0.00  0.00    +0.000 C 
BRANCH   7   9
ATOM      8  N   UNL     1       8.141   8.910  17.699  0.00  0.00    +0.000 N 
ATOM      9  C   UNL     1       7.911   7.558  17.823  0.00  0.00    +0.000 C 
ATOM     10  O   UNL     1       8.194   6.912  18.830  0.00  0.00    +0.000 OA
ATOM     11  H   UNL     1       7.912   9.362  16.820  0.00  0.00    +0.000 HD
BRANCH   8  12
ATOM     12  C   UNL     1       8.738   9.677  18.765  0.00  0.00    +0.000 C 
BRANCH  12  17
ATOM     13  C   UNL     1      11.261  14.626  17.002  0.00  0.00    +0.000 C 
ATOM     14  C   UNL     1      10.606  13.347  17.431  0.00  0.00    +0.000 A 
ATOM     15  C   UNL     1       9.217  13.263  17.568  0.00  0.00    +0.000 A 
ATOM     16  C   UNL     1       8.620  12.070  17.983  0.00  0.00    +0.000 A 
ATOM     17  C   UNL     1       9.397  10.942  18.279  0.00  0.00    +0.000 A 
ATOM     18  C   UNL     1      10.786  11.023  18.123  0.00  0.00    +0.000 A 
ATOM     19  C   UNL     1      11.385  12.217  17.708  0.00  0.00    +0.000 A 
ENDBRANCH  12  17
ENDBRANCH   8  12
ENDBRANCH   7   9
ENDBRANCH   1   7
BRANCH   4  20
ATOM     20  C   UNL     1       3.649   3.691  16.905  0.00  0.00    +0.000 C 
BRANCH  20  21
ATOM     21  C   UNL     1       3.024   3.435  18.258  0.00  0.00    +0.000 A 
ATOM     22  C   UNL     1       1.641   3.569  18.447  0.00  0.00    +0.000 A 
ATOM     23  C   UNL     1       1.054   3.266  19.680  0.00  0.00    +0.000 A 
ATOM     24  C   UNL     1       1.837   2.822  20.754  0.00  0.00    +0.000 A 
ATOM     25  C   UNL     1       1.219   2.456  22.070  0.00  0.00    +0.000 C 
ATOM     26  C   UNL     1       3.223   2.705  20.576  0.00  0.00    +0.000 A 
ATOM     27  C   UNL     1       3.806   3.006  19.341  0.00  0.00    +0.000 A 
ENDBRANCH  20  21
ENDBRANCH   4  20
TORSDOF 6
ENDMDL
MODEL 3
REMARK VINA RESULT:      -7.9      4.164      7.394
REMARK  Name = 
REMARK  8 active torsions:
REMARK  status: ('A' for Active; 'I' for Inactive)
REMARK    1  A    between atoms: C_1  and  C_2
REMARK    2  A    between atoms: C_5  and  C_6
REMARK    3  A    between atoms: C_6  and  N_7
REMARK    4  A    between atoms: C_8  and  C_10
REMARK    5  A    between atoms: C_10  and  N_11
REMARK    6  A    between atoms: N_14  and  C_15
REMARK    7  A    between atoms: C_15  and  C_16
REMARK    8  A    between atoms: C_19  and  C_20
REMARK                            x       y       z     vdW  Elec       q    Type
REMARK                         _______ _______ _______ _____ _____    ______ ____
ROOT
ATOM      1  N   UNL     1       2.208   2.369  18.913  0.00  0.00    +0.000 N 
ATOM      2  C   UNL     1       3.532   1.859  19.201  0.00  0.00    +0.000 C 
ATOM      3  C   UNL     1       4.226   1.919  17.850  0.00  0.00    +0.000 C 
ATOM      4  N   UNL     1       3.492   2.963  17.171  0.00  0.00    +0.000 N 
ATOM      5  C   UNL     1       2.246   3.150  17.756  0.00  0.00    +0.000 C 
ATOM      6  O   UNL     1       1.342   3.874  17.370  0.00  0.00    +0.000 OA
ENDROOT
BRANCH   1   7
ATOM      7  C   UNL     1       1.235   2.584  19.969  0.00  0.00    +0.000 C 
BRANCH   7   9
ATOM      8  N   UNL     1       1.595   4.975  20.415  0.00  0.00    +0.000 N 
ATOM      9  C   UNL     1       1.626   3.702  20.942  0.00  0.00    +0.000 C 
ATOM     10  O   UNL     1       2.054   3.444  22.065  0.00  0.00    +0.000 OA
ATOM     11  H   UNL     1       1.260   5.098  19.466  0.00  0.00    +0.000 HD
BRANCH   8  12
ATOM     12  C   UNL     1       2.071   6.114  21.162  0.00  0.00    +0.000 C 
BRANCH  12  17
ATOM     13  C   UNL     1       0.686  11.133  18.542  0.00  0.00    +0.000 C 
ATOM     14  C   UNL     1       1.067   9.850  19.221  0.00  0.00    +0.000 A 
ATOM     15  C   UNL     1       1.792   8.866  18.541  0.00  0.00    +0.000 A 
ATOM     16  C   UNL     1       2.127   7.670  19.180  0.00  0.00    +0.000 A 
ATOM     17  C   UNL     1       1.736   7.428  20.504  0.00  0.00    +0.000 A 
ATOM     18  C   UNL     1       1.026   8.422  21.188  0.00  0.00    +0.000 A 
ATOM     19  C   UNL     1       0.689   9.619  20.550  0.00  0.00    +0.000 A 
ENDBRANCH  12  17
ENDBRANCH   8  12
ENDBRANCH   7   9
ENDBRANCH   1   7
BRANCH   4  20
ATOM     20  C   UNL     1       4.023   3.709  16.052  0.00  0.00    +0.000 C 
BRANCH  20  21
ATOM     21  C   UNL     1       5.021   4.766  16.471  0.00  0.00    +0.000 A 
ATOM     22  C   UNL     1       4.599   6.064  16.790  0.00  0.00    +0.000 A 
ATOM     23  C   UNL     1       5.511   7.022  17.244  0.00  0.00    +0.000 A 
ATOM     24  C   UNL     1       6.868   6.704  17.389  0.00  0.00    +0.000 A 
ATOM     25  C   UNL     1       7.853   7.707  17.912  0.00  0.00    +0.000 C 
ATOM     26  C   UNL     1       7.298   5.413  17.054  0.00  0.00    +0.000 A 
ATOM     27  C   UNL     1       6.382   4.456  16.604  0.00  0.00    +0.000 A 
ENDBRANCH  20  21
ENDBRANCH   4  20
TORSDOF 6
ENDMDL
MODEL 4
REMARK VINA RESULT:      -7.8      3.722      6.593
REMARK  Name = 
REMARK  8 active torsions:
REMARK  status: ('A' for Active; 'I' for Inactive)
REMARK    1  A    between atoms: C_1  and  C_2
REMARK    2  A    between atoms: C_5  and  C_6
REMARK    3  A    between atoms: C_6  and  N_7
REMARK    4  A    between atoms: C_8  and  C_10
REMARK    5  A    between atoms: C_10  and  N_11
REMARK    6  A    between atoms: N_14  and  C_15
REMARK    7  A    between atoms: C_15  and  C_16
REMARK    8  A    between atoms: C_19  and  C_20
REMARK                            x       y       z     vdW  Elec       q    Type
REMARK                         _______ _______ _______ _____ _____    ______ ____
ROOT
ATOM      1  N   UNL     1       2.390   2.451  19.288  0.00  0.00    +0.000 N 
ATOM      2  C   UNL     1       0.954   2.631  19.319  0.00  0.00    +0.000 C 
ATOM      3  C   UNL     1       0.745   3.530  20.527  0.00  0.00    +0.000 C 
ATOM      4  N   UNL     1       2.017   4.211  20.629  0.00  0.00    +0.000 N 
ATOM      5  C   UNL     1       3.011   3.501  19.970  0.00  0.00    +0.000 C 
ATOM      6  O   UNL     1       4.208   3.739  19.948  0.00  0.00    +0.000 OA
ENDROOT
BRANCH   1   7
ATOM      7  C   UNL     1       3.038   1.730  18.206  0.00  0.00    +0.000 C 
BRANCH   7   9
ATOM      8  N   UNL     1       4.840   2.831  16.947  0.00  0.00    +0.000 N 
ATOM      9  C   UNL     1       3.481   2.632  17.049  0.00  0.00    +0.000 C 
ATOM     10  O   UNL     1       2.655   3.226  16.358  0.00  0.00    +0.000 OA
ATOM     11  H   UNL     1       5.452   2.328  17.580  0.00  0.00    +0.000 HD
BRANCH   8  12
ATOM     12  C   UNL     1       5.398   3.765  16.000  0.00  0.00    +0.000 C 
BRANCH  12  17
ATOM     13  C   UNL     1       8.257   8.193  18.487  0.00  0.00    +0.000 C 
ATOM     14  C   UNL     1       7.507   7.051  17.869  0.00  0.00    +0.000 A 
ATOM     15  C   UNL     1       7.851   5.727  18.157  0.00  0.00    +0.000 A 
ATOM     16  C   UNL     1       7.155   4.671  17.563  0.00  0.00    +0.000 A 
ATOM     17  C   UNL     1       6.110   4.917  16.662  0.00  0.00    +0.000 A 
ATOM     18  C   UNL     1       5.755   6.243  16.389  0.00  0.00    +0.000 A 
ATOM     19  C   UNL     1       6.452   7.300  16.982  0.00  0.00    +0.000 A 
ENDBRANCH  12  17
ENDBRANCH   8  12
ENDBRANCH   7   9
ENDBRANCH   1   7
BRANCH   4  20
ATOM     20  C   UNL     1       2.189   5.472  21.315  0.00  0.00    +0.000 C 
BRANCH  20  21
ATOM     21  C   UNL     1       1.996   6.666  20.405  0.00  0.00    +0.000 A 
ATOM     22  C   UNL     1       1.338   7.817  20.861  0.00  0.00    +0.000 A 
ATOM     23  C   UNL     1       1.220   8.946  20.044  0.00  0.00    +0.000 A 
ATOM     24  C   UNL     1       1.756   8.949  18.749  0.00  0.00    +0.000 A 
ATOM     25  C   UNL     1       1.672  10.164  17.874  0.00  0.00    +0.000 C 
ATOM     26  C   UNL     1       2.397   7.794  18.281  0.00  0.00    +0.000 A 
ATOM     27  C   UNL     1       2.517   6.668  19.103  0.00  0.00    +0.000 A 
ENDBRANCH  20  21
ENDBRANCH   4  20
TORSDOF 6
ENDMDL
MODEL 5
REMARK VINA RESULT:      -7.5      5.263      8.294
REMARK  Name = 
REMARK  8 active torsions:
REMARK  status: ('A' for Active; 'I' for Inactive)
REMARK    1  A    between atoms: C_1  and  C_2
REMARK    2  A    between atoms: C_5  and  C_6
REMARK    3  A    between atoms: C_6  and  N_7
REMARK    4  A    between atoms: C_8  and  C_10
REMARK    5  A    between atoms: C_10  and  N_11
REMARK    6  A    between atoms: N_14  and  C_15
REMARK    7  A    between atoms: C_15  and  C_16
REMARK    8  A    between atoms: C_19  and  C_20
REMARK                            x       y       z     vdW  Elec       q    Type
REMARK                         _______ _______ _______ _____ _____    ______ ____
ROOT
ATOM      1  N   UNL     1       2.051   7.393  19.646  0.00  0.00    +0.000 N 
ATOM      2  C   UNL     1       1.303   7.711  20.845  0.00  0.00    +0.000 C 
ATOM      3  C   UNL     1       1.243   9.230  20.820  0.00  0.00    +0.000 C 
ATOM      4  N   UNL     1       1.382   9.522  19.412  0.00  0.00    +0.000 N 
ATOM      5  C   UNL     1       1.961   8.453  18.741  0.00  0.00    +0.000 C 
ATOM      6  O   UNL     1       2.311   8.407  17.572  0.00  0.00    +0.000 OA
ENDROOT
BRANCH   1   7
ATOM      7  C   UNL     1       2.250   6.018  19.222  0.00  0.00    +0.000 C 
BRANCH   7   9
ATOM      8  N   UNL     1       4.445   6.200  18.130  0.00  0.00    +0.000 N 
ATOM      9  C   UNL     1       3.725   5.610  19.145  0.00  0.00    +0.000 C 
ATOM     10  O   UNL     1       4.175   4.723  19.868  0.00  0.00    +0.000 OA
ATOM     11  H   UNL     1       3.988   6.900  17.555  0.00  0.00    +0.000 HD
BRANCH   8  12
ATOM     12  C   UNL     1       5.804   5.811  17.841  0.00  0.00    +0.000 C 
BRANCH  12  17
ATOM     13  C   UNL     1       6.308   3.504  12.513  0.00  0.00    +0.000 C 
ATOM     14  C   UNL     1       6.187   4.075  13.894  0.00  0.00    +0.000 A 
ATOM     15  C   UNL     1       5.093   3.764  14.707  0.00  0.00    +0.000 A 
ATOM     16  C   UNL     1       4.984   4.315  15.986  0.00  0.00    +0.000 A 
ATOM     17  C   UNL     1       5.960   5.195  16.474  0.00  0.00    +0.000 A 
ATOM     18  C   UNL     1       7.064   5.490  15.667  0.00  0.00    +0.000 A 
ATOM     19  C   UNL     1       7.173   4.940  14.386  0.00  0.00    +0.000 A 
ENDBRANCH  12  17
ENDBRANCH   8  12
ENDBRANCH   7   9
ENDBRANCH   1   7
BRANCH   4  20
ATOM     20  C   UNL     1       0.947  10.763  18.811  0.00  0.00    +0.000 C 
BRANCH  20  21
ATOM     21  C   UNL     1      -0.543  10.797  18.549  0.00  0.00    +0.000 A 
ATOM     22  C   UNL     1      -1.366  11.726  19.201  0.00  0.00    +0.000 A 
ATOM     23  C   UNL     1      -2.731  11.804  18.907  0.00  0.00    +0.000 A 
ATOM     24  C   UNL     1      -3.307  10.951  17.955  0.00  0.00    +0.000 A 
ATOM     25  C   UNL     1      -4.760  11.047  17.600  0.00  0.00    +0.000 C 
ATOM     26  C   UNL     1      -2.492  10.007  17.315  0.00  0.00    +0.000 A 
ATOM     27  C   UNL     1      -1.126   9.936  17.608  0.00  0.00    +0.000 A 
ENDBRANCH  20  21
ENDBRANCH   4  20
TORSDOF 6
ENDMDL
MODEL 6
REMARK VINA RESULT:      -7.4      4.334      7.913
REMARK  Name = 
REMARK  8 active torsions:
REMARK  status: ('A' for Active; 'I' for Inactive)
REMARK    1  A    between atoms: C_1  and  C_2
REMARK    2  A    between atoms: C_5  and  C_6
REMARK    3  A    between atoms: C_6  and  N_7
REMARK    4  A    between atoms: C_8  and  C_10
REMARK    5  A    between atoms: C_10  and  N_11
REMARK    6  A    between atoms: N_14  and  C_15
REMARK    7  A    between atoms: C_15  and  C_16
REMARK    8  A    between atoms: C_19  and  C_20
REMARK                            x       y       z     vdW  Elec       q    Type
REMARK                         _______ _______ _______ _____ _____    ______ ____
ROOT
ATOM      1  N   UNL     1       1.738   3.492  19.289  0.00  0.00    +0.000 N 
ATOM      2  C   UNL     1       2.668   2.489  19.762  0.00  0.00    +0.000 C 
ATOM      3  C   UNL     1       3.393   2.065  18.495  0.00  0.00    +0.000 C 
ATOM      4  N   UNL     1       3.252   3.231  17.653  0.00  0.00    +0.000 N 
ATOM      5  C   UNL     1       2.194   4.023  18.080  0.00  0.00    +0.000 C 
ATOM      6  O   UNL     1       1.741   5.018  17.536  0.00  0.00    +0.000 OA
ENDROOT
BRANCH   1   7
ATOM      7  C   UNL     1       0.907   4.247  20.210  0.00  0.00    +0.000 C 
BRANCH   7   9
ATOM      8  N   UNL     1       1.205   6.688  20.228  0.00  0.00    +0.000 N 
ATOM      9  C   UNL     1       1.601   5.490  20.780  0.00  0.00    +0.000 C 
ATOM     10  O   UNL     1       2.530   5.386  21.579  0.00  0.00    +0.000 OA
ATOM     11  H   UNL     1       0.453   6.683  19.548  0.00  0.00    +0.000 HD
BRANCH   8  12
ATOM     12  C   UNL     1       1.866   7.927  20.558  0.00  0.00    +0.000 C 
BRANCH  12  17
ATOM     13  C   UNL     1      -1.800  11.770  22.959  0.00  0.00    +0.000 C 
ATOM     14  C   UNL     1      -0.837  10.796  22.347  0.00  0.00    +0.000 A 
ATOM     15  C   UNL     1      -0.311  11.013  21.070  0.00  0.00    +0.000 A 
ATOM     16  C   UNL     1       0.573  10.090  20.506  0.00  0.00    +0.000 A 
ATOM     17  C   UNL     1       0.942   8.931  21.200  0.00  0.00    +0.000 A 
ATOM     18  C   UNL     1       0.430   8.725  22.487  0.00  0.00    +0.000 A 
ATOM     19  C   UNL     1      -0.457   9.647  23.052  0.00  0.00    +0.000 A 
ENDBRANCH  12  17
ENDBRANCH   8  12
ENDBRANCH   7   9
ENDBRANCH   1   7
BRANCH   4  20
ATOM     20  C   UNL     1       4.128   3.516  16.539  0.00  0.00    +0.000 C 
BRANCH  20  21
ATOM     21  C   UNL     1       5.136   4.601  16.848  0.00  0.00    +0.000 A 
ATOM     22  C   UNL     1       4.885   5.936  16.497  0.00  0.00    +0.000 A 
ATOM     23  C   UNL     1       5.785   6.949  16.843  0.00  0.00    +0.000 A 
ATOM     24  C   UNL     1       6.958   6.651  17.549  0.00  0.00    +0.000 A 
ATOM     25  C   UNL     1       7.914   7.730  17.963  0.00  0.00    +0.000 C 
ATOM     26  C   UNL     1       7.223   5.316  17.885  0.00  0.00    +0.000 A 
ATOM     27  C   UNL     1       6.320   4.306  17.540  0.00  0.00    +0.000 A 
ENDBRANCH  20  21
ENDBRANCH   4  20
TORSDOF 6
ENDMDL
MODEL 7
REMARK VINA RESULT:      -7.4      1.153      1.640
REMARK  Name = 
REMARK  8 active torsions:
REMARK  status: ('A' for Active; 'I' for Inactive)
REMARK    1  A    between atoms: C_1  and  C_2
REMARK    2  A    between atoms: C_5  and  C_6
REMARK    3  A    between atoms: C_6  and  N_7
REMARK    4  A    between atoms: C_8  and  C_10
REMARK    5  A    between atoms: C_10  and  N_11
REMARK    6  A    between atoms: N_14  and  C_15
REMARK    7  A    between atoms: C_15  and  C_16
REMARK    8  A    between atoms: C_19  and  C_20
REMARK                            x       y       z     vdW  Elec       q    Type
REMARK                         _______ _______ _______ _____ _____    ______ ____
ROOT
ATOM      1  N   UNL     1       6.344   6.360  16.981  0.00  0.00    +0.000 N 
ATOM      2  C   UNL     1       6.936   5.436  16.036  0.00  0.00    +0.000 C 
ATOM      3  C   UNL     1       6.123   4.168  16.238  0.00  0.00    +0.000 C 
ATOM      4  N   UNL     1       4.873   4.680  16.754  0.00  0.00    +0.000 N 
ATOM      5  C   UNL     1       5.044   5.951  17.287  0.00  0.00    +0.000 C 
ATOM      6  O   UNL     1       4.223   6.623  17.891  0.00  0.00    +0.000 OA
ENDROOT
BRANCH   1   7
ATOM      7  C   UNL     1       6.761   7.750  17.040  0.00  0.00    +0.000 C 
BRANCH   7   9
ATOM      8  N   UNL     1       8.302   9.317  18.142  0.00  0.00    +0.000 N 
ATOM      9  C   UNL     1       7.858   8.015  18.077  0.00  0.00    +0.000 C 
ATOM     10  O   UNL     1       8.377   7.090  18.700  0.00  0.00    +0.000 OA
ATOM     11  H   UNL     1       7.842  10.015  17.568  0.00  0.00    +0.000 HD
BRANCH   8  12
ATOM     12  C   UNL     1       9.426   9.693  18.965  0.00  0.00    +0.000 C 
BRANCH  12  17
ATOM     13  C   UNL     1       8.840  15.100  21.061  0.00  0.00    +0.000 C 
ATOM     14  C   UNL     1       9.016  13.713  20.517  0.00  0.00    +0.000 A 
ATOM     15  C   UNL     1       9.068  13.482  19.139  0.00  0.00    +0.000 A 
ATOM     16  C   UNL     1       9.217  12.184  18.646  0.00  0.00    +0.000 A 
ATOM     17  C   UNL     1       9.307  11.090  19.517  0.00  0.00    +0.000 A 
ATOM     18  C   UNL     1       9.274  11.325  20.897  0.00  0.00    +0.000 A 
ATOM     19  C   UNL     1       9.123  12.624  21.392  0.00  0.00    +0.000 A 
ENDBRANCH  12  17
ENDBRANCH   8  12
ENDBRANCH   7   9
ENDBRANCH   1   7
BRANCH   4  20
ATOM     20  C   UNL     1       3.627   3.950  16.688  0.00  0.00    +0.000 C 
BRANCH  20  21
ATOM     21  C   UNL     1       3.051   3.648  18.053  0.00  0.00    +0.000 A 
ATOM     22  C   UNL     1       1.725   3.984  18.363  0.00  0.00    +0.000 A 
ATOM     23  C   UNL     1       1.171   3.644  19.601  0.00  0.00    +0.000 A 
ATOM     24  C   UNL     1       1.929   2.959  20.560  0.00  0.00    +0.000 A 
ATOM     25  C   UNL     1       1.339   2.551  21.876  0.00  0.00    +0.000 C 
ATOM     26  C   UNL     1       3.261   2.637  20.262  0.00  0.00    +0.000 A 
ATOM     27  C   UNL     1       3.811   2.976  19.022  0.00  0.00    +0.000 A 
ENDBRANCH  20  21
ENDBRANCH   4  20
TORSDOF 6
ENDMDL
MODEL 8
REMARK VINA RESULT:      -7.4      4.808      7.439
REMARK  Name = 
REMARK  8 active torsions:
REMARK  status: ('A' for Active; 'I' for Inactive)
REMARK    1  A    between atoms: C_1  and  C_2
REMARK    2  A    between atoms: C_5  and  C_6
REMARK    3  A    between atoms: C_6  and  N_7
REMARK    4  A    between atoms: C_8  and  C_10
REMARK    5  A    between atoms: C_10  and  N_11
REMARK    6  A    between atoms: N_14  and  C_15
REMARK    7  A    between atoms: C_15  and  C_16
REMARK    8  A    between atoms: C_19  and  C_20
REMARK                            x       y       z     vdW  Elec       q    Type
REMARK                         _______ _______ _______ _____ _____    ______ ____
ROOT
ATOM      1  N   UNL     1       4.138   5.705  18.995  0.00  0.00    +0.000 N 
ATOM      2  C   UNL     1       3.539   6.451  17.908  0.00  0.00    +0.000 C 
ATOM      3  C   UNL     1       4.745   6.988  17.153  0.00  0.00    +0.000 C 
ATOM      4  N   UNL     1       5.774   6.032  17.495  0.00  0.00    +0.000 N 
ATOM      5  C   UNL     1       5.444   5.344  18.655  0.00  0.00    +0.000 C 
ATOM      6  O   UNL     1       6.133   4.547  19.272  0.00  0.00    +0.000 OA
ENDROOT
BRANCH   1   7
ATOM      7  C   UNL     1       3.326   4.927  19.914  0.00  0.00    +0.000 C 
BRANCH   7   9
ATOM      8  N   UNL     1       2.188   6.998  20.594  0.00  0.00    +0.000 N 
ATOM      9  C   UNL     1       2.050   5.647  20.363  0.00  0.00    +0.000 C 
ATOM     10  O   UNL     1       1.023   5.018  20.613  0.00  0.00    +0.000 OA
ATOM     11  H   UNL     1       3.081   7.434  20.393  0.00  0.00    +0.000 HD
BRANCH   8  12
ATOM     12  C   UNL     1       1.116   7.783  21.155  0.00  0.00    +0.000 C 
BRANCH  12  17
ATOM     13  C   UNL     1       0.518  13.001  18.628  0.00  0.00    +0.000 C 
ATOM     14  C   UNL     1       0.698  11.661  19.280  0.00  0.00    +0.000 A 
ATOM     15  C   UNL     1       1.112  10.552  18.537  0.00  0.00    +0.000 A 
ATOM     16  C   UNL     1       1.261   9.307  19.153  0.00  0.00    +0.000 A 
ATOM     17  C   UNL     1       0.989   9.143  20.518  0.00  0.00    +0.000 A 
ATOM     18  C   UNL     1       0.592  10.259  21.264  0.00  0.00    +0.000 A 
ATOM     19  C   UNL     1       0.442  11.506  20.648  0.00  0.00    +0.000 A 
ENDBRANCH  12  17
ENDBRANCH   8  12
ENDBRANCH   7   9
ENDBRANCH   1   7
BRANCH   4  20
ATOM     20  C   UNL     1       6.964   5.828  16.699  0.00  0.00    +0.000 C 
BRANCH  20  21
ATOM     21  C   UNL     1       6.699   5.034  15.439  0.00  0.00    +0.000 A 
ATOM     22  C   UNL     1       5.671   4.081  15.394  0.00  0.00    +0.000 A 
ATOM     23  C   UNL     1       5.380   3.397  14.210  0.00  0.00    +0.000 A 
ATOM     24  C   UNL     1       6.112   3.648  13.041  0.00  0.00    +0.000 A 
ATOM     25  C   UNL     1       5.788   2.952  11.754  0.00  0.00    +0.000 C 
ATOM     26  C   UNL     1       7.152   4.586  13.086  0.00  0.00    +0.000 A 
ATOM     27  C   UNL     1       7.438   5.272  14.271  0.00  0.00    +0.000 A 
ENDBRANCH  20  21
ENDBRANCH   4  20
TORSDOF 6
ENDMDL
MODEL 9
REMARK VINA RESULT:      -7.3      2.937      8.453
REMARK  Name = 
REMARK  8 active torsions:
REMARK  status: ('A' for Active; 'I' for Inactive)
REMARK    1  A    between atoms: C_1  and  C_2
REMARK    2  A    between atoms: C_5  and  C_6
REMARK    3  A    between atoms: C_6  and  N_7
REMARK    4  A    between atoms: C_8  and  C_10
REMARK    5  A    between atoms: C_10  and  N_11
REMARK    6  A    between atoms: N_14  and  C_15
REMARK    7  A    between atoms: C_15  and  C_16
REMARK    8  A    between atoms: C_19  and  C_20
REMARK                            x       y       z     vdW  Elec       q    Type
REMARK                         _______ _______ _______ _____ _____    ______ ____
ROOT
ATOM      1  N   UNL     1       7.292   5.738  17.923  0.00  0.00    +0.000 N 
ATOM      2  C   UNL     1       7.930   5.983  19.199  0.00  0.00    +0.000 C 
ATOM      3  C   UNL     1       8.557   7.355  19.013  0.00  0.00    +0.000 C 
ATOM      4  N   UNL     1       7.726   7.938  17.984  0.00  0.00    +0.000 N 
ATOM      5  C   UNL     1       7.055   6.952  17.274  0.00  0.00    +0.000 C 
ATOM      6  O   UNL     1       6.358   7.091  16.282  0.00  0.00    +0.000 OA
ENDROOT
BRANCH   1   7
ATOM      7  C   UNL     1       6.472   4.560  17.702  0.00  0.00    +0.000 C 
BRANCH   7   9
ATOM      8  N   UNL     1       4.287   5.426  18.424  0.00  0.00    +0.000 N 
ATOM      9  C   UNL     1       5.260   4.475  18.637  0.00  0.00    +0.000 C 
ATOM     10  O   UNL     1       5.243   3.688  19.581  0.00  0.00    +0.000 OA
ATOM     11  H   UNL     1       4.395   6.063  17.641  0.00  0.00    +0.000 HD
BRANCH   8  12
ATOM     12  C   UNL     1       3.158   5.564  19.311  0.00  0.00    +0.000 C 
BRANCH  12  17
ATOM     13  C   UNL     1       0.638  10.806  18.930  0.00  0.00    +0.000 C 
ATOM     14  C   UNL     1       1.263   9.445  19.026  0.00  0.00    +0.000 A 
ATOM     15  C   UNL     1       1.271   8.743  20.235  0.00  0.00    +0.000 A 
ATOM     16  C   UNL     1       1.870   7.483  20.315  0.00  0.00    +0.000 A 
ATOM     17  C   UNL     1       2.481   6.906  19.194  0.00  0.00    +0.000 A 
ATOM     18  C   UNL     1       2.456   7.603  17.980  0.00  0.00    +0.000 A 
ATOM     19  C   UNL     1       1.858   8.864  17.899  0.00  0.00    +0.000 A 
ENDBRANCH  12  17
ENDBRANCH   8  12
ENDBRANCH   7   9
ENDBRANCH   1   7
BRANCH   4  20
ATOM     20  C   UNL     1       7.615   9.364  17.766  0.00  0.00    +0.000 C 
BRANCH  20  21
ATOM     21  C   UNL     1       8.791  10.136  18.325  0.00  0.00    +0.000 A 
ATOM     22  C   UNL     1       9.003  10.218  19.708  0.00  0.00    +0.000 A 
ATOM     23  C   UNL     1      10.127  10.873  20.222  0.00  0.00    +0.000 A 
ATOM     24  C   UNL     1      11.065  11.462  19.364  0.00  0.00    +0.000 A 
ATOM     25  C   UNL     1      12.295  12.133  19.897  0.00  0.00    +0.000 C 
ATOM     26  C   UNL     1      10.847  11.399  17.981  0.00  0.00    +0.000 A 
ATOM     27  C   UNL     1       9.724  10.740  17.470  0.00  0.00    +0.000 A 
ENDBRANCH  20  21
ENDBRANCH   4  20
TORSDOF 6
ENDMDL
