MODEL 1
REMARK VINA RESULT:     -10.2      0.000      0.000
REMARK  Name = 
REMARK  4 active torsions:
REMARK  status: ('A' for Active; 'I' for Inactive)
REMARK    1  A    between atoms: C_4  and  S_5
REMARK    2  A    between atoms: S_5  and  C_8
REMARK    3  A    between atoms: C_13  and  C_14
REMARK    4  A    between atoms: C_17  and  C_18
REMARK                            x       y       z     vdW  Elec       q    Type
REMARK                         _______ _______ _______ _____ _____    ______ ____
ROOT
ATOM      1  C   UNL     1       3.861   4.621  17.092  0.00  0.00    +0.000 A 
ATOM      2  C   UNL     1       4.813   3.954  16.291  0.00  0.00    +0.000 A 
ATOM      3  C   UNL     1       5.928   4.624  15.796  0.00  0.00    +0.000 A 
ATOM      4  C   UNL     1       6.123   5.955  16.124  0.00  0.00    +0.000 A 
ATOM      5  C   UNL     1       5.203   6.611  16.949  0.00  0.00    +0.000 A 
ATOM      6  C   UNL     1       4.035   5.982  17.448  0.00  0.00    +0.000 A 
ENDROOT
BRANCH   6   7
ATOM      7  C   UNL     1       3.092   6.811  18.250  0.00  0.00    +0.000 A 
ATOM      8  C   UNL     1       2.809   6.476  19.589  0.00  0.00    +0.000 A 
ATOM      9  C   UNL     1       2.012   7.289  20.411  0.00  0.00    +0.000 A 
ATOM     10  C   UNL     1       1.489   8.499  19.939  0.00  0.00    +0.000 A 
ATOM     11  C   UNL     1       1.724   8.799  18.591  0.00  0.00    +0.000 A 
ATOM     12  F   UNL     1       1.242   9.932  18.059  0.00  0.00    +0.000 F 
ATOM     13  C   UNL     1       2.458   7.953  17.752  0.00  0.00    +0.000 A 
BRANCH  10  14
ATOM     14  C   UNL     1       0.719   9.402  20.807  0.00  0.00    +0.000 A 
ATOM     15  C   UNL     1      -0.237  10.288  20.340  0.00  0.00    +0.000 A 
ATOM     16  N   UNL     1      -0.997  11.085  21.123  0.00  0.00    +0.000 NA
ATOM     17  C   UNL     1      -0.798  10.985  22.437  0.00  0.00    +0.000 A 
ATOM     18  N   UNL     1      -1.594  11.748  23.257  0.00  0.00    +0.000 N 
ATOM     19  N   UNL     1       0.132  10.222  23.012  0.00  0.00    +0.000 NA
ATOM     20  C   UNL     1       0.862   9.443  22.182  0.00  0.00    +0.000 A 
ATOM     21  H   UNL     1      -1.958  12.541  22.749  0.00  0.00    +0.000 HD
ATOM     22  H   UNL     1      -1.119  11.928  24.131  0.00  0.00    +0.000 HD
ENDBRANCH  10  14
ENDBRANCH   6   7
BRANCH   1  23
ATOM     23  S   UNL     1       2.441   3.650  17.600  0.00  0.00    +0.000 S 
ATOM     24  O   UNL     1       2.388   2.429  16.818  0.00  0.00    +0.000 OA
ATOM     25  O   UNL     1       1.325   4.587  17.595  0.00  0.00    +0.000 OA
BRANCH  23  29
ATOM     26  N   UNL     1       0.900   2.535  22.377  0.00  0.00    +0.000 N 
ATOM     27  C   UNL     1       1.889   2.633  21.406  0.00  0.00    +0.000 A 
ATOM     28  C   UNL     1       1.580   3.049  20.138  0.00  0.00    +0.000 A 
ATOM     29  C   UNL     1       2.650   3.109  19.282  0.00  0.00    +0.000 A 
ATOM     30  N   UNL     1       3.925   2.784  19.592  0.00  0.00    +0.000 NA
ATOM     31  C   UNL     1       4.085   2.340  20.837  0.00  0.00    +0.000 A 
ATOM     32  N   UNL     1       3.125   2.264  21.772  0.00  0.00    +0.000 NA
ATOM     33  H   UNL     1       0.356   3.384  22.477  0.00  0.00    +0.000 HD
ATOM     34  H   UNL     1       1.339   2.258  23.249  0.00  0.00    +0.000 HD
ENDBRANCH  23  29
ENDBRANCH   1  23
TORSDOF 4
ENDMDL
MODEL 2
REMARK VINA RESULT:      -9.8      0.673      1.479
REMARK  Name = 
REMARK  4 active torsions:
REMARK  status: ('A' for Active; 'I' for Inactive)
REMARK    1  A    between atoms: C_4  and  S_5
REMARK    2  A    between atoms: S_5  and  C_8
REMARK    3  A    between atoms: C_13  and  C_14
REMARK    4  A    between atoms: C_17  and  C_18
REMARK                            x       y       z     vdW  Elec       q    Type
REMARK                         _______ _______ _______ _____ _____    ______ ____
ROOT
ATOM      1  C   UNL     1       3.830   4.809  17.118  0.00  0.00    +0.000 A 
ATOM      2  C   UNL     1       4.796   4.164  16.314  0.00  0.00    +0.000 A 
ATOM      3  C   UNL     1       5.885   4.864  15.804  0.00  0.00    +0.000 A 
ATOM      4  C   UNL     1       6.041   6.203  16.119  0.00  0.00    +0.000 A 
ATOM      5  C   UNL     1       5.109   6.838  16.947  0.00  0.00    +0.000 A 
ATOM      6  C   UNL     1       3.965   6.177  17.462  0.00  0.00    +0.000 A 
ENDROOT
BRANCH   6   7
ATOM      7  C   UNL     1       3.004   6.982  18.265  0.00  0.00    +0.000 A 
ATOM      8  C   UNL     1       2.757   6.661  19.615  0.00  0.00    +0.000 A 
ATOM      9  C   UNL     1       1.942   7.458  20.436  0.00  0.00    +0.000 A 
ATOM     10  C   UNL     1       1.365   8.638  19.952  0.00  0.00    +0.000 A 
ATOM     11  C   UNL     1       1.566   8.921  18.595  0.00  0.00    +0.000 A 
ATOM     12  F   UNL     1       1.030  10.026  18.052  0.00  0.00    +0.000 F 
ATOM     13  C   UNL     1       2.317   8.090  17.758  0.00  0.00    +0.000 A 
BRANCH  10  14
ATOM     14  C   UNL     1       0.575   9.525  20.817  0.00  0.00    +0.000 A 
ATOM     15  C   UNL     1       0.673   9.540  22.198  0.00  0.00    +0.000 A 
ATOM     16  N   UNL     1       0.001  10.387  23.010  0.00  0.00    +0.000 NA
ATOM     17  C   UNL     1      -0.802  11.265  22.411  0.00  0.00    +0.000 A 
ATOM     18  N   UNL     1      -1.458  12.170  23.212  0.00  0.00    +0.000 N 
ATOM     19  N   UNL     1      -1.037  11.315  21.100  0.00  0.00    +0.000 NA
ATOM     20  C   UNL     1      -0.335  10.448  20.335  0.00  0.00    +0.000 A 
ATOM     21  H   UNL     1      -1.531  11.813  24.153  0.00  0.00    +0.000 HD
ATOM     22  H   UNL     1      -2.308  12.479  22.760  0.00  0.00    +0.000 HD
ENDBRANCH  10  14
ENDBRANCH   6   7
BRANCH   1  23
ATOM     23  S   UNL     1       2.446   3.798  17.646  0.00  0.00    +0.000 S 
ATOM     24  O   UNL     1       2.354   2.625  16.798  0.00  0.00    +0.000 OA
ATOM     25  O   UNL     1       1.327   4.725  17.759  0.00  0.00    +0.000 OA
BRANCH  23  29
ATOM     26  N   UNL     1       5.190   1.466  21.316  0.00  0.00    +0.000 N 
ATOM     27  C   UNL     1       4.036   2.102  20.874  0.00  0.00    +0.000 A 
ATOM     28  C   UNL     1       3.946   2.562  19.586  0.00  0.00    +0.000 A 
ATOM     29  C   UNL     1       2.751   3.161  19.279  0.00  0.00    +0.000 A 
ATOM     30  N   UNL     1       1.715   3.332  20.129  0.00  0.00    +0.000 NA
ATOM     31  C   UNL     1       1.947   2.894  21.366  0.00  0.00    +0.000 A 
ATOM     32  N   UNL     1       3.060   2.267  21.777  0.00  0.00    +0.000 NA
ATOM     33  H   UNL     1       5.477   0.702  20.716  0.00  0.00    +0.000 HD
ATOM     34  H   UNL     1       5.037   1.164  22.274  0.00  0.00    +0.000 HD
ENDBRANCH  23  29
ENDBRANCH   1  23
TORSDOF 4
ENDMDL
MODEL 3
REMARK VINA RESULT:      -9.5      0.994      1.559
REMARK  Name = 
REMARK  4 active torsions:
REMARK  status: ('A' for Active; 'I' for Inactive)
REMARK    1  A    between atoms: C_4  and  S_5
REMARK    2  A    between atoms: S_5  and  C_8
REMARK    3  A    between atoms: C_13  and  C_14
REMARK    4  A    between atoms: C_17  and  C_18
REMARK                            x       y       z     vdW  Elec       q    Type
REMARK                         _______ _______ _______ _____ _____    ______ ____
ROOT
ATOM      1  C   UNL     1       3.883   4.440  16.985  0.00  0.00    +0.000 A 
ATOM      2  C   UNL     1       4.708   3.615  16.190  0.00  0.00    +0.000 A 
ATOM      3  C   UNL     1       5.872   4.113  15.610  0.00  0.00    +0.000 A 
ATOM      4  C   UNL     1       6.242   5.426  15.847  0.00  0.00    +0.000 A 
ATOM      5  C   UNL     1       5.449   6.237  16.666  0.00  0.00    +0.000 A 
ATOM      6  C   UNL     1       4.238   5.786  17.250  0.00  0.00    +0.000 A 
ENDROOT
BRANCH   6   7
ATOM      7  C   UNL     1       3.441   6.769  18.036  0.00  0.00    +0.000 A 
ATOM      8  C   UNL     1       3.046   7.992  17.459  0.00  0.00    +0.000 A 
ATOM      9  C   UNL     1       2.205   8.897  18.127  0.00  0.00    +0.000 A 
ATOM     10  C   UNL     1       1.689   8.602  19.394  0.00  0.00    +0.000 A 
ATOM     11  C   UNL     1       2.132   7.412  19.988  0.00  0.00    +0.000 A 
ATOM     12  F   UNL     1       1.696   7.067  21.209  0.00  0.00    +0.000 F 
ATOM     13  C   UNL     1       3.026   6.545  19.353  0.00  0.00    +0.000 A 
BRANCH  10  14
ATOM     14  C   UNL     1       0.746   9.500  20.075  0.00  0.00    +0.000 A 
ATOM     15  C   UNL     1       0.873   9.890  21.397  0.00  0.00    +0.000 A 
ATOM     16  N   UNL     1       0.052  10.760  22.027  0.00  0.00    +0.000 NA
ATOM     17  C   UNL     1      -0.940  11.269  21.297  0.00  0.00    +0.000 A 
ATOM     18  N   UNL     1      -1.758  12.194  21.900  0.00  0.00    +0.000 N 
ATOM     19  N   UNL     1      -1.212  10.929  20.037  0.00  0.00    +0.000 NA
ATOM     20  C   UNL     1      -0.357  10.059  19.455  0.00  0.00    +0.000 A 
ATOM     21  H   UNL     1      -1.727  12.084  22.903  0.00  0.00    +0.000 HD
ATOM     22  H   UNL     1      -2.667  12.194  21.456  0.00  0.00    +0.000 HD
ENDBRANCH  10  14
ENDBRANCH   6   7
BRANCH   1  23
ATOM     23  S   UNL     1       2.381   3.682  17.608  0.00  0.00    +0.000 S 
ATOM     24  O   UNL     1       2.109   2.467  16.863  0.00  0.00    +0.000 OA
ATOM     25  O   UNL     1       1.406   4.764  17.651  0.00  0.00    +0.000 OA
BRANCH  23  29
ATOM     26  N   UNL     1       0.939   2.551  22.413  0.00  0.00    +0.000 N 
ATOM     27  C   UNL     1       1.910   2.662  21.424  0.00  0.00    +0.000 A 
ATOM     28  C   UNL     1       1.573   3.072  20.161  0.00  0.00    +0.000 A 
ATOM     29  C   UNL     1       2.627   3.146  19.286  0.00  0.00    +0.000 A 
ATOM     30  N   UNL     1       3.911   2.838  19.575  0.00  0.00    +0.000 NA
ATOM     31  C   UNL     1       4.100   2.396  20.817  0.00  0.00    +0.000 A 
ATOM     32  N   UNL     1       3.157   2.310  21.768  0.00  0.00    +0.000 NA
ATOM     33  H   UNL     1       0.386   3.393  22.521  0.00  0.00    +0.000 HD
ATOM     34  H   UNL     1       1.398   2.281  23.277  0.00  0.00    +0.000 HD
ENDBRANCH  23  29
ENDBRANCH   1  23
TORSDOF 4
ENDMDL
MODEL 4
REMARK VINA RESULT:      -9.1      1.176      1.951
REMARK  Name = 
REMARK  4 active torsions:
REMARK  status: ('A' for Active; 'I' for Inactive)
REMARK    1  A    between atoms: C_4  and  S_5
REMARK    2  A    between atoms: S_5  and  C_8
REMARK    3  A    between atoms: C_13  and  C_14
REMARK    4  A    between atoms: C_17  and  C_18
REMARK                            x       y       z     vdW  Elec       q    Type
REMARK                         _______ _______ _______ _____ _____    ______ ____
ROOT
ATOM      1  C   UNL     1       3.803   4.771  17.078  0.00  0.00    +0.000 A 
ATOM      2  C   UNL     1       4.667   3.971  16.300  0.00  0.00    +0.000 A 
ATOM      3  C   UNL     1       5.819   4.507  15.730  0.00  0.00    +0.000 A 
ATOM      4  C   UNL     1       6.138   5.834  15.960  0.00  0.00    +0.000 A 
ATOM      5  C   UNL     1       5.305   6.622  16.762  0.00  0.00    +0.000 A 
ATOM      6  C   UNL     1       4.104   6.132  17.335  0.00  0.00    +0.000 A 
ENDROOT
BRANCH   6   7
ATOM      7  C   UNL     1       3.262   7.092  18.102  0.00  0.00    +0.000 A 
ATOM      8  C   UNL     1       2.792   8.273  17.495  0.00  0.00    +0.000 A 
ATOM      9  C   UNL     1       1.910   9.149  18.146  0.00  0.00    +0.000 A 
ATOM     10  C   UNL     1       1.425   8.863  19.428  0.00  0.00    +0.000 A 
ATOM     11  C   UNL     1       1.940   7.719  20.051  0.00  0.00    +0.000 A 
ATOM     12  F   UNL     1       1.538   7.386  21.287  0.00  0.00    +0.000 F 
ATOM     13  C   UNL     1       2.875   6.885  19.430  0.00  0.00    +0.000 A 
BRANCH  10  14
ATOM     14  C   UNL     1       0.440   9.727  20.095  0.00  0.00    +0.000 A 
ATOM     15  C   UNL     1       0.388   9.920  21.465  0.00  0.00    +0.000 A 
ATOM     16  N   UNL     1      -0.471  10.753  22.094  0.00  0.00    +0.000 NA
ATOM     17  C   UNL     1      -1.312  11.432  21.316  0.00  0.00    +0.000 A 
ATOM     18  N   UNL     1      -2.160  12.323  21.927  0.00  0.00    +0.000 N 
ATOM     19  N   UNL     1      -1.410  11.291  19.993  0.00  0.00    +0.000 NA
ATOM     20  C   UNL     1      -0.525  10.448  19.415  0.00  0.00    +0.000 A 
ATOM     21  H   UNL     1      -2.286  12.073  22.898  0.00  0.00    +0.000 HD
ATOM     22  H   UNL     1      -2.990  12.453  21.365  0.00  0.00    +0.000 HD
ENDBRANCH  10  14
ENDBRANCH   6   7
BRANCH   1  23
ATOM     23  S   UNL     1       2.322   3.964  17.689  0.00  0.00    +0.000 S 
ATOM     24  O   UNL     1       2.036   2.799  16.873  0.00  0.00    +0.000 OA
ATOM     25  O   UNL     1       1.342   5.034  17.829  0.00  0.00    +0.000 OA
BRANCH  23  29
ATOM     26  N   UNL     1       5.000   1.533  21.344  0.00  0.00    +0.000 N 
ATOM     27  C   UNL     1       3.869   2.215  20.909  0.00  0.00    +0.000 A 
ATOM     28  C   UNL     1       3.787   2.673  19.621  0.00  0.00    +0.000 A 
ATOM     29  C   UNL     1       2.615   3.321  19.321  0.00  0.00    +0.000 A 
ATOM     30  N   UNL     1       1.594   3.537  20.180  0.00  0.00    +0.000 NA
ATOM     31  C   UNL     1       1.819   3.094  21.416  0.00  0.00    +0.000 A 
ATOM     32  N   UNL     1       2.909   2.423  21.820  0.00  0.00    +0.000 NA
ATOM     33  H   UNL     1       5.250   0.756  20.744  0.00  0.00    +0.000 HD
ATOM     34  H   UNL     1       4.843   1.241  22.304  0.00  0.00    +0.000 HD
ENDBRANCH  23  29
ENDBRANCH   1  23
TORSDOF 4
ENDMDL
MODEL 5
REMARK VINA RESULT:      -9.0      3.053      4.801
REMARK  Name = 
REMARK  4 active torsions:
REMARK  status: ('A' for Active; 'I' for Inactive)
REMARK    1  A    between atoms: C_4  and  S_5
REMARK    2  A    between atoms: S_5  and  C_8
REMARK    3  A    between atoms: C_13  and  C_14
REMARK    4  A    between atoms: C_17  and  C_18
REMARK                            x       y       z     vdW  Elec       q    Type
REMARK                         _______ _______ _______ _____ _____    ______ ____
ROOT
ATOM      1  C   UNL     1       3.422   3.954  19.053  0.00  0.00    +0.000 A 
ATOM      2  C   UNL     1       3.407   2.545  19.144  0.00  0.00    +0.000 A 
ATOM      3  C   UNL     1       2.216   1.854  19.354  0.00  0.00    +0.000 A 
ATOM      4  C   UNL     1       1.027   2.558  19.440  0.00  0.00    +0.000 A 
ATOM      5  C   UNL     1       1.031   3.950  19.311  0.00  0.00    +0.000 A 
ATOM      6  C   UNL     1       2.220   4.701  19.131  0.00  0.00    +0.000 A 
ENDROOT
BRANCH   6   7
ATOM      7  C   UNL     1       2.101   6.185  19.089  0.00  0.00    +0.000 A 
ATOM      8  C   UNL     1       2.140   6.870  17.858  0.00  0.00    +0.000 A 
ATOM      9  C   UNL     1       1.925   8.254  17.765  0.00  0.00    +0.000 A 
ATOM     10  C   UNL     1       1.622   9.015  18.901  0.00  0.00    +0.000 A 
ATOM     11  C   UNL     1       1.642   8.341  20.129  0.00  0.00    +0.000 A 
ATOM     12  F   UNL     1       1.379   9.004  21.265  0.00  0.00    +0.000 F 
ATOM     13  C   UNL     1       1.929   6.976  20.230  0.00  0.00    +0.000 A 
BRANCH  10  14
ATOM     14  C   UNL     1       1.315  10.450  18.813  0.00  0.00    +0.000 A 
ATOM     15  C   UNL     1       0.110  11.004  19.210  0.00  0.00    +0.000 A 
ATOM     16  N   UNL     1      -0.173  12.326  19.193  0.00  0.00    +0.000 NA
ATOM     17  C   UNL     1       0.798  13.132  18.767  0.00  0.00    +0.000 A 
ATOM     18  N   UNL     1       0.553  14.485  18.789  0.00  0.00    +0.000 N 
ATOM     19  N   UNL     1       1.978  12.725  18.298  0.00  0.00    +0.000 NA
ATOM     20  C   UNL     1       2.209  11.394  18.341  0.00  0.00    +0.000 A 
ATOM     21  H   UNL     1      -0.442  14.657  18.771  0.00  0.00    +0.000 HD
ATOM     22  H   UNL     1       1.122  14.951  18.096  0.00  0.00    +0.000 HD
ENDBRANCH  10  14
ENDBRANCH   6   7
BRANCH   1  23
ATOM     23  S   UNL     1       5.035   4.711  18.851  0.00  0.00    +0.000 S 
ATOM     24  O   UNL     1       6.065   3.757  19.217  0.00  0.00    +0.000 OA
ATOM     25  O   UNL     1       4.934   5.996  19.532  0.00  0.00    +0.000 OA
BRANCH  23  29
ATOM     26  N   UNL     1       6.297   3.581  13.996  0.00  0.00    +0.000 N 
ATOM     27  C   UNL     1       5.907   4.486  14.977  0.00  0.00    +0.000 A 
ATOM     28  C   UNL     1       5.699   4.069  16.265  0.00  0.00    +0.000 A 
ATOM     29  C   UNL     1       5.326   5.064  17.132  0.00  0.00    +0.000 A 
ATOM     30  N   UNL     1       5.144   6.363  16.807  0.00  0.00    +0.000 NA
ATOM     31  C   UNL     1       5.321   6.631  15.514  0.00  0.00    +0.000 A 
ATOM     32  N   UNL     1       5.714   5.751  14.579  0.00  0.00    +0.000 NA
ATOM     33  H   UNL     1       7.112   3.039  14.259  0.00  0.00    +0.000 HD
ATOM     34  H   UNL     1       6.442   4.094  13.132  0.00  0.00    +0.000 HD
ENDBRANCH  23  29
ENDBRANCH   1  23
TORSDOF 4
ENDMDL
MODEL 6
REMARK VINA RESULT:      -8.9      3.891      8.812
REMARK  Name = 
REMARK  4 active torsions:
REMARK  status: ('A' for Active; 'I' for Inactive)
REMARK    1  A    between atoms: C_4  and  S_5
REMARK    2  A    between atoms: S_5  and  C_8
REMARK    3  A    between atoms: C_13  and  C_14
REMARK    4  A    between atoms: C_17  and  C_18
REMARK                            x       y       z     vdW  Elec       q    Type
REMARK                         _______ _______ _______ _____ _____    ______ ____
ROOT
ATOM      1  C   UNL     1      -0.516  11.821  18.463  0.00  0.00    +0.000 A 
ATOM      2  C   UNL     1      -0.834  13.197  18.457  0.00  0.00    +0.000 A 
ATOM      3  C   UNL     1       0.127  14.155  18.768  0.00  0.00    +0.000 A 
ATOM      4  C   UNL     1       1.421  13.753  19.052  0.00  0.00    +0.000 A 
ATOM      5  C   UNL     1       1.752  12.394  19.022  0.00  0.00    +0.000 A 
ATOM      6  C   UNL     1       0.801  11.379  18.746  0.00  0.00    +0.000 A 
ENDROOT
BRANCH   6   7
ATOM      7  C   UNL     1       1.257   9.964  18.823  0.00  0.00    +0.000 A 
ATOM      8  C   UNL     1       1.865   9.348  17.710  0.00  0.00    +0.000 A 
ATOM      9  C   UNL     1       2.406   8.054  17.775  0.00  0.00    +0.000 A 
ATOM     10  C   UNL     1       2.397   7.327  18.971  0.00  0.00    +0.000 A 
ATOM     11  C   UNL     1       1.740   7.919  20.058  0.00  0.00    +0.000 A 
ATOM     12  F   UNL     1       1.673   7.278  21.235  0.00  0.00    +0.000 F 
ATOM     13  C   UNL     1       1.137   9.178  19.973  0.00  0.00    +0.000 A 
BRANCH  10  14
ATOM     14  C   UNL     1       3.028   6.004  19.079  0.00  0.00    +0.000 A 
ATOM     15  C   UNL     1       4.396   5.809  19.161  0.00  0.00    +0.000 A 
ATOM     16  N   UNL     1       4.996   4.607  19.318  0.00  0.00    +0.000 NA
ATOM     17  C   UNL     1       4.188   3.552  19.408  0.00  0.00    +0.000 A 
ATOM     18  N   UNL     1       4.771   2.325  19.620  0.00  0.00    +0.000 N 
ATOM     19  N   UNL     1       2.861   3.593  19.280  0.00  0.00    +0.000 NA
ATOM     20  C   UNL     1       2.314   4.820  19.128  0.00  0.00    +0.000 A 
ATOM     21  H   UNL     1       5.732   2.340  19.312  0.00  0.00    +0.000 HD
ATOM     22  H   UNL     1       4.174   1.592  19.262  0.00  0.00    +0.000 HD
ENDBRANCH  10  14
ENDBRANCH   6   7
BRANCH   1  23
ATOM     23  S   UNL     1      -1.871  10.699  18.112  0.00  0.00    +0.000 S 
ATOM     24  O   UNL     1      -1.857   9.612  19.072  0.00  0.00    +0.000 OA
ATOM     25  O   UNL     1      -1.776  10.432  16.683  0.00  0.00    +0.000 OA
BRANCH  23  29
ATOM     26  N   UNL     1      -6.577  12.331  16.833  0.00  0.00    +0.000 N 
ATOM     27  C   UNL     1      -5.523  12.230  17.735  0.00  0.00    +0.000 A 
ATOM     28  C   UNL     1      -4.387  11.541  17.401  0.00  0.00    +0.000 A 
ATOM     29  C   UNL     1      -3.423  11.526  18.377  0.00  0.00    +0.000 A 
ATOM     30  N   UNL     1      -3.527  12.107  19.594  0.00  0.00    +0.000 NA
ATOM     31  C   UNL     1      -4.701  12.694  19.818  0.00  0.00    +0.000 A 
ATOM     32  N   UNL     1      -5.706  12.800  18.934  0.00  0.00    +0.000 NA
ATOM     33  H   UNL     1      -6.289  12.672  15.924  0.00  0.00    +0.000 HD
ATOM     34  H   UNL     1      -7.295  12.914  17.251  0.00  0.00    +0.000 HD
ENDBRANCH  23  29
ENDBRANCH   1  23
TORSDOF 4
ENDMDL
MODEL 7
REMARK VINA RESULT:      -8.9      3.812      8.754
REMARK  Name = 
REMARK  4 active torsions:
REMARK  status: ('A' for Active; 'I' for Inactive)
REMARK    1  A    between atoms: C_4  and  S_5
REMARK    2  A    between atoms: S_5  and  C_8
REMARK    3  A    between atoms: C_13  and  C_14
REMARK    4  A    between atoms: C_17  and  C_18
REMARK                            x       y       z     vdW  Elec       q    Type
REMARK                         _______ _______ _______ _____ _____    ______ ____
ROOT
ATOM      1  C   UNL     1      -0.526  11.639  18.455  0.00  0.00    +0.000 A 
ATOM      2  C   UNL     1      -0.857  13.011  18.427  0.00  0.00    +0.000 A 
ATOM      3  C   UNL     1       0.103  13.985  18.686  0.00  0.00    +0.000 A 
ATOM      4  C   UNL     1       1.409  13.602  18.940  0.00  0.00    +0.000 A 
ATOM      5  C   UNL     1       1.752  12.246  18.931  0.00  0.00    +0.000 A 
ATOM      6  C   UNL     1       0.803  11.216  18.707  0.00  0.00    +0.000 A 
ENDROOT
BRANCH   6   7
ATOM      7  C   UNL     1       1.276   9.807  18.804  0.00  0.00    +0.000 A 
ATOM      8  C   UNL     1       1.898   9.186  17.702  0.00  0.00    +0.000 A 
ATOM      9  C   UNL     1       2.453   7.900  17.785  0.00  0.00    +0.000 A 
ATOM     10  C   UNL     1       2.445   7.186  18.989  0.00  0.00    +0.000 A 
ATOM     11  C   UNL     1       1.774   7.782  20.064  0.00  0.00    +0.000 A 
ATOM     12  F   UNL     1       1.706   7.154  21.248  0.00  0.00    +0.000 F 
ATOM     13  C   UNL     1       1.157   9.034  19.962  0.00  0.00    +0.000 A 
BRANCH  10  14
ATOM     14  C   UNL     1       3.091   5.872  19.116  0.00  0.00    +0.000 A 
ATOM     15  C   UNL     1       4.463   5.690  19.156  0.00  0.00    +0.000 A 
ATOM     16  N   UNL     1       5.078   4.499  19.330  0.00  0.00    +0.000 NA
ATOM     17  C   UNL     1       4.282   3.440  19.480  0.00  0.00    +0.000 A 
ATOM     18  N   UNL     1       4.883   2.225  19.709  0.00  0.00    +0.000 N 
ATOM     19  N   UNL     1       2.952   3.467  19.397  0.00  0.00    +0.000 NA
ATOM     20  C   UNL     1       2.389   4.685  19.225  0.00  0.00    +0.000 A 
ATOM     21  H   UNL     1       5.833   2.237  19.368  0.00  0.00    +0.000 HD
ATOM     22  H   UNL     1       4.280   1.476  19.395  0.00  0.00    +0.000 HD
ENDBRANCH  10  14
ENDBRANCH   6   7
BRANCH   1  23
ATOM     23  S   UNL     1      -1.880  10.498  18.171  0.00  0.00    +0.000 S 
ATOM     24  O   UNL     1      -1.964   9.565  19.279  0.00  0.00    +0.000 OA
ATOM     25  O   UNL     1      -1.687  10.019  16.808  0.00  0.00    +0.000 OA
BRANCH  23  29
ATOM     26  N   UNL     1      -5.666  13.245  20.306  0.00  0.00    +0.000 N 
ATOM     27  C   UNL     1      -5.089  12.603  19.216  0.00  0.00    +0.000 A 
ATOM     28  C   UNL     1      -3.876  11.978  19.340  0.00  0.00    +0.000 A 
ATOM     29  C   UNL     1      -3.426  11.377  18.192  0.00  0.00    +0.000 A 
ATOM     30  N   UNL     1      -4.066  11.377  17.001  0.00  0.00    +0.000 NA
ATOM     31  C   UNL     1      -5.205  12.067  16.996  0.00  0.00    +0.000 A 
ATOM     32  N   UNL     1      -5.760  12.670  18.058  0.00  0.00    +0.000 NA
ATOM     33  H   UNL     1      -5.728  12.655  21.127  0.00  0.00    +0.000 HD
ATOM     34  H   UNL     1      -6.573  13.599  20.019  0.00  0.00    +0.000 HD
ENDBRANCH  23  29
ENDBRANCH   1  23
TORSDOF 4
ENDMDL
MODEL 8
REMARK VINA RESULT:      -8.7      3.237      4.746
REMARK  Name = 
REMARK  4 active torsions:
REMARK  status: ('A' for Active; 'I' for Inactive)
REMARK    1  A    between atoms: C_4  and  S_5
REMARK    2  A    between atoms: S_5  and  C_8
REMARK    3  A    between atoms: C_13  and  C_14
REMARK    4  A    between atoms: C_17  and  C_18
REMARK                            x       y       z     vdW  Elec       q    Type
REMARK                         _______ _______ _______ _____ _____    ______ ____
ROOT
ATOM      1  C   UNL     1       3.733   3.988  18.376  0.00  0.00    +0.000 A 
ATOM      2  C   UNL     1       3.794   2.580  18.291  0.00  0.00    +0.000 A 
ATOM      3  C   UNL     1       2.645   1.805  18.419  0.00  0.00    +0.000 A 
ATOM      4  C   UNL     1       1.422   2.426  18.599  0.00  0.00    +0.000 A 
ATOM      5  C   UNL     1       1.349   3.822  18.645  0.00  0.00    +0.000 A 
ATOM      6  C   UNL     1       2.494   4.653  18.554  0.00  0.00    +0.000 A 
ENDROOT
BRANCH   6   7
ATOM      7  C   UNL     1       2.296   6.122  18.698  0.00  0.00    +0.000 A 
ATOM      8  C   UNL     1       2.281   6.956  17.562  0.00  0.00    +0.000 A 
ATOM      9  C   UNL     1       1.991   8.327  17.644  0.00  0.00    +0.000 A 
ATOM     10  C   UNL     1       1.664   8.924  18.868  0.00  0.00    +0.000 A 
ATOM     11  C   UNL     1       1.738   8.104  20.002  0.00  0.00    +0.000 A 
ATOM     12  F   UNL     1       1.456   8.606  21.214  0.00  0.00    +0.000 F 
ATOM     13  C   UNL     1       2.098   6.755  19.929  0.00  0.00    +0.000 A 
BRANCH  10  14
ATOM     14  C   UNL     1       1.280  10.339  18.962  0.00  0.00    +0.000 A 
ATOM     15  C   UNL     1       2.044  11.378  18.459  0.00  0.00    +0.000 A 
ATOM     16  N   UNL     1       1.684  12.681  18.482  0.00  0.00    +0.000 NA
ATOM     17  C   UNL     1       0.500  12.957  19.027  0.00  0.00    +0.000 A 
ATOM     18  N   UNL     1       0.089  14.268  19.017  0.00  0.00    +0.000 N 
ATOM     19  N   UNL     1      -0.302  12.061  19.604  0.00  0.00    +0.000 NA
ATOM     20  C   UNL     1       0.105  10.773  19.549  0.00  0.00    +0.000 A 
ATOM     21  H   UNL     1       0.887  14.882  18.937  0.00  0.00    +0.000 HD
ATOM     22  H   UNL     1      -0.557  14.434  19.777  0.00  0.00    +0.000 HD
ENDBRANCH  10  14
ENDBRANCH   6   7
BRANCH   1  23
ATOM     23  S   UNL     1       5.301   4.852  18.261  0.00  0.00    +0.000 S 
ATOM     24  O   UNL     1       6.290   4.163  19.069  0.00  0.00    +0.000 OA
ATOM     25  O   UNL     1       4.978   6.250  18.511  0.00  0.00    +0.000 OA
BRANCH  23  29
ATOM     26  N   UNL     1       5.060   3.795  13.234  0.00  0.00    +0.000 N 
ATOM     27  C   UNL     1       5.744   4.256  14.353  0.00  0.00    +0.000 A 
ATOM     28  C   UNL     1       5.131   4.290  15.578  0.00  0.00    +0.000 A 
ATOM     29  C   UNL     1       5.921   4.758  16.597  0.00  0.00    +0.000 A 
ATOM     30  N   UNL     1       7.199   5.182  16.470  0.00  0.00    +0.000 NA
ATOM     31  C   UNL     1       7.661   5.154  15.221  0.00  0.00    +0.000 A 
ATOM     32  N   UNL     1       6.995   4.691  14.151  0.00  0.00    +0.000 NA
ATOM     33  H   UNL     1       4.641   2.883  13.373  0.00  0.00    +0.000 HD
ATOM     34  H   UNL     1       5.699   3.807  12.446  0.00  0.00    +0.000 HD
ENDBRANCH  23  29
ENDBRANCH   1  23
TORSDOF 4
ENDMDL
MODEL 9
REMARK VINA RESULT:      -8.7      2.974      4.343
REMARK  Name = 
REMARK  4 active torsions:
REMARK  status: ('A' for Active; 'I' for Inactive)
REMARK    1  A    between atoms: C_4  and  S_5
REMARK    2  A    between atoms: S_5  and  C_8
REMARK    3  A    between atoms: C_13  and  C_14
REMARK    4  A    between atoms: C_17  and  C_18
REMARK                            x       y       z     vdW  Elec       q    Type
REMARK                         _______ _______ _______ _____ _____    ______ ____
ROOT
ATOM      1  C   UNL     1       3.914   4.713  17.369  0.00  0.00    +0.000 A 
ATOM      2  C   UNL     1       4.234   3.351  17.180  0.00  0.00    +0.000 A 
ATOM      3  C   UNL     1       3.537   2.352  17.853  0.00  0.00    +0.000 A 
ATOM      4  C   UNL     1       2.493   2.699  18.693  0.00  0.00    +0.000 A 
ATOM      5  C   UNL     1       2.145   4.044  18.854  0.00  0.00    +0.000 A 
ATOM      6  C   UNL     1       2.847   5.099  18.217  0.00  0.00    +0.000 A 
ENDROOT
BRANCH   6   7
ATOM      7  C   UNL     1       2.432   6.494  18.533  0.00  0.00    +0.000 A 
ATOM      8  C   UNL     1       2.053   7.377  17.501  0.00  0.00    +0.000 A 
ATOM      9  C   UNL     1       1.553   8.662  17.763  0.00  0.00    +0.000 A 
ATOM     10  C   UNL     1       1.375   9.114  19.076  0.00  0.00    +0.000 A 
ATOM     11  C   UNL     1       1.808   8.256  20.096  0.00  0.00    +0.000 A 
ATOM     12  F   UNL     1       1.687   8.624  21.381  0.00  0.00    +0.000 F 
ATOM     13  C   UNL     1       2.373   7.004  19.833  0.00  0.00    +0.000 A 
BRANCH  10  14
ATOM     14  C   UNL     1       0.780  10.425  19.371  0.00  0.00    +0.000 A 
ATOM     15  C   UNL     1      -0.436  10.591  20.012  0.00  0.00    +0.000 A 
ATOM     16  N   UNL     1      -0.974  11.786  20.345  0.00  0.00    +0.000 NA
ATOM     17  C   UNL     1      -0.259  12.864  20.030  0.00  0.00    +0.000 A 
ATOM     18  N   UNL     1      -0.761  14.088  20.404  0.00  0.00    +0.000 N 
ATOM     19  N   UNL     1       0.892  12.847  19.357  0.00  0.00    +0.000 NA
ATOM     20  C   UNL     1       1.387  11.627  19.052  0.00  0.00    +0.000 A 
ATOM     21  H   UNL     1      -1.761  14.029  20.531  0.00  0.00    +0.000 HD
ATOM     22  H   UNL     1      -0.408  14.810  19.789  0.00  0.00    +0.000 HD
ENDBRANCH  10  14
ENDBRANCH   6   7
BRANCH   1  23
ATOM     23  S   UNL     1       4.941   5.891  16.490  0.00  0.00    +0.000 S 
ATOM     24  O   UNL     1       4.200   7.123  16.291  0.00  0.00    +0.000 OA
ATOM     25  O   UNL     1       5.473   5.151  15.353  0.00  0.00    +0.000 OA
BRANCH  23  29
ATOM     26  N   UNL     1       8.368   5.296  20.277  0.00  0.00    +0.000 N 
ATOM     27  C   UNL     1       7.833   6.020  19.217  0.00  0.00    +0.000 A 
ATOM     28  C   UNL     1       6.765   5.533  18.511  0.00  0.00    +0.000 A 
ATOM     29  C   UNL     1       6.332   6.351  17.499  0.00  0.00    +0.000 A 
ATOM     30  N   UNL     1       6.877   7.541  17.162  0.00  0.00    +0.000 NA
ATOM     31  C   UNL     1       7.944   7.876  17.885  0.00  0.00    +0.000 A 
ATOM     32  N   UNL     1       8.441   7.176  18.916  0.00  0.00    +0.000 NA
ATOM     33  H   UNL     1       7.673   5.019  20.959  0.00  0.00    +0.000 HD
ATOM     34  H   UNL     1       9.114   5.846  20.691  0.00  0.00    +0.000 HD
ENDBRANCH  23  29
ENDBRANCH   1  23
TORSDOF 4
ENDMDL
