MODEL 1
REMARK VINA RESULT:      -5.9      0.000      0.000
REMARK  Name = 
REMARK  8 active torsions:
REMARK  status: ('A' for Active; 'I' for Inactive)
REMARK    1  A    between atoms: C_1  and  C_2
REMARK    2  A    between atoms: C_2  and  C_3
REMARK    3  A    between atoms: C_3  and  N_4
REMARK    4  A    between atoms: C_11  and  C_12
REMARK    5  A    between atoms: C_12  and  C_13
REMARK    6  A    between atoms: C_13  and  N_14
REMARK    7  A    between atoms: N_14  and  C_15
REMARK    8  A    between atoms: N_14  and  C_16
REMARK                            x       y       z     vdW  Elec       q    Type
REMARK                         _______ _______ _______ _____ _____    ______ ____
ROOT
ATOM      1  N   UNL     1       3.040   2.399  17.920  0.00  0.00    +0.000 NA
ATOM      2  C   UNL     1       3.467   3.306  16.832  0.00  0.00    +0.000 C 
ATOM      3  C   UNL     1       3.739   4.760  17.276  0.00  0.00    +0.000 C 
ATOM      4  N   UNL     1       4.723   4.779  18.353  0.00  0.00    +0.000 N 
ATOM      5  C   UNL     1       5.820   5.588  18.327  0.00  0.00    +0.000 A 
ATOM      6  N   UNL     1       6.909   5.333  19.020  0.00  0.00    +0.000 NA
ATOM      7  C   UNL     1       7.873   6.295  18.795  0.00  0.00    +0.000 A 
ATOM      8  C   UNL     1       7.493   7.328  17.975  0.00  0.00    +0.000 A 
ATOM      9  S   UNL     1       5.906   7.047  17.407  0.00  0.00    +0.000 S 
ATOM     10  C   UNL     1       4.543   3.830  19.458  0.00  0.00    +0.000 C 
ATOM     11  C   UNL     1       4.097   2.433  18.964  0.00  0.00    +0.000 C 
ENDROOT
BRANCH   1  12
ATOM     12  C   UNL     1       1.723   2.743  18.476  0.00  0.00    +0.000 C 
BRANCH  12  14
ATOM     13  C   UNL     1       1.116   3.480  20.858  0.00  0.00    +0.000 C 
ATOM     14  C   UNL     1       1.527   2.332  19.946  0.00  0.00    +0.000 C 
ENDBRANCH  12  14
ENDBRANCH   1  12
BRANCH   8  15
ATOM     15  C   UNL     1       8.236   8.565  17.591  0.00  0.00    +0.000 C 
BRANCH  15  16
ATOM     16  C   UNL     1       8.740   9.297  18.848  0.00  0.00    +0.000 C 
BRANCH  16  17
ATOM     17  N   UNL     1       9.492  10.538  18.580  0.00  0.00    +0.000 NA
ATOM     18  C   UNL     1       8.681  11.528  17.867  0.00  0.00    +0.000 C 
ATOM     19  C   UNL     1       9.950  11.108  19.852  0.00  0.00    +0.000 C 
ENDBRANCH  16  17
ENDBRANCH  15  16
ENDBRANCH   8  15
TORSDOF 5
ENDMDL
MODEL 2
REMARK VINA RESULT:      -5.7      5.101      6.807
REMARK  Name = 
REMARK  8 active torsions:
REMARK  status: ('A' for Active; 'I' for Inactive)
REMARK    1  A    between atoms: C_1  and  C_2
REMARK    2  A    between atoms: C_2  and  C_3
REMARK    3  A    between atoms: C_3  and  N_4
REMARK    4  A    between atoms: C_11  and  C_12
REMARK    5  A    between atoms: C_12  and  C_13
REMARK    6  A    between atoms: C_13  and  N_14
REMARK    7  A    between atoms: N_14  and  C_15
REMARK    8  A    between atoms: N_14  and  C_16
REMARK                            x       y       z     vdW  Elec       q    Type
REMARK                         _______ _______ _______ _____ _____    ______ ____
ROOT
ATOM      1  N   UNL     1       5.949   4.781  17.523  0.00  0.00    +0.000 NA
ATOM      2  C   UNL     1       5.905   6.245  17.312  0.00  0.00    +0.000 C 
ATOM      3  C   UNL     1       4.504   6.808  16.990  0.00  0.00    +0.000 C 
ATOM      4  N   UNL     1       3.559   6.430  18.035  0.00  0.00    +0.000 N 
ATOM      5  C   UNL     1       2.739   7.334  18.642  0.00  0.00    +0.000 A 
ATOM      6  N   UNL     1       2.219   7.135  19.834  0.00  0.00    +0.000 NA
ATOM      7  C   UNL     1       1.450   8.214  20.221  0.00  0.00    +0.000 A 
ATOM      8  C   UNL     1       1.327   9.215  19.290  0.00  0.00    +0.000 A 
ATOM      9  S   UNL     1       2.267   8.828  17.917  0.00  0.00    +0.000 S 
ATOM     10  C   UNL     1       3.564   5.033  18.485  0.00  0.00    +0.000 C 
ATOM     11  C   UNL     1       4.997   4.466  18.621  0.00  0.00    +0.000 C 
ENDROOT
BRANCH   1  12
ATOM     12  C   UNL     1       5.642   4.013  16.308  0.00  0.00    +0.000 C 
BRANCH  12  14
ATOM     13  C   UNL     1       6.013   3.908  13.770  0.00  0.00    +0.000 C 
ATOM     14  C   UNL     1       6.592   4.284  15.127  0.00  0.00    +0.000 C 
ENDBRANCH  12  14
ENDBRANCH   1  12
BRANCH   8  15
ATOM     15  C   UNL     1       0.514  10.466  19.334  0.00  0.00    +0.000 C 
BRANCH  15  16
ATOM     16  C   UNL     1      -0.898  10.205  18.779  0.00  0.00    +0.000 C 
BRANCH  16  17
ATOM     17  N   UNL     1      -1.445  11.294  17.946  0.00  0.00    +0.000 NA
ATOM     18  C   UNL     1      -2.907  11.245  17.868  0.00  0.00    +0.000 C 
ATOM     19  C   UNL     1      -1.029  12.585  18.507  0.00  0.00    +0.000 C 
ENDBRANCH  16  17
ENDBRANCH  15  16
ENDBRANCH   8  15
TORSDOF 5
ENDMDL
MODEL 3
REMARK VINA RESULT:      -5.7      4.461      6.453
REMARK  Name = 
REMARK  8 active torsions:
REMARK  status: ('A' for Active; 'I' for Inactive)
REMARK    1  A    between atoms: C_1  and  C_2
REMARK    2  A    between atoms: C_2  and  C_3
REMARK    3  A    between atoms: C_3  and  N_4
REMARK    4  A    between atoms: C_11  and  C_12
REMARK    5  A    between atoms: C_12  and  C_13
REMARK    6  A    between atoms: C_13  and  N_14
REMARK    7  A    between atoms: N_14  and  C_15
REMARK    8  A    between atoms: N_14  and  C_16
REMARK                            x       y       z     vdW  Elec       q    Type
REMARK                         _______ _______ _______ _____ _____    ______ ____
ROOT
ATOM      1  N   UNL     1       6.393   4.416  16.036  0.00  0.00    +0.000 NA
ATOM      2  C   UNL     1       6.321   5.868  16.308  0.00  0.00    +0.000 C 
ATOM      3  C   UNL     1       4.892   6.453  16.311  0.00  0.00    +0.000 C 
ATOM      4  N   UNL     1       4.057   5.730  17.263  0.00  0.00    +0.000 N 
ATOM      5  C   UNL     1       3.295   6.365  18.198  0.00  0.00    +0.000 A 
ATOM      6  N   UNL     1       2.895   5.780  19.306  0.00  0.00    +0.000 NA
ATOM      7  C   UNL     1       2.161   6.651  20.086  0.00  0.00    +0.000 A 
ATOM      8  C   UNL     1       1.943   7.890  19.538  0.00  0.00    +0.000 A 
ATOM      9  S   UNL     1       2.747   7.994  18.034  0.00  0.00    +0.000 S 
ATOM     10  C   UNL     1       4.112   4.263  17.241  0.00  0.00    +0.000 C 
ATOM     11  C   UNL     1       5.555   3.734  17.058  0.00  0.00    +0.000 C 
ENDROOT
BRANCH   1  12
ATOM     12  C   UNL     1       5.973   4.062  14.672  0.00  0.00    +0.000 C 
BRANCH  12  14
ATOM     13  C   UNL     1       6.749   3.801  12.239  0.00  0.00    +0.000 C 
ATOM     14  C   UNL     1       6.945   4.517  13.569  0.00  0.00    +0.000 C 
ENDBRANCH  12  14
ENDBRANCH   1  12
BRANCH   8  15
ATOM     15  C   UNL     1       1.132   9.033  20.053  0.00  0.00    +0.000 C 
BRANCH  15  16
ATOM     16  C   UNL     1       1.021   8.960  21.587  0.00  0.00    +0.000 C 
BRANCH  16  17
ATOM     17  N   UNL     1       0.632  10.226  22.238  0.00  0.00    +0.000 NA
ATOM     18  C   UNL     1       0.318  11.273  21.262  0.00  0.00    +0.000 C 
ATOM     19  C   UNL     1      -0.538   9.989  23.091  0.00  0.00    +0.000 C 
ENDBRANCH  16  17
ENDBRANCH  15  16
ENDBRANCH   8  15
TORSDOF 5
ENDMDL
MODEL 4
REMARK VINA RESULT:      -5.6      4.833      6.016
REMARK  Name = 
REMARK  8 active torsions:
REMARK  status: ('A' for Active; 'I' for Inactive)
REMARK    1  A    between atoms: C_1  and  C_2
REMARK    2  A    between atoms: C_2  and  C_3
REMARK    3  A    between atoms: C_3  and  N_4
REMARK    4  A    between atoms: C_11  and  C_12
REMARK    5  A    between atoms: C_12  and  C_13
REMARK    6  A    between atoms: C_13  and  N_14
REMARK    7  A    between atoms: N_14  and  C_15
REMARK    8  A    between atoms: N_14  and  C_16
REMARK                            x       y       z     vdW  Elec       q    Type
REMARK                         _______ _______ _______ _____ _____    ______ ____
ROOT
ATOM      1  N   UNL     1       6.031   4.900  17.508  0.00  0.00    +0.000 NA
ATOM      2  C   UNL     1       5.869   6.336  17.194  0.00  0.00    +0.000 C 
ATOM      3  C   UNL     1       4.413   6.779  16.936  0.00  0.00    +0.000 C 
ATOM      4  N   UNL     1       3.572   6.424  18.072  0.00  0.00    +0.000 N 
ATOM      5  C   UNL     1       2.733   7.317  18.670  0.00  0.00    +0.000 A 
ATOM      6  N   UNL     1       2.311   7.178  19.908  0.00  0.00    +0.000 NA
ATOM      7  C   UNL     1       1.495   8.230  20.271  0.00  0.00    +0.000 A 
ATOM      8  C   UNL     1       1.239   9.145  19.281  0.00  0.00    +0.000 A 
ATOM      9  S   UNL     1       2.108   8.716  17.874  0.00  0.00    +0.000 S 
ATOM     10  C   UNL     1       3.706   5.069  18.622  0.00  0.00    +0.000 C 
ATOM     11  C   UNL     1       5.182   4.609  18.693  0.00  0.00    +0.000 C 
ENDROOT
BRANCH   1  12
ATOM     12  C   UNL     1       5.697   4.020  16.378  0.00  0.00    +0.000 C 
BRANCH  12  14
ATOM     13  C   UNL     1       5.898   4.050  13.819  0.00  0.00    +0.000 C 
ATOM     14  C   UNL     1       6.618   4.179  15.155  0.00  0.00    +0.000 C 
ENDBRANCH  12  14
ENDBRANCH   1  12
BRANCH   8  15
ATOM     15  C   UNL     1       0.344  10.340  19.293  0.00  0.00    +0.000 C 
BRANCH  15  16
ATOM     16  C   UNL     1       1.152  11.609  19.619  0.00  0.00    +0.000 C 
BRANCH  16  17
ATOM     17  N   UNL     1       1.197  12.608  18.533  0.00  0.00    +0.000 NA
ATOM     18  C   UNL     1       0.065  13.537  18.594  0.00  0.00    +0.000 C 
ATOM     19  C   UNL     1       2.452  13.363  18.626  0.00  0.00    +0.000 C 
ENDBRANCH  16  17
ENDBRANCH  15  16
ENDBRANCH   8  15
TORSDOF 5
ENDMDL
MODEL 5
REMARK VINA RESULT:      -5.6      5.268      6.711
REMARK  Name = 
REMARK  8 active torsions:
REMARK  status: ('A' for Active; 'I' for Inactive)
REMARK    1  A    between atoms: C_1  and  C_2
REMARK    2  A    between atoms: C_2  and  C_3
REMARK    3  A    between atoms: C_3  and  N_4
REMARK    4  A    between atoms: C_11  and  C_12
REMARK    5  A    between atoms: C_12  and  C_13
REMARK    6  A    between atoms: C_13  and  N_14
REMARK    7  A    between atoms: N_14  and  C_15
REMARK    8  A    between atoms: N_14  and  C_16
REMARK                            x       y       z     vdW  Elec       q    Type
REMARK                         _______ _______ _______ _____ _____    ______ ____
ROOT
ATOM      1  N   UNL     1      -0.596  10.303  20.498  0.00  0.00    +0.000 NA
ATOM      2  C   UNL     1      -0.252  10.028  19.086  0.00  0.00    +0.000 C 
ATOM      3  C   UNL     1       1.234   9.689  18.839  0.00  0.00    +0.000 C 
ATOM      4  N   UNL     1       1.637   8.563  19.675  0.00  0.00    +0.000 N 
ATOM      5  C   UNL     1       2.291   7.477  19.175  0.00  0.00    +0.000 A 
ATOM      6  N   UNL     1       2.279   6.303  19.769  0.00  0.00    +0.000 NA
ATOM      7  C   UNL     1       2.997   5.376  19.041  0.00  0.00    +0.000 A 
ATOM      8  C   UNL     1       3.618   5.862  17.917  0.00  0.00    +0.000 A 
ATOM      9  S   UNL     1       3.227   7.514  17.724  0.00  0.00    +0.000 S 
ATOM     10  C   UNL     1       1.247   8.592  21.090  0.00  0.00    +0.000 C 
ATOM     11  C   UNL     1      -0.197   9.109  21.290  0.00  0.00    +0.000 C 
ENDROOT
BRANCH   1  12
ATOM     12  C   UNL     1       0.031  11.527  21.018  0.00  0.00    +0.000 C 
BRANCH  12  14
ATOM     13  C   UNL     1      -1.983  12.735  22.053  0.00  0.00    +0.000 C 
ATOM     14  C   UNL     1      -0.627  12.085  22.292  0.00  0.00    +0.000 C 
ENDBRANCH  12  14
ENDBRANCH   1  12
BRANCH   8  15
ATOM     15  C   UNL     1       4.533   5.174  16.959  0.00  0.00    +0.000 C 
BRANCH  15  16
ATOM     16  C   UNL     1       5.350   6.209  16.164  0.00  0.00    +0.000 C 
BRANCH  16  17
ATOM     17  N   UNL     1       6.813   6.094  16.322  0.00  0.00    +0.000 NA
ATOM     18  C   UNL     1       7.316   6.936  17.410  0.00  0.00    +0.000 C 
ATOM     19  C   UNL     1       7.160   4.693  16.590  0.00  0.00    +0.000 C 
ENDBRANCH  16  17
ENDBRANCH  15  16
ENDBRANCH   8  15
TORSDOF 5
ENDMDL
MODEL 6
REMARK VINA RESULT:      -5.5      4.328      6.500
REMARK  Name = 
REMARK  8 active torsions:
REMARK  status: ('A' for Active; 'I' for Inactive)
REMARK    1  A    between atoms: C_1  and  C_2
REMARK    2  A    between atoms: C_2  and  C_3
REMARK    3  A    between atoms: C_3  and  N_4
REMARK    4  A    between atoms: C_11  and  C_12
REMARK    5  A    between atoms: C_12  and  C_13
REMARK    6  A    between atoms: C_13  and  N_14
REMARK    7  A    between atoms: N_14  and  C_15
REMARK    8  A    between atoms: N_14  and  C_16
REMARK                            x       y       z     vdW  Elec       q    Type
REMARK                         _______ _______ _______ _____ _____    ______ ____
ROOT
ATOM      1  N   UNL     1       6.141   4.989  16.133  0.00  0.00    +0.000 NA
ATOM      2  C   UNL     1       6.041   6.295  16.821  0.00  0.00    +0.000 C 
ATOM      3  C   UNL     1       4.602   6.830  16.982  0.00  0.00    +0.000 C 
ATOM      4  N   UNL     1       3.774   5.845  17.668  0.00  0.00    +0.000 N 
ATOM      5  C   UNL     1       2.996   6.163  18.741  0.00  0.00    +0.000 A 
ATOM      6  N   UNL     1       2.601   5.270  19.623  0.00  0.00    +0.000 NA
ATOM      7  C   UNL     1       1.847   5.860  20.617  0.00  0.00    +0.000 A 
ATOM      8  C   UNL     1       1.610   7.203  20.458  0.00  0.00    +0.000 A 
ATOM      9  S   UNL     1       2.419   7.758  19.060  0.00  0.00    +0.000 S 
ATOM     10  C   UNL     1       3.857   4.451  17.215  0.00  0.00    +0.000 C 
ATOM     11  C   UNL     1       5.310   4.022  16.899  0.00  0.00    +0.000 C 
ENDROOT
BRANCH   1  12
ATOM     12  C   UNL     1       5.734   5.047  14.721  0.00  0.00    +0.000 C 
BRANCH  12  14
ATOM     13  C   UNL     1       5.478   3.465  12.716  0.00  0.00    +0.000 C 
ATOM     14  C   UNL     1       6.385   3.975  13.828  0.00  0.00    +0.000 C 
ENDBRANCH  12  14
ENDBRANCH   1  12
BRANCH   8  15
ATOM     15  C   UNL     1       0.775   8.129  21.279  0.00  0.00    +0.000 C 
BRANCH  15  16
ATOM     16  C   UNL     1       0.363   9.356  20.447  0.00  0.00    +0.000 C 
BRANCH  16  17
ATOM     17  N   UNL     1      -0.212  10.468  21.229  0.00  0.00    +0.000 NA
ATOM     18  C   UNL     1      -0.322  10.139  22.652  0.00  0.00    +0.000 C 
ATOM     19  C   UNL     1       0.632  11.658  21.067  0.00  0.00    +0.000 C 
ENDBRANCH  16  17
ENDBRANCH  15  16
ENDBRANCH   8  15
TORSDOF 5
ENDMDL
MODEL 7
REMARK VINA RESULT:      -5.5      5.284      7.992
REMARK  Name = 
REMARK  8 active torsions:
REMARK  status: ('A' for Active; 'I' for Inactive)
REMARK    1  A    between atoms: C_1  and  C_2
REMARK    2  A    between atoms: C_2  and  C_3
REMARK    3  A    between atoms: C_3  and  N_4
REMARK    4  A    between atoms: C_11  and  C_12
REMARK    5  A    between atoms: C_12  and  C_13
REMARK    6  A    between atoms: C_13  and  N_14
REMARK    7  A    between atoms: N_14  and  C_15
REMARK    8  A    between atoms: N_14  and  C_16
REMARK                            x       y       z     vdW  Elec       q    Type
REMARK                         _______ _______ _______ _____ _____    ______ ____
ROOT
ATOM      1  N   UNL     1       0.623  11.334  19.948  0.00  0.00    +0.000 NA
ATOM      2  C   UNL     1       1.121  10.326  20.910  0.00  0.00    +0.000 C 
ATOM      3  C   UNL     1       0.916   8.860  20.470  0.00  0.00    +0.000 C 
ATOM      4  N   UNL     1       1.522   8.639  19.163  0.00  0.00    +0.000 N 
ATOM      5  C   UNL     1       2.366   7.597  18.914  0.00  0.00    +0.000 A 
ATOM      6  N   UNL     1       3.241   7.609  17.933  0.00  0.00    +0.000 NA
ATOM      7  C   UNL     1       3.983   6.445  17.919  0.00  0.00    +0.000 A 
ATOM      8  C   UNL     1       3.624   5.509  18.857  0.00  0.00    +0.000 A 
ATOM      9  S   UNL     1       2.372   6.137  19.835  0.00  0.00    +0.000 S 
ATOM     10  C   UNL     1       1.258   9.630  18.113  0.00  0.00    +0.000 C 
ATOM     11  C   UNL     1       1.304  11.080  18.651  0.00  0.00    +0.000 C 
ENDROOT
BRANCH   1  12
ATOM     12  C   UNL     1      -0.840  11.318  19.800  0.00  0.00    +0.000 C 
BRANCH  12  14
ATOM     13  C   UNL     1      -2.369  11.468  17.744  0.00  0.00    +0.000 C 
ATOM     14  C   UNL     1      -1.371  12.184  18.644  0.00  0.00    +0.000 C 
ENDBRANCH  12  14
ENDBRANCH   1  12
BRANCH   8  15
ATOM     15  C   UNL     1       4.142   4.124  19.069  0.00  0.00    +0.000 C 
BRANCH  15  16
ATOM     16  C   UNL     1       3.161   3.315  19.936  0.00  0.00    +0.000 C 
BRANCH  16  17
ATOM     17  N   UNL     1       2.461   2.227  19.225  0.00  0.00    +0.000 NA
ATOM     18  C   UNL     1       1.101   2.611  18.839  0.00  0.00    +0.000 C 
ATOM     19  C   UNL     1       3.225   1.867  18.025  0.00  0.00    +0.000 C 
ENDBRANCH  16  17
ENDBRANCH  15  16
ENDBRANCH   8  15
TORSDOF 5
ENDMDL
MODEL 8
REMARK VINA RESULT:      -5.4      5.174      6.331
REMARK  Name = 
REMARK  8 active torsions:
REMARK  status: ('A' for Active; 'I' for Inactive)
REMARK    1  A    between atoms: C_1  and  C_2
REMARK    2  A    between atoms: C_2  and  C_3
REMARK    3  A    between atoms: C_3  and  N_4
REMARK    4  A    between atoms: C_11  and  C_12
REMARK    5  A    between atoms: C_12  and  C_13
REMARK    6  A    between atoms: C_13  and  N_14
REMARK    7  A    between atoms: N_14  and  C_15
REMARK    8  A    between atoms: N_14  and  C_16
REMARK                            x       y       z     vdW  Elec       q    Type
REMARK                         _______ _______ _______ _____ _____    ______ ____
ROOT
ATOM      1  N   UNL     1       5.431   5.354  17.736  0.00  0.00    +0.000 NA
ATOM      2  C   UNL     1       5.257   6.793  17.438  0.00  0.00    +0.000 C 
ATOM      3  C   UNL     1       3.789   7.244  17.277  0.00  0.00    +0.000 C 
ATOM      4  N   UNL     1       3.022   6.888  18.466  0.00  0.00    +0.000 N 
ATOM      5  C   UNL     1       2.229   7.784  19.120  0.00  0.00    +0.000 A 
ATOM      6  N   UNL     1       1.889   7.643  20.383  0.00  0.00    +0.000 NA
ATOM      7  C   UNL     1       1.105   8.698  20.803  0.00  0.00    +0.000 A 
ATOM      8  C   UNL     1       0.788   9.618  19.834  0.00  0.00    +0.000 A 
ATOM      9  S   UNL     1       1.561   9.188  18.372  0.00  0.00    +0.000 S 
ATOM     10  C   UNL     1       3.186   5.531  19.001  0.00  0.00    +0.000 C 
ATOM     11  C   UNL     1       4.660   5.064  18.974  0.00  0.00    +0.000 C 
ENDROOT
BRANCH   1  12
ATOM     12  C   UNL     1       5.019   4.480  16.628  0.00  0.00    +0.000 C 
BRANCH  12  14
ATOM     13  C   UNL     1       6.262   3.897  14.459  0.00  0.00    +0.000 C 
ATOM     14  C   UNL     1       5.487   4.951  15.239  0.00  0.00    +0.000 C 
ENDBRANCH  12  14
ENDBRANCH   1  12
BRANCH   8  15
ATOM     15  C   UNL     1      -0.098  10.817  19.909  0.00  0.00    +0.000 C 
BRANCH  15  16
ATOM     16  C   UNL     1       0.683  12.024  20.461  0.00  0.00    +0.000 C 
BRANCH  16  17
ATOM     17  N   UNL     1       0.843  13.142  19.511  0.00  0.00    +0.000 NA
ATOM     18  C   UNL     1       2.172  13.151  18.893  0.00  0.00    +0.000 C 
ATOM     19  C   UNL     1      -0.180  13.035  18.465  0.00  0.00    +0.000 C 
ENDBRANCH  16  17
ENDBRANCH  15  16
ENDBRANCH   8  15
TORSDOF 5
ENDMDL
MODEL 9
REMARK VINA RESULT:      -5.4      4.438      6.512
REMARK  Name = 
REMARK  8 active torsions:
REMARK  status: ('A' for Active; 'I' for Inactive)
REMARK    1  A    between atoms: C_1  and  C_2
REMARK    2  A    between atoms: C_2  and  C_3
REMARK    3  A    between atoms: C_3  and  N_4
REMARK    4  A    between atoms: C_11  and  C_12
REMARK    5  A    between atoms: C_12  and  C_13
REMARK    6  A    between atoms: C_13  and  N_14
REMARK    7  A    between atoms: N_14  and  C_15
REMARK    8  A    between atoms: N_14  and  C_16
REMARK                            x       y       z     vdW  Elec       q    Type
REMARK                         _______ _______ _______ _____ _____    ______ ____
ROOT
ATOM      1  N   UNL     1       5.587   4.208  16.519  0.00  0.00    +0.000 NA
ATOM      2  C   UNL     1       5.688   5.604  16.998  0.00  0.00    +0.000 C 
ATOM      3  C   UNL     1       4.344   6.361  17.068  0.00  0.00    +0.000 C 
ATOM      4  N   UNL     1       3.395   5.622  17.893  0.00  0.00    +0.000 N 
ATOM      5  C   UNL     1       2.689   6.210  18.900  0.00  0.00    +0.000 A 
ATOM      6  N   UNL     1       2.184   5.529  19.906  0.00  0.00    +0.000 NA
ATOM      7  C   UNL     1       1.541   6.366  20.794  0.00  0.00    +0.000 A 
ATOM      8  C   UNL     1       1.496   7.689  20.429  0.00  0.00    +0.000 A 
ATOM      9  S   UNL     1       2.354   7.902  18.967  0.00  0.00    +0.000 S 
ATOM     10  C   UNL     1       3.268   4.179  17.658  0.00  0.00    +0.000 C 
ATOM     11  C   UNL     1       4.638   3.501  17.419  0.00  0.00    +0.000 C 
ENDROOT
BRANCH   1  12
ATOM     12  C   UNL     1       5.169   4.109  15.113  0.00  0.00    +0.000 C 
BRANCH  12  14
ATOM     13  C   UNL     1       6.059   3.602  12.759  0.00  0.00    +0.000 C 
ATOM     14  C   UNL     1       6.312   4.284  14.097  0.00  0.00    +0.000 C 
ENDBRANCH  12  14
ENDBRANCH   1  12
BRANCH   8  15
ATOM     15  C   UNL     1       0.818   8.841  21.095  0.00  0.00    +0.000 C 
BRANCH  15  16
ATOM     16  C   UNL     1       0.699  10.026  20.120  0.00  0.00    +0.000 C 
BRANCH  16  17
ATOM     17  N   UNL     1      -0.670  10.294  19.637  0.00  0.00    +0.000 NA
ATOM     18  C   UNL     1      -1.196  11.560  20.152  0.00  0.00    +0.000 C 
ATOM     19  C   UNL     1      -0.666  10.328  18.170  0.00  0.00    +0.000 C 
ENDBRANCH  16  17
ENDBRANCH  15  16
ENDBRANCH   8  15
TORSDOF 5
ENDMDL
