MODEL 1
REMARK VINA RESULT:      -8.0      0.000      0.000
REMARK  Name = 
REMARK  8 active torsions:
REMARK  status: ('A' for Active; 'I' for Inactive)
REMARK    1  A    between atoms: C_1  and  C_2
REMARK    2  A    between atoms: C_2  and  C_3
REMARK    3  A    between atoms: C_3  and  C_4
REMARK    4  A    between atoms: C_6  and  C_7
REMARK    5  A    between atoms: C_14  and  C_15
REMARK    6  A    between atoms: N_17  and  C_18
REMARK    7  A    between atoms: C_22  and  C_23
REMARK    8  A    between atoms: C_31  and  C_32
REMARK                            x       y       z     vdW  Elec       q    Type
REMARK                         _______ _______ _______ _____ _____    ______ ____
ROOT
ATOM      1  C   UNL     1       0.588  10.498  19.361  0.00  0.00    +0.000 C 
ATOM      2  O   UNL     1      -0.321  10.671  18.552  0.00  0.00    +0.000 OA
ATOM      3  N   UNL     1       1.022  11.494  20.184  0.00  0.00    +0.000 N 
ATOM      4  H   UNL     1       1.842  11.337  20.766  0.00  0.00    +0.000 HD
ENDROOT
BRANCH   3   5
ATOM      5  C   UNL     1       0.537  12.862  20.096  0.00  0.00    +0.000 C 
ATOM      6  C   UNL     1      -0.533  13.086  21.127  0.00  0.00    +0.000 A 
ATOM      7  C   UNL     1      -1.809  12.529  20.956  0.00  0.00    +0.000 A 
ATOM      8  C   UNL     1      -2.796  12.699  21.924  0.00  0.00    +0.000 A 
ATOM      9  C   UNL     1      -2.525  13.436  23.079  0.00  0.00    +0.000 A 
ATOM     10  C   UNL     1      -3.589  13.621  24.119  0.00  0.00    +0.000 C 
ATOM     11  C   UNL     1      -1.246  13.994  23.251  0.00  0.00    +0.000 A 
ATOM     12  C   UNL     1      -0.255  13.818  22.279  0.00  0.00    +0.000 A 
ATOM     13  O   UNL     1       0.976  14.379  22.528  0.00  0.00    +0.000 OA
ATOM     14  C   UNL     1       1.903  14.414  21.510  0.00  0.00    +0.000 A 
ATOM     15  C   UNL     1       3.085  15.109  21.775  0.00  0.00    +0.000 A 
ATOM     16  C   UNL     1       4.074  15.211  20.798  0.00  0.00    +0.000 A 
ATOM     17  C   UNL     1       3.869  14.652  19.537  0.00  0.00    +0.000 A 
ATOM     18  C   UNL     1       2.695  13.938  19.254  0.00  0.00    +0.000 A 
ATOM     19  C   UNL     1       2.499  13.371  17.874  0.00  0.00    +0.000 C 
ATOM     20  C   UNL     1       1.717  13.791  20.268  0.00  0.00    +0.000 A 
ENDBRANCH   3   5
BRANCH   1  27
ATOM     21  C   UNL     1       1.441   8.520  20.618  0.00  0.00    +0.000 A 
ATOM     22  C   UNL     1       2.035   7.184  20.633  0.00  0.00    +0.000 A 
ATOM     23  C   UNL     1       2.520   6.614  19.516  0.00  0.00    +0.000 A 
ATOM     24  N   UNL     1       2.487   7.341  18.344  0.00  0.00    +0.000 N 
ATOM     25  C   UNL     1       1.963   8.602  18.223  0.00  0.00    +0.000 A 
ATOM     26  O   UNL     1       2.026   9.195  17.150  0.00  0.00    +0.000 OA
ATOM     27  C   UNL     1       1.339   9.204  19.449  0.00  0.00    +0.000 A 
ATOM     28  H   UNL     1       2.882   6.944  17.495  0.00  0.00    +0.000 HD
BRANCH  23  29
ATOM     29  C   UNL     1       3.087   5.214  19.480  0.00  0.00    +0.000 C 
ATOM     30  F   UNL     1       4.410   5.206  19.791  0.00  0.00    +0.000 F 
ATOM     31  F   UNL     1       2.468   4.391  20.360  0.00  0.00    +0.000 F 
ATOM     32  F   UNL     1       2.967   4.653  18.251  0.00  0.00    +0.000 F 
ENDBRANCH  23  29
BRANCH  21  33
ATOM     33  C   UNL     1       1.035   9.046  21.984  0.00  0.00    +0.000 C 
BRANCH  33  35
ATOM     34  C   UNL     1      -0.894  10.009  23.288  0.00  0.00    +0.000 C 
ATOM     35  C   UNL     1      -0.470   8.966  22.261  0.00  0.00    +0.000 C 
ENDBRANCH  33  35
ENDBRANCH  21  33
ENDBRANCH   1  27
TORSDOF 5
ENDMDL
MODEL 2
REMARK VINA RESULT:      -7.2      4.126      6.441
REMARK  Name = 
REMARK  8 active torsions:
REMARK  status: ('A' for Active; 'I' for Inactive)
REMARK    1  A    between atoms: C_1  and  C_2
REMARK    2  A    between atoms: C_2  and  C_3
REMARK    3  A    between atoms: C_3  and  C_4
REMARK    4  A    between atoms: C_6  and  C_7
REMARK    5  A    between atoms: C_14  and  C_15
REMARK    6  A    between atoms: N_17  and  C_18
REMARK    7  A    between atoms: C_22  and  C_23
REMARK    8  A    between atoms: C_31  and  C_32
REMARK                            x       y       z     vdW  Elec       q    Type
REMARK                         _______ _______ _______ _____ _____    ______ ____
ROOT
ATOM      1  C   UNL     1       0.987  12.420  20.524  0.00  0.00    +0.000 C 
ATOM      2  O   UNL     1       1.269  11.584  21.380  0.00  0.00    +0.000 OA
ATOM      3  N   UNL     1      -0.261  12.505  19.981  0.00  0.00    +0.000 N 
ATOM      4  H   UNL     1      -0.423  13.143  19.205  0.00  0.00    +0.000 HD
ENDROOT
BRANCH   3   5
ATOM      5  C   UNL     1      -1.319  11.553  20.275  0.00  0.00    +0.000 C 
ATOM      6  C   UNL     1      -2.309  12.174  21.220  0.00  0.00    +0.000 A 
ATOM      7  C   UNL     1      -1.979  12.359  22.571  0.00  0.00    +0.000 A 
ATOM      8  C   UNL     1      -2.875  12.968  23.446  0.00  0.00    +0.000 A 
ATOM      9  C   UNL     1      -4.121  13.398  22.986  0.00  0.00    +0.000 A 
ATOM     10  C   UNL     1      -5.086  14.051  23.930  0.00  0.00    +0.000 C 
ATOM     11  C   UNL     1      -4.453  13.214  21.632  0.00  0.00    +0.000 A 
ATOM     12  C   UNL     1      -3.549  12.606  20.754  0.00  0.00    +0.000 A 
ATOM     13  O   UNL     1      -3.938  12.478  19.441  0.00  0.00    +0.000 OA
ATOM     14  C   UNL     1      -3.176  11.697  18.600  0.00  0.00    +0.000 A 
ATOM     15  C   UNL     1      -3.685  11.494  17.315  0.00  0.00    +0.000 A 
ATOM     16  C   UNL     1      -2.990  10.706  16.400  0.00  0.00    +0.000 A 
ATOM     17  C   UNL     1      -1.801  10.083  16.779  0.00  0.00    +0.000 A 
ATOM     18  C   UNL     1      -1.265  10.284  18.059  0.00  0.00    +0.000 A 
ATOM     19  C   UNL     1       0.007   9.574  18.439  0.00  0.00    +0.000 C 
ATOM     20  C   UNL     1      -1.948  11.130  18.967  0.00  0.00    +0.000 A 
ENDBRANCH   3   5
BRANCH   1  27
ATOM     21  C   UNL     1       2.392  14.478  20.617  0.00  0.00    +0.000 A 
ATOM     22  C   UNL     1       3.510  15.277  20.117  0.00  0.00    +0.000 A 
ATOM     23  C   UNL     1       4.164  14.947  18.990  0.00  0.00    +0.000 A 
ATOM     24  N   UNL     1       3.726  13.851  18.276  0.00  0.00    +0.000 N 
ATOM     25  C   UNL     1       2.685  13.043  18.650  0.00  0.00    +0.000 A 
ATOM     26  O   UNL     1       2.330  12.119  17.924  0.00  0.00    +0.000 OA
ATOM     27  C   UNL     1       2.012  13.354  19.956  0.00  0.00    +0.000 A 
ATOM     28  H   UNL     1       4.183  13.606  17.401  0.00  0.00    +0.000 HD
BRANCH  23  29
ATOM     29  C   UNL     1       5.360  15.713  18.473  0.00  0.00    +0.000 C 
ATOM     30  F   UNL     1       5.851  15.158  17.332  0.00  0.00    +0.000 F 
ATOM     31  F   UNL     1       5.055  17.002  18.186  0.00  0.00    +0.000 F 
ATOM     32  F   UNL     1       6.375  15.729  19.371  0.00  0.00    +0.000 F 
ENDBRANCH  23  29
BRANCH  21  33
ATOM     33  C   UNL     1       1.710  15.049  21.848  0.00  0.00    +0.000 C 
BRANCH  33  35
ATOM     34  C   UNL     1      -0.656  15.774  22.324  0.00  0.00    +0.000 C 
ATOM     35  C   UNL     1       0.614  16.073  21.536  0.00  0.00    +0.000 C 
ENDBRANCH  33  35
ENDBRANCH  21  33
ENDBRANCH   1  27
TORSDOF 5
ENDMDL
MODEL 3
REMARK VINA RESULT:      -7.1      4.407      7.724
REMARK  Name = 
REMARK  8 active torsions:
REMARK  status: ('A' for Active; 'I' for Inactive)
REMARK    1  A    between atoms: C_1  and  C_2
REMARK    2  A    between atoms: C_2  and  C_3
REMARK    3  A    between atoms: C_3  and  C_4
REMARK    4  A    between atoms: C_6  and  C_7
REMARK    5  A    between atoms: C_14  and  C_15
REMARK    6  A    between atoms: N_17  and  C_18
REMARK    7  A    between atoms: C_22  and  C_23
REMARK    8  A    between atoms: C_31  and  C_32
REMARK                            x       y       z     vdW  Elec       q    Type
REMARK                         _______ _______ _______ _____ _____    ______ ____
ROOT
ATOM      1  C   UNL     1       1.065  13.347  18.791  0.00  0.00    +0.000 C 
ATOM      2  O   UNL     1       0.251  13.416  17.873  0.00  0.00    +0.000 OA
ATOM      3  N   UNL     1       1.147  12.255  19.602  0.00  0.00    +0.000 N 
ATOM      4  H   UNL     1       1.765  12.281  20.410  0.00  0.00    +0.000 HD
ENDROOT
BRANCH   3   5
ATOM      5  C   UNL     1       0.213  11.143  19.531  0.00  0.00    +0.000 C 
ATOM      6  C   UNL     1       0.963   9.871  19.249  0.00  0.00    +0.000 A 
ATOM      7  C   UNL     1       1.489   9.626  17.971  0.00  0.00    +0.000 A 
ATOM      8  C   UNL     1       2.218   8.469  17.711  0.00  0.00    +0.000 A 
ATOM      9  C   UNL     1       2.428   7.530  18.723  0.00  0.00    +0.000 A 
ATOM     10  C   UNL     1       3.210   6.283  18.440  0.00  0.00    +0.000 C 
ATOM     11  C   UNL     1       1.902   7.774  20.004  0.00  0.00    +0.000 A 
ATOM     12  C   UNL     1       1.173   8.940  20.265  0.00  0.00    +0.000 A 
ATOM     13  O   UNL     1       0.707   9.116  21.546  0.00  0.00    +0.000 OA
ATOM     14  C   UNL     1      -0.191  10.134  21.788  0.00  0.00    +0.000 A 
ATOM     15  C   UNL     1      -0.732  10.187  23.074  0.00  0.00    +0.000 A 
ATOM     16  C   UNL     1      -1.660  11.174  23.405  0.00  0.00    +0.000 A 
ATOM     17  C   UNL     1      -2.080  12.088  22.439  0.00  0.00    +0.000 A 
ATOM     18  C   UNL     1      -1.540  12.060  21.146  0.00  0.00    +0.000 A 
ATOM     19  C   UNL     1      -2.037  13.048  20.124  0.00  0.00    +0.000 C 
ATOM     20  C   UNL     1      -0.557  11.090  20.830  0.00  0.00    +0.000 A 
ENDBRANCH   3   5
BRANCH   1  27
ATOM     21  C   UNL     1       1.521  15.580  19.803  0.00  0.00    +0.000 A 
ATOM     22  C   UNL     1       2.464  16.595  20.270  0.00  0.00    +0.000 A 
ATOM     23  C   UNL     1       3.783  16.495  20.030  0.00  0.00    +0.000 A 
ATOM     24  N   UNL     1       4.234  15.426  19.284  0.00  0.00    +0.000 N 
ATOM     25  C   UNL     1       3.434  14.427  18.792  0.00  0.00    +0.000 A 
ATOM     26  O   UNL     1       3.916  13.541  18.091  0.00  0.00    +0.000 OA
ATOM     27  C   UNL     1       1.974  14.488  19.137  0.00  0.00    +0.000 A 
ATOM     28  H   UNL     1       5.223  15.351  19.059  0.00  0.00    +0.000 HD
BRANCH  23  29
ATOM     29  C   UNL     1       4.796  17.491  20.545  0.00  0.00    +0.000 C 
ATOM     30  F   UNL     1       5.680  17.850  19.576  0.00  0.00    +0.000 F 
ATOM     31  F   UNL     1       4.211  18.631  20.988  0.00  0.00    +0.000 F 
ATOM     32  F   UNL     1       5.522  16.986  21.573  0.00  0.00    +0.000 F 
ENDBRANCH  23  29
BRANCH  21  33
ATOM     33  C   UNL     1       0.062  15.901  20.079  0.00  0.00    +0.000 C 
BRANCH  33  35
ATOM     34  C   UNL     1      -1.923  17.337  19.491  0.00  0.00    +0.000 C 
ATOM     35  C   UNL     1      -0.605  16.753  18.995  0.00  0.00    +0.000 C 
ENDBRANCH  33  35
ENDBRANCH  21  33
ENDBRANCH   1  27
TORSDOF 5
ENDMDL
MODEL 4
REMARK VINA RESULT:      -7.1      4.221      7.528
REMARK  Name = 
REMARK  8 active torsions:
REMARK  status: ('A' for Active; 'I' for Inactive)
REMARK    1  A    between atoms: C_1  and  C_2
REMARK    2  A    between atoms: C_2  and  C_3
REMARK    3  A    between atoms: C_3  and  C_4
REMARK    4  A    between atoms: C_6  and  C_7
REMARK    5  A    between atoms: C_14  and  C_15
REMARK    6  A    between atoms: N_17  and  C_18
REMARK    7  A    between atoms: C_22  and  C_23
REMARK    8  A    between atoms: C_31  and  C_32
REMARK                            x       y       z     vdW  Elec       q    Type
REMARK                         _______ _______ _______ _____ _____    ______ ____
ROOT
ATOM      1  C   UNL     1       1.506  13.336  18.964  0.00  0.00    +0.000 C 
ATOM      2  O   UNL     1       0.816  13.448  17.954  0.00  0.00    +0.000 OA
ATOM      3  N   UNL     1       1.422  12.247  19.780  0.00  0.00    +0.000 N 
ATOM      4  H   UNL     1       1.937  12.241  20.657  0.00  0.00    +0.000 HD
ENDROOT
BRANCH   3   5
ATOM      5  C   UNL     1       0.437  11.193  19.594  0.00  0.00    +0.000 C 
ATOM      6  C   UNL     1       1.135   9.900  19.278  0.00  0.00    +0.000 A 
ATOM      7  C   UNL     1       1.718   9.698  18.018  0.00  0.00    +0.000 A 
ATOM      8  C   UNL     1       2.399   8.518  17.730  0.00  0.00    +0.000 A 
ATOM      9  C   UNL     1       2.504   7.515  18.695  0.00  0.00    +0.000 A 
ATOM     10  C   UNL     1       3.235   6.244  18.381  0.00  0.00    +0.000 C 
ATOM     11  C   UNL     1       1.921   7.716  19.958  0.00  0.00    +0.000 A 
ATOM     12  C   UNL     1       1.240   8.904  20.248  0.00  0.00    +0.000 A 
ATOM     13  O   UNL     1       0.712   9.034  21.511  0.00  0.00    +0.000 OA
ATOM     14  C   UNL     1      -0.143  10.085  21.764  0.00  0.00    +0.000 A 
ATOM     15  C   UNL     1      -0.752  10.096  23.021  0.00  0.00    +0.000 A 
ATOM     16  C   UNL     1      -1.645  11.112  23.359  0.00  0.00    +0.000 A 
ATOM     17  C   UNL     1      -1.963  12.099  22.428  0.00  0.00    +0.000 A 
ATOM     18  C   UNL     1      -1.353  12.114  21.166  0.00  0.00    +0.000 A 
ATOM     19  C   UNL     1      -1.741  13.182  20.178  0.00  0.00    +0.000 C 
ATOM     20  C   UNL     1      -0.406  11.111  20.846  0.00  0.00    +0.000 A 
ENDBRANCH   3   5
BRANCH   1  27
ATOM     21  C   UNL     1       2.071  15.313  20.376  0.00  0.00    +0.000 A 
ATOM     22  C   UNL     1       3.055  16.251  20.914  0.00  0.00    +0.000 A 
ATOM     23  C   UNL     1       4.321  16.281  20.461  0.00  0.00    +0.000 A 
ATOM     24  N   UNL     1       4.669  15.430  19.433  0.00  0.00    +0.000 N 
ATOM     25  C   UNL     1       3.822  14.521  18.854  0.00  0.00    +0.000 A 
ATOM     26  O   UNL     1       4.205  13.840  17.906  0.00  0.00    +0.000 OA
ATOM     27  C   UNL     1       2.435  14.422  19.419  0.00  0.00    +0.000 A 
ATOM     28  H   UNL     1       5.611  15.462  19.051  0.00  0.00    +0.000 HD
BRANCH  23  29
ATOM     29  C   UNL     1       5.382  17.195  21.031  0.00  0.00    +0.000 C 
ATOM     30  F   UNL     1       5.518  18.324  20.286  0.00  0.00    +0.000 F 
ATOM     31  F   UNL     1       5.091  17.587  22.295  0.00  0.00    +0.000 F 
ATOM     32  F   UNL     1       6.597  16.596  21.065  0.00  0.00    +0.000 F 
ENDBRANCH  23  29
BRANCH  21  33
ATOM     33  C   UNL     1       0.667  15.482  20.934  0.00  0.00    +0.000 C 
BRANCH  33  35
ATOM     34  C   UNL     1      -0.743  15.622  23.017  0.00  0.00    +0.000 C 
ATOM     35  C   UNL     1       0.517  15.035  22.392  0.00  0.00    +0.000 C 
ENDBRANCH  33  35
ENDBRANCH  21  33
ENDBRANCH   1  27
TORSDOF 5
ENDMDL
MODEL 5
REMARK VINA RESULT:      -7.1      4.908      7.386
REMARK  Name = 
REMARK  8 active torsions:
REMARK  status: ('A' for Active; 'I' for Inactive)
REMARK    1  A    between atoms: C_1  and  C_2
REMARK    2  A    between atoms: C_2  and  C_3
REMARK    3  A    between atoms: C_3  and  C_4
REMARK    4  A    between atoms: C_6  and  C_7
REMARK    5  A    between atoms: C_14  and  C_15
REMARK    6  A    between atoms: N_17  and  C_18
REMARK    7  A    between atoms: C_22  and  C_23
REMARK    8  A    between atoms: C_31  and  C_32
REMARK                            x       y       z     vdW  Elec       q    Type
REMARK                         _______ _______ _______ _____ _____    ______ ____
ROOT
ATOM      1  C   UNL     1      -1.044  12.866  19.934  0.00  0.00    +0.000 C 
ATOM      2  O   UNL     1      -1.024  12.195  20.964  0.00  0.00    +0.000 OA
ATOM      3  N   UNL     1      -2.077  12.796  19.047  0.00  0.00    +0.000 N 
ATOM      4  H   UNL     1      -2.006  13.292  18.162  0.00  0.00    +0.000 HD
ENDROOT
BRANCH   3   5
ATOM      5  C   UNL     1      -3.171  11.848  19.178  0.00  0.00    +0.000 C 
ATOM      6  C   UNL     1      -4.411  12.567  19.630  0.00  0.00    +0.000 A 
ATOM      7  C   UNL     1      -4.527  13.018  20.953  0.00  0.00    +0.000 A 
ATOM      8  C   UNL     1      -5.656  13.719  21.370  0.00  0.00    +0.000 A 
ATOM      9  C   UNL     1      -6.694  13.975  20.472  0.00  0.00    +0.000 A 
ATOM     10  C   UNL     1      -7.910  14.727  20.923  0.00  0.00    +0.000 C 
ATOM     11  C   UNL     1      -6.578  13.524  19.145  0.00  0.00    +0.000 A 
ATOM     12  C   UNL     1      -5.441  12.823  18.727  0.00  0.00    +0.000 A 
ATOM     13  O   UNL     1      -5.394  12.431  17.410  0.00  0.00    +0.000 OA
ATOM     14  C   UNL     1      -4.402  11.560  17.016  0.00  0.00    +0.000 A 
ATOM     15  C   UNL     1      -4.477  11.091  15.702  0.00  0.00    +0.000 A 
ATOM     16  C   UNL     1      -3.525  10.194  15.221  0.00  0.00    +0.000 A 
ATOM     17  C   UNL     1      -2.515   9.730  16.063  0.00  0.00    +0.000 A 
ATOM     18  C   UNL     1      -2.414  10.198  17.381  0.00  0.00    +0.000 A 
ATOM     19  C   UNL     1      -1.325   9.655  18.268  0.00  0.00    +0.000 C 
ATOM     20  C   UNL     1      -3.351  11.151  17.849  0.00  0.00    +0.000 A 
ENDBRANCH   3   5
BRANCH   1  27
ATOM     21  C   UNL     1       1.286  13.237  19.126  0.00  0.00    +0.000 A 
ATOM     22  C   UNL     1       2.318  14.122  18.589  0.00  0.00    +0.000 A 
ATOM     23  C   UNL     1       2.141  15.453  18.520  0.00  0.00    +0.000 A 
ATOM     24  N   UNL     1       0.967  15.982  19.013  0.00  0.00    +0.000 N 
ATOM     25  C   UNL     1      -0.059  15.244  19.543  0.00  0.00    +0.000 A 
ATOM     26  O   UNL     1      -1.047  15.807  20.009  0.00  0.00    +0.000 OA
ATOM     27  C   UNL     1       0.099  13.751  19.538  0.00  0.00    +0.000 A 
ATOM     28  H   UNL     1       0.827  16.990  19.005  0.00  0.00    +0.000 HD
BRANCH  23  29
ATOM     29  C   UNL     1       3.159  16.394  17.919  0.00  0.00    +0.000 C 
ATOM     30  F   UNL     1       4.207  15.715  17.380  0.00  0.00    +0.000 F 
ATOM     31  F   UNL     1       2.630  17.154  16.930  0.00  0.00    +0.000 F 
ATOM     32  F   UNL     1       3.673  17.240  18.846  0.00  0.00    +0.000 F 
ENDBRANCH  23  29
BRANCH  21  33
ATOM     33  C   UNL     1       1.693  11.776  19.219  0.00  0.00    +0.000 C 
BRANCH  33  35
ATOM     34  C   UNL     1       2.114   9.648  17.938  0.00  0.00    +0.000 C 
ATOM     35  C   UNL     1       2.153  11.171  17.889  0.00  0.00    +0.000 C 
ENDBRANCH  33  35
ENDBRANCH  21  33
ENDBRANCH   1  27
TORSDOF 5
ENDMDL
MODEL 6
REMARK VINA RESULT:      -7.0      2.127      3.094
REMARK  Name = 
REMARK  8 active torsions:
REMARK  status: ('A' for Active; 'I' for Inactive)
REMARK    1  A    between atoms: C_1  and  C_2
REMARK    2  A    between atoms: C_2  and  C_3
REMARK    3  A    between atoms: C_3  and  C_4
REMARK    4  A    between atoms: C_6  and  C_7
REMARK    5  A    between atoms: C_14  and  C_15
REMARK    6  A    between atoms: N_17  and  C_18
REMARK    7  A    between atoms: C_22  and  C_23
REMARK    8  A    between atoms: C_31  and  C_32
REMARK                            x       y       z     vdW  Elec       q    Type
REMARK                         _______ _______ _______ _____ _____    ______ ____
ROOT
ATOM      1  C   UNL     1       1.140  10.092  18.458  0.00  0.00    +0.000 C 
ATOM      2  O   UNL     1       1.770  10.704  17.598  0.00  0.00    +0.000 OA
ATOM      3  N   UNL     1      -0.007  10.587  19.003  0.00  0.00    +0.000 N 
ATOM      4  H   UNL     1      -0.440  10.095  19.781  0.00  0.00    +0.000 HD
ENDROOT
BRANCH   3   5
ATOM      5  C   UNL     1      -0.514  11.916  18.707  0.00  0.00    +0.000 C 
ATOM      6  C   UNL     1      -1.979  11.836  18.377  0.00  0.00    +0.000 A 
ATOM      7  C   UNL     1      -2.401  11.306  17.149  0.00  0.00    +0.000 A 
ATOM      8  C   UNL     1      -3.756  11.193  16.851  0.00  0.00    +0.000 A 
ATOM      9  C   UNL     1      -4.715  11.614  17.774  0.00  0.00    +0.000 A 
ATOM     10  C   UNL     1      -6.174  11.494  17.449  0.00  0.00    +0.000 C 
ATOM     11  C   UNL     1      -4.293  12.145  19.005  0.00  0.00    +0.000 A 
ATOM     12  C   UNL     1      -2.931  12.255  19.305  0.00  0.00    +0.000 A 
ATOM     13  O   UNL     1      -2.597  12.767  20.536  0.00  0.00    +0.000 OA
ATOM     14  C   UNL     1      -1.280  13.091  20.782  0.00  0.00    +0.000 A 
ATOM     15  C   UNL     1      -1.018  13.728  21.997  0.00  0.00    +0.000 A 
ATOM     16  C   UNL     1       0.283  14.106  22.325  0.00  0.00    +0.000 A 
ATOM     17  C   UNL     1       1.322  13.885  21.421  0.00  0.00    +0.000 A 
ATOM     18  C   UNL     1       1.082  13.235  20.202  0.00  0.00    +0.000 A 
ATOM     19  C   UNL     1       2.225  13.036  19.242  0.00  0.00    +0.000 C 
ATOM     20  C   UNL     1      -0.232  12.803  19.898  0.00  0.00    +0.000 A 
ENDBRANCH   3   5
BRANCH   1  27
ATOM     21  C   UNL     1       1.458   8.486  20.339  0.00  0.00    +0.000 A 
ATOM     22  C   UNL     1       1.793   7.148  20.825  0.00  0.00    +0.000 A 
ATOM     23  C   UNL     1       2.300   6.207  20.009  0.00  0.00    +0.000 A 
ATOM     24  N   UNL     1       2.545   6.545  18.694  0.00  0.00    +0.000 N 
ATOM     25  C   UNL     1       2.277   7.770  18.141  0.00  0.00    +0.000 A 
ATOM     26  O   UNL     1       2.580   7.999  16.973  0.00  0.00    +0.000 OA
ATOM     27  C   UNL     1       1.627   8.793  19.028  0.00  0.00    +0.000 A 
ATOM     28  H   UNL     1       2.963   5.860  18.069  0.00  0.00    +0.000 HD
BRANCH  23  29
ATOM     29  C   UNL     1       2.603   4.797  20.459  0.00  0.00    +0.000 C 
ATOM     30  F   UNL     1       3.842   4.403  20.060  0.00  0.00    +0.000 F 
ATOM     31  F   UNL     1       2.564   4.673  21.808  0.00  0.00    +0.000 F 
ATOM     32  F   UNL     1       1.721   3.903  19.946  0.00  0.00    +0.000 F 
ENDBRANCH  23  29
BRANCH  21  33
ATOM     33  C   UNL     1       0.989   9.449  21.417  0.00  0.00    +0.000 C 
BRANCH  33  35
ATOM     34  C   UNL     1      -0.796  10.091  23.075  0.00  0.00    +0.000 C 
ATOM     35  C   UNL     1      -0.279   8.997  22.148  0.00  0.00    +0.000 C 
ENDBRANCH  33  35
ENDBRANCH  21  33
ENDBRANCH   1  27
TORSDOF 5
ENDMDL
MODEL 7
REMARK VINA RESULT:      -7.0      4.807      7.330
REMARK  Name = 
REMARK  8 active torsions:
REMARK  status: ('A' for Active; 'I' for Inactive)
REMARK    1  A    between atoms: C_1  and  C_2
REMARK    2  A    between atoms: C_2  and  C_3
REMARK    3  A    between atoms: C_3  and  C_4
REMARK    4  A    between atoms: C_6  and  C_7
REMARK    5  A    between atoms: C_14  and  C_15
REMARK    6  A    between atoms: N_17  and  C_18
REMARK    7  A    between atoms: C_22  and  C_23
REMARK    8  A    between atoms: C_31  and  C_32
REMARK                            x       y       z     vdW  Elec       q    Type
REMARK                         _______ _______ _______ _____ _____    ______ ____
ROOT
ATOM      1  C   UNL     1      -0.367  12.810  19.626  0.00  0.00    +0.000 C 
ATOM      2  O   UNL     1      -0.142  12.098  20.602  0.00  0.00    +0.000 OA
ATOM      3  N   UNL     1      -1.538  12.736  18.932  0.00  0.00    +0.000 N 
ATOM      4  H   UNL     1      -1.641  13.270  18.073  0.00  0.00    +0.000 HD
ENDROOT
BRANCH   3   5
ATOM      5  C   UNL     1      -2.560  11.740  19.209  0.00  0.00    +0.000 C 
ATOM      6  C   UNL     1      -3.706  12.381  19.940  0.00  0.00    +0.000 A 
ATOM      7  C   UNL     1      -3.571  12.746  21.288  0.00  0.00    +0.000 A 
ATOM      8  C   UNL     1      -4.614  13.376  21.963  0.00  0.00    +0.000 A 
ATOM      9  C   UNL     1      -5.814  13.647  21.303  0.00  0.00    +0.000 A 
ATOM     10  C   UNL     1      -6.936  14.322  22.032  0.00  0.00    +0.000 C 
ATOM     11  C   UNL     1      -5.950  13.283  19.952  0.00  0.00    +0.000 A 
ATOM     12  C   UNL     1      -4.899  12.653  19.274  0.00  0.00    +0.000 A 
ATOM     13  O   UNL     1      -5.101  12.345  17.950  0.00  0.00    +0.000 OA
ATOM     14  C   UNL     1      -4.184  11.538  17.312  0.00  0.00    +0.000 A 
ATOM     15  C   UNL     1      -4.504  11.149  16.010  0.00  0.00    +0.000 A 
ATOM     16  C   UNL     1      -3.642  10.320  15.293  0.00  0.00    +0.000 A 
ATOM     17  C   UNL     1      -2.475   9.844  15.890  0.00  0.00    +0.000 A 
ATOM     18  C   UNL     1      -2.128  10.233  17.192  0.00  0.00    +0.000 A 
ATOM     19  C   UNL     1      -0.873   9.679  17.811  0.00  0.00    +0.000 C 
ATOM     20  C   UNL     1      -2.980  11.119  17.896  0.00  0.00    +0.000 A 
ENDBRANCH   3   5
BRANCH   1  27
ATOM     21  C   UNL     1       0.522  15.101  19.201  0.00  0.00    +0.000 A 
ATOM     22  C   UNL     1       1.616  15.986  18.806  0.00  0.00    +0.000 A 
ATOM     23  C   UNL     1       2.759  15.506  18.285  0.00  0.00    +0.000 A 
ATOM     24  N   UNL     1       2.866  14.145  18.086  0.00  0.00    +0.000 N 
ATOM     25  C   UNL     1       1.899  13.231  18.413  0.00  0.00    +0.000 A 
ATOM     26  O   UNL     1       2.059  12.043  18.149  0.00  0.00    +0.000 OA
ATOM     27  C   UNL     1       0.659  13.756  19.077  0.00  0.00    +0.000 A 
ATOM     28  H   UNL     1       3.707  13.764  17.660  0.00  0.00    +0.000 HD
BRANCH  23  29
ATOM     29  C   UNL     1       3.935  16.382  17.919  0.00  0.00    +0.000 C 
ATOM     30  F   UNL     1       4.992  15.642  17.491  0.00  0.00    +0.000 F 
ATOM     31  F   UNL     1       3.631  17.252  16.925  0.00  0.00    +0.000 F 
ATOM     32  F   UNL     1       4.367  17.113  18.976  0.00  0.00    +0.000 F 
ENDBRANCH  23  29
BRANCH  21  33
ATOM     33  C   UNL     1      -0.729  15.819  19.678  0.00  0.00    +0.000 C 
BRANCH  33  35
ATOM     34  C   UNL     1      -1.575  17.904  18.544  0.00  0.00    +0.000 C 
ATOM     35  C   UNL     1      -0.637  17.347  19.608  0.00  0.00    +0.000 C 
ENDBRANCH  33  35
ENDBRANCH  21  33
ENDBRANCH   1  27
TORSDOF 5
ENDMDL
MODEL 8
REMARK VINA RESULT:      -7.0      4.732      7.218
REMARK  Name = 
REMARK  8 active torsions:
REMARK  status: ('A' for Active; 'I' for Inactive)
REMARK    1  A    between atoms: C_1  and  C_2
REMARK    2  A    between atoms: C_2  and  C_3
REMARK    3  A    between atoms: C_3  and  C_4
REMARK    4  A    between atoms: C_6  and  C_7
REMARK    5  A    between atoms: C_14  and  C_15
REMARK    6  A    between atoms: N_17  and  C_18
REMARK    7  A    between atoms: C_22  and  C_23
REMARK    8  A    between atoms: C_31  and  C_32
REMARK                            x       y       z     vdW  Elec       q    Type
REMARK                         _______ _______ _______ _____ _____    ______ ____
ROOT
ATOM      1  C   UNL     1      -0.467  12.869  19.696  0.00  0.00    +0.000 C 
ATOM      2  O   UNL     1      -0.265  12.167  20.685  0.00  0.00    +0.000 OA
ATOM      3  N   UNL     1      -1.611  12.770  18.962  0.00  0.00    +0.000 N 
ATOM      4  H   UNL     1      -1.692  13.298  18.096  0.00  0.00    +0.000 HD
ENDROOT
BRANCH   3   5
ATOM      5  C   UNL     1      -2.625  11.759  19.208  0.00  0.00    +0.000 C 
ATOM      6  C   UNL     1      -3.810  12.386  19.887  0.00  0.00    +0.000 A 
ATOM      7  C   UNL     1      -3.736  12.766  21.235  0.00  0.00    +0.000 A 
ATOM      8  C   UNL     1      -4.815  13.383  21.862  0.00  0.00    +0.000 A 
ATOM      9  C   UNL     1      -5.993  13.625  21.152  0.00  0.00    +0.000 A 
ATOM     10  C   UNL     1      -7.156  14.287  21.829  0.00  0.00    +0.000 C 
ATOM     11  C   UNL     1      -6.068  13.246  19.801  0.00  0.00    +0.000 A 
ATOM     12  C   UNL     1      -4.981  12.630  19.171  0.00  0.00    +0.000 A 
ATOM     13  O   UNL     1      -5.125  12.305  17.843  0.00  0.00    +0.000 OA
ATOM     14  C   UNL     1      -4.168  11.509  17.251  0.00  0.00    +0.000 A 
ATOM     15  C   UNL     1      -4.429  11.101  15.941  0.00  0.00    +0.000 A 
ATOM     16  C   UNL     1      -3.525  10.282  15.267  0.00  0.00    +0.000 A 
ATOM     17  C   UNL     1      -2.374   9.833  15.915  0.00  0.00    +0.000 A 
ATOM     18  C   UNL     1      -2.087  10.241  17.225  0.00  0.00    +0.000 A 
ATOM     19  C   UNL     1      -0.848   9.716  17.899  0.00  0.00    +0.000 C 
ATOM     20  C   UNL     1      -2.982  11.118  17.886  0.00  0.00    +0.000 A 
ENDBRANCH   3   5
BRANCH   1  27
ATOM     21  C   UNL     1       0.411  15.172  19.315  0.00  0.00    +0.000 A 
ATOM     22  C   UNL     1       1.506  16.070  18.950  0.00  0.00    +0.000 A 
ATOM     23  C   UNL     1       2.663  15.605  18.448  0.00  0.00    +0.000 A 
ATOM     24  N   UNL     1       2.785  14.248  18.236  0.00  0.00    +0.000 N 
ATOM     25  C   UNL     1       1.819  13.322  18.533  0.00  0.00    +0.000 A 
ATOM     26  O   UNL     1       1.995  12.138  18.260  0.00  0.00    +0.000 OA
ATOM     27  C   UNL     1       0.562  13.829  19.179  0.00  0.00    +0.000 A 
ATOM     28  H   UNL     1       3.638  13.878  17.822  0.00  0.00    +0.000 HD
BRANCH  23  29
ATOM     29  C   UNL     1       3.838  16.495  18.115  0.00  0.00    +0.000 C 
ATOM     30  F   UNL     1       4.189  17.272  19.174  0.00  0.00    +0.000 F 
ATOM     31  F   UNL     1       4.936  15.780  17.767  0.00  0.00    +0.000 F 
ATOM     32  F   UNL     1       3.560  17.333  17.085  0.00  0.00    +0.000 F 
ENDBRANCH  23  29
BRANCH  21  33
ATOM     33  C   UNL     1      -0.855  15.874  19.774  0.00  0.00    +0.000 C 
BRANCH  33  35
ATOM     34  C   UNL     1      -1.410  15.480  22.200  0.00  0.00    +0.000 C 
ATOM     35  C   UNL     1      -0.776  16.436  21.197  0.00  0.00    +0.000 C 
ENDBRANCH  33  35
ENDBRANCH  21  33
ENDBRANCH   1  27
TORSDOF 5
ENDMDL
MODEL 9
REMARK VINA RESULT:      -6.9      4.368      8.035
REMARK  Name = 
REMARK  8 active torsions:
REMARK  status: ('A' for Active; 'I' for Inactive)
REMARK    1  A    between atoms: C_1  and  C_2
REMARK    2  A    between atoms: C_2  and  C_3
REMARK    3  A    between atoms: C_3  and  C_4
REMARK    4  A    between atoms: C_6  and  C_7
REMARK    5  A    between atoms: C_14  and  C_15
REMARK    6  A    between atoms: N_17  and  C_18
REMARK    7  A    between atoms: C_22  and  C_23
REMARK    8  A    between atoms: C_31  and  C_32
REMARK                            x       y       z     vdW  Elec       q    Type
REMARK                         _______ _______ _______ _____ _____    ______ ____
ROOT
ATOM      1  C   UNL     1       2.061  13.572  19.455  0.00  0.00    +0.000 C 
ATOM      2  O   UNL     1       1.520  13.845  18.385  0.00  0.00    +0.000 OA
ATOM      3  N   UNL     1       1.738  12.453  20.163  0.00  0.00    +0.000 N 
ATOM      4  H   UNL     1       2.136  12.318  21.089  0.00  0.00    +0.000 HD
ENDROOT
BRANCH   3   5
ATOM      5  C   UNL     1       0.657  11.559  19.781  0.00  0.00    +0.000 C 
ATOM      6  C   UNL     1       1.223  10.231  19.362  0.00  0.00    +0.000 A 
ATOM      7  C   UNL     1       1.885  10.099  18.132  0.00  0.00    +0.000 A 
ATOM      8  C   UNL     1       2.447   8.882  17.754  0.00  0.00    +0.000 A 
ATOM      9  C   UNL     1       2.350   7.773  18.596  0.00  0.00    +0.000 A 
ATOM     10  C   UNL     1       2.953   6.463  18.184  0.00  0.00    +0.000 C 
ATOM     11  C   UNL     1       1.688   7.904  19.828  0.00  0.00    +0.000 A 
ATOM     12  C   UNL     1       1.128   9.129  20.210  0.00  0.00    +0.000 A 
ATOM     13  O   UNL     1       0.512   9.183  21.438  0.00  0.00    +0.000 OA
ATOM     14  C   UNL     1      -0.233  10.298  21.754  0.00  0.00    +0.000 A 
ATOM     15  C   UNL     1      -0.943  10.246  22.956  0.00  0.00    +0.000 A 
ATOM     16  C   UNL     1      -1.737  11.322  23.350  0.00  0.00    +0.000 A 
ATOM     17  C   UNL     1      -1.856  12.439  22.524  0.00  0.00    +0.000 A 
ATOM     18  C   UNL     1      -1.143  12.517  21.320  0.00  0.00    +0.000 A 
ATOM     19  C   UNL     1      -1.317  13.729  20.443  0.00  0.00    +0.000 C 
ATOM     20  C   UNL     1      -0.294  11.445  20.950  0.00  0.00    +0.000 A 
ENDBRANCH   3   5
BRANCH   1  27
ATOM     21  C   UNL     1       4.165  14.910  19.437  0.00  0.00    +0.000 A 
ATOM     22  C   UNL     1       5.027  15.931  20.032  0.00  0.00    +0.000 A 
ATOM     23  C   UNL     1       4.772  16.450  21.245  0.00  0.00    +0.000 A 
ATOM     24  N   UNL     1       3.692  15.962  21.951  0.00  0.00    +0.000 N 
ATOM     25  C   UNL     1       2.829  15.003  21.491  0.00  0.00    +0.000 A 
ATOM     26  O   UNL     1       1.924  14.590  22.212  0.00  0.00    +0.000 OA
ATOM     27  C   UNL     1       3.058  14.488  20.099  0.00  0.00    +0.000 A 
ATOM     28  H   UNL     1       3.502  16.314  22.887  0.00  0.00    +0.000 HD
BRANCH  23  29
ATOM     29  C   UNL     1       5.604  17.547  21.868  0.00  0.00    +0.000 C 
ATOM     30  F   UNL     1       6.029  18.440  20.935  0.00  0.00    +0.000 F 
ATOM     31  F   UNL     1       4.910  18.247  22.798  0.00  0.00    +0.000 F 
ATOM     32  F   UNL     1       6.711  17.056  22.477  0.00  0.00    +0.000 F 
ENDBRANCH  23  29
BRANCH  21  33
ATOM     33  C   UNL     1       4.656  14.368  18.105  0.00  0.00    +0.000 C 
BRANCH  33  35
ATOM     34  C   UNL     1       7.040  13.751  17.574  0.00  0.00    +0.000 C 
ATOM     35  C   UNL     1       6.035  14.890  17.689  0.00  0.00    +0.000 C 
ENDBRANCH  33  35
ENDBRANCH  21  33
ENDBRANCH   1  27
TORSDOF 5
ENDMDL
