MODEL 1
REMARK VINA RESULT:      -7.0      0.000      0.000
REMARK  Name = 
REMARK  6 active torsions:
REMARK  status: ('A' for Active; 'I' for Inactive)
REMARK    1  A    between atoms: C_4  and  O_5
REMARK    2  A    between atoms: C_7  and  S_8
REMARK    3  A    between atoms: S_8  and  C_9
REMARK    4  A    between atoms: C_9  and  C_10
REMARK    5  A    between atoms: C_10  and  S_11
REMARK    6  A    between atoms: S_11  and  C_12
REMARK                            x       y       z     vdW  Elec       q    Type
REMARK                         _______ _______ _______ _____ _____    ______ ____
ROOT
ATOM      1  N   UNL     1       8.425   5.243  20.375  0.00  0.00    +0.000 N 
ATOM      2  C   UNL     1       8.082   5.689  19.097  0.00  0.00    +0.000 A 
ATOM      3  C   UNL     1       8.087   7.040  18.830  0.00  0.00    +0.000 A 
ATOM      4  C   UNL     1       7.702   7.389  17.566  0.00  0.00    +0.000 A 
ATOM      5  N   UNL     1       7.328   6.513  16.634  0.00  0.00    +0.000 NA
ATOM      6  C   UNL     1       7.331   5.222  16.993  0.00  0.00    +0.000 A 
ATOM      7  N   UNL     1       7.700   4.763  18.202  0.00  0.00    +0.000 NA
ATOM      8  H   UNL     1       9.305   5.625  20.705  0.00  0.00    +0.000 HD
ATOM      9  H   UNL     1       8.423   4.227  20.378  0.00  0.00    +0.000 HD
ENDROOT
BRANCH   4  10
ATOM     10  O   UNL     1       7.674   8.693  17.167  0.00  0.00    +0.000 OA
ATOM     11  H   UNL     1       7.434   9.248  17.924  0.00  0.00    +0.000 HD
ENDBRANCH   4  10
BRANCH   6  12
ATOM     12  S   UNL     1       6.781   4.107  15.721  0.00  0.00    +0.000 S 
BRANCH  12  13
ATOM     13  C   UNL     1       4.993   4.458  15.603  0.00  0.00    +0.000 C 
BRANCH  13  14
ATOM     14  C   UNL     1       4.316   3.851  16.840  0.00  0.00    +0.000 C 
BRANCH  14  15
ATOM     15  S   UNL     1       3.503   5.146  17.846  0.00  0.00    +0.000 S 
BRANCH  15  16
ATOM     16  C   UNL     1       2.807   4.244  19.236  0.00  0.00    +0.000 A 
ATOM     17  C   UNL     1       1.512   4.406  19.742  0.00  0.00    +0.000 A 
ATOM     18  C   UNL     1       1.074   3.651  20.838  0.00  0.00    +0.000 A 
ATOM     19  C   UNL     1       1.919   2.722  21.439  0.00  0.00    +0.000 A 
ATOM     20  C   UNL     1       3.209   2.547  20.947  0.00  0.00    +0.000 A 
ATOM     21  C   UNL     1       3.645   3.301  19.854  0.00  0.00    +0.000 A 
ENDBRANCH  15  16
ENDBRANCH  14  15
ENDBRANCH  13  14
ENDBRANCH  12  13
ENDBRANCH   6  12
TORSDOF 6
ENDMDL
MODEL 2
REMARK VINA RESULT:      -6.9      1.002      1.130
REMARK  Name = 
REMARK  6 active torsions:
REMARK  status: ('A' for Active; 'I' for Inactive)
REMARK    1  A    between atoms: C_4  and  O_5
REMARK    2  A    between atoms: C_7  and  S_8
REMARK    3  A    between atoms: S_8  and  C_9
REMARK    4  A    between atoms: C_9  and  C_10
REMARK    5  A    between atoms: C_10  and  S_11
REMARK    6  A    between atoms: S_11  and  C_12
REMARK                            x       y       z     vdW  Elec       q    Type
REMARK                         _______ _______ _______ _____ _____    ______ ____
ROOT
ATOM      1  N   UNL     1       8.368   5.259  20.361  0.00  0.00    +0.000 N 
ATOM      2  C   UNL     1       8.059   5.718  19.078  0.00  0.00    +0.000 A 
ATOM      3  C   UNL     1       8.088   7.071  18.821  0.00  0.00    +0.000 A 
ATOM      4  C   UNL     1       7.737   7.434  17.550  0.00  0.00    +0.000 A 
ATOM      5  N   UNL     1       7.372   6.569  16.605  0.00  0.00    +0.000 NA
ATOM      6  C   UNL     1       7.349   5.275  16.955  0.00  0.00    +0.000 A 
ATOM      7  N   UNL     1       7.685   4.804  18.169  0.00  0.00    +0.000 NA
ATOM      8  H   UNL     1       9.245   5.628  20.712  0.00  0.00    +0.000 HD
ATOM      9  H   UNL     1       8.352   4.243  20.356  0.00  0.00    +0.000 HD
ENDROOT
BRANCH   4  10
ATOM     10  O   UNL     1       7.736   8.741  17.159  0.00  0.00    +0.000 OA
ATOM     11  H   UNL     1       7.012   8.879  16.531  0.00  0.00    +0.000 HD
ENDBRANCH   4  10
BRANCH   6  12
ATOM     12  S   UNL     1       6.812   4.176  15.664  0.00  0.00    +0.000 S 
BRANCH  12  13
ATOM     13  C   UNL     1       5.103   4.727  15.330  0.00  0.00    +0.000 C 
BRANCH  13  14
ATOM     14  C   UNL     1       4.377   4.833  16.679  0.00  0.00    +0.000 C 
BRANCH  14  15
ATOM     15  S   UNL     1       4.133   3.180  17.427  0.00  0.00    +0.000 S 
BRANCH  15  16
ATOM     16  C   UNL     1       2.880   3.453  18.685  0.00  0.00    +0.000 A 
ATOM     17  C   UNL     1       1.710   2.700  18.841  0.00  0.00    +0.000 A 
ATOM     18  C   UNL     1       0.795   3.004  19.858  0.00  0.00    +0.000 A 
ATOM     19  C   UNL     1       1.037   4.061  20.733  0.00  0.00    +0.000 A 
ATOM     20  C   UNL     1       2.196   4.818  20.592  0.00  0.00    +0.000 A 
ATOM     21  C   UNL     1       3.108   4.513  19.577  0.00  0.00    +0.000 A 
ENDBRANCH  15  16
ENDBRANCH  14  15
ENDBRANCH  13  14
ENDBRANCH  12  13
ENDBRANCH   6  12
TORSDOF 6
ENDMDL
MODEL 3
REMARK VINA RESULT:      -6.8      0.844      1.078
REMARK  Name = 
REMARK  6 active torsions:
REMARK  status: ('A' for Active; 'I' for Inactive)
REMARK    1  A    between atoms: C_4  and  O_5
REMARK    2  A    between atoms: C_7  and  S_8
REMARK    3  A    between atoms: S_8  and  C_9
REMARK    4  A    between atoms: C_9  and  C_10
REMARK    5  A    between atoms: C_10  and  S_11
REMARK    6  A    between atoms: S_11  and  C_12
REMARK                            x       y       z     vdW  Elec       q    Type
REMARK                         _______ _______ _______ _____ _____    ______ ____
ROOT
ATOM      1  N   UNL     1       8.545   5.218  20.351  0.00  0.00    +0.000 N 
ATOM      2  C   UNL     1       8.096   5.682  19.112  0.00  0.00    +0.000 A 
ATOM      3  C   UNL     1       8.186   7.025  18.823  0.00  0.00    +0.000 A 
ATOM      4  C   UNL     1       7.689   7.396  17.604  0.00  0.00    +0.000 A 
ATOM      5  N   UNL     1       7.136   6.549  16.738  0.00  0.00    +0.000 NA
ATOM      6  C   UNL     1       7.069   5.265  17.117  0.00  0.00    +0.000 A 
ATOM      7  N   UNL     1       7.536   4.786  18.285  0.00  0.00    +0.000 NA
ATOM      8  H   UNL     1       9.487   5.525  20.571  0.00  0.00    +0.000 HD
ATOM      9  H   UNL     1       8.457   4.206  20.372  0.00  0.00    +0.000 HD
ENDROOT
BRANCH   4  10
ATOM     10  O   UNL     1       7.727   8.695  17.188  0.00  0.00    +0.000 OA
ATOM     11  H   UNL     1       6.951   9.159  17.536  0.00  0.00    +0.000 HD
ENDBRANCH   4  10
BRANCH   6  12
ATOM     12  S   UNL     1       6.282   4.192  15.937  0.00  0.00    +0.000 S 
BRANCH  12  13
ATOM     13  C   UNL     1       4.513   4.323  16.369  0.00  0.00    +0.000 C 
BRANCH  13  14
ATOM     14  C   UNL     1       4.405   5.192  17.629  0.00  0.00    +0.000 C 
BRANCH  14  15
ATOM     15  S   UNL     1       2.664   5.648  17.966  0.00  0.00    +0.000 S 
BRANCH  15  16
ATOM     16  C   UNL     1       2.176   4.545  19.298  0.00  0.00    +0.000 A 
ATOM     17  C   UNL     1       2.484   4.722  20.652  0.00  0.00    +0.000 A 
ATOM     18  C   UNL     1       2.055   3.792  21.609  0.00  0.00    +0.000 A 
ATOM     19  C   UNL     1       1.311   2.678  21.228  0.00  0.00    +0.000 A 
ATOM     20  C   UNL     1       0.995   2.489  19.886  0.00  0.00    +0.000 A 
ATOM     21  C   UNL     1       1.423   3.417  18.933  0.00  0.00    +0.000 A 
ENDBRANCH  15  16
ENDBRANCH  14  15
ENDBRANCH  13  14
ENDBRANCH  12  13
ENDBRANCH   6  12
TORSDOF 6
ENDMDL
MODEL 4
REMARK VINA RESULT:      -6.7      2.941      4.138
REMARK  Name = 
REMARK  6 active torsions:
REMARK  status: ('A' for Active; 'I' for Inactive)
REMARK    1  A    between atoms: C_4  and  O_5
REMARK    2  A    between atoms: C_7  and  S_8
REMARK    3  A    between atoms: S_8  and  C_9
REMARK    4  A    between atoms: C_9  and  C_10
REMARK    5  A    between atoms: C_10  and  S_11
REMARK    6  A    between atoms: S_11  and  C_12
REMARK                            x       y       z     vdW  Elec       q    Type
REMARK                         _______ _______ _______ _____ _____    ______ ____
ROOT
ATOM      1  N   UNL     1       5.805   2.551  12.024  0.00  0.00    +0.000 N 
ATOM      2  C   UNL     1       6.428   3.576  12.738  0.00  0.00    +0.000 A 
ATOM      3  C   UNL     1       7.284   4.432  12.081  0.00  0.00    +0.000 A 
ATOM      4  C   UNL     1       7.878   5.382  12.865  0.00  0.00    +0.000 A 
ATOM      5  N   UNL     1       7.680   5.493  14.178  0.00  0.00    +0.000 NA
ATOM      6  C   UNL     1       6.851   4.599  14.735  0.00  0.00    +0.000 A 
ATOM      7  N   UNL     1       6.203   3.632  14.061  0.00  0.00    +0.000 NA
ATOM      8  H   UNL     1       5.337   2.881  11.186  0.00  0.00    +0.000 HD
ATOM      9  H   UNL     1       5.172   2.057  12.646  0.00  0.00    +0.000 HD
ENDROOT
BRANCH   4  10
ATOM     10  O   UNL     1       8.738   6.301  12.338  0.00  0.00    +0.000 OA
ATOM     11  H   UNL     1       8.913   6.984  13.002  0.00  0.00    +0.000 HD
ENDBRANCH   4  10
BRANCH   6  12
ATOM     12  S   UNL     1       6.662   4.772  16.495  0.00  0.00    +0.000 S 
BRANCH  12  13
ATOM     13  C   UNL     1       5.256   5.927  16.652  0.00  0.00    +0.000 C 
BRANCH  13  14
ATOM     14  C   UNL     1       4.409   5.469  17.848  0.00  0.00    +0.000 C 
BRANCH  14  15
ATOM     15  S   UNL     1       3.535   3.904  17.474  0.00  0.00    +0.000 S 
BRANCH  15  16
ATOM     16  C   UNL     1       2.755   3.460  19.030  0.00  0.00    +0.000 A 
ATOM     17  C   UNL     1       3.424   3.011  20.174  0.00  0.00    +0.000 A 
ATOM     18  C   UNL     1       2.712   2.685  21.336  0.00  0.00    +0.000 A 
ATOM     19  C   UNL     1       1.325   2.806  21.373  0.00  0.00    +0.000 A 
ATOM     20  C   UNL     1       0.645   3.253  20.244  0.00  0.00    +0.000 A 
ATOM     21  C   UNL     1       1.356   3.577  19.085  0.00  0.00    +0.000 A 
ENDBRANCH  15  16
ENDBRANCH  14  15
ENDBRANCH  13  14
ENDBRANCH  12  13
ENDBRANCH   6  12
TORSDOF 6
ENDMDL
MODEL 5
REMARK VINA RESULT:      -6.7      2.978      4.125
REMARK  Name = 
REMARK  6 active torsions:
REMARK  status: ('A' for Active; 'I' for Inactive)
REMARK    1  A    between atoms: C_4  and  O_5
REMARK    2  A    between atoms: C_7  and  S_8
REMARK    3  A    between atoms: S_8  and  C_9
REMARK    4  A    between atoms: C_9  and  C_10
REMARK    5  A    between atoms: C_10  and  S_11
REMARK    6  A    between atoms: S_11  and  C_12
REMARK                            x       y       z     vdW  Elec       q    Type
REMARK                         _______ _______ _______ _____ _____    ______ ____
ROOT
ATOM      1  N   UNL     1       5.675   2.593  12.053  0.00  0.00    +0.000 N 
ATOM      2  C   UNL     1       6.348   3.585  12.771  0.00  0.00    +0.000 A 
ATOM      3  C   UNL     1       7.171   4.462  12.100  0.00  0.00    +0.000 A 
ATOM      4  C   UNL     1       7.817   5.376  12.886  0.00  0.00    +0.000 A 
ATOM      5  N   UNL     1       7.697   5.433  14.211  0.00  0.00    +0.000 NA
ATOM      6  C   UNL     1       6.894   4.523  14.779  0.00  0.00    +0.000 A 
ATOM      7  N   UNL     1       6.200   3.587  14.106  0.00  0.00    +0.000 NA
ATOM      8  H   UNL     1       5.163   2.960  11.258  0.00  0.00    +0.000 HD
ATOM      9  H   UNL     1       5.076   2.078  12.692  0.00  0.00    +0.000 HD
ENDROOT
BRANCH   4  10
ATOM     10  O   UNL     1       8.652   6.310  12.347  0.00  0.00    +0.000 OA
ATOM     11  H   UNL     1       8.873   6.963  13.028  0.00  0.00    +0.000 HD
ENDBRANCH   4  10
BRANCH   6  12
ATOM     12  S   UNL     1       6.809   4.624  16.553  0.00  0.00    +0.000 S 
BRANCH  12  13
ATOM     13  C   UNL     1       5.870   6.164  16.838  0.00  0.00    +0.000 C 
BRANCH  13  14
ATOM     14  C   UNL     1       4.434   5.770  17.213  0.00  0.00    +0.000 C 
BRANCH  14  15
ATOM     15  S   UNL     1       4.191   5.817  19.027  0.00  0.00    +0.000 S 
BRANCH  15  16
ATOM     16  C   UNL     1       2.825   4.686  19.313  0.00  0.00    +0.000 A 
ATOM     17  C   UNL     1       2.115   4.558  20.513  0.00  0.00    +0.000 A 
ATOM     18  C   UNL     1       1.066   3.636  20.627  0.00  0.00    +0.000 A 
ATOM     19  C   UNL     1       0.710   2.833  19.546  0.00  0.00    +0.000 A 
ATOM     20  C   UNL     1       1.404   2.950  18.346  0.00  0.00    +0.000 A 
ATOM     21  C   UNL     1       2.450   3.870  18.233  0.00  0.00    +0.000 A 
ENDBRANCH  15  16
ENDBRANCH  14  15
ENDBRANCH  13  14
ENDBRANCH  12  13
ENDBRANCH   6  12
TORSDOF 6
ENDMDL
MODEL 6
REMARK VINA RESULT:      -6.6      3.271      4.294
REMARK  Name = 
REMARK  6 active torsions:
REMARK  status: ('A' for Active; 'I' for Inactive)
REMARK    1  A    between atoms: C_4  and  O_5
REMARK    2  A    between atoms: C_7  and  S_8
REMARK    3  A    between atoms: S_8  and  C_9
REMARK    4  A    between atoms: C_9  and  C_10
REMARK    5  A    between atoms: C_10  and  S_11
REMARK    6  A    between atoms: S_11  and  C_12
REMARK                            x       y       z     vdW  Elec       q    Type
REMARK                         _______ _______ _______ _____ _____    ______ ____
ROOT
ATOM      1  N   UNL     1       8.700   6.297  12.388  0.00  0.00    +0.000 N 
ATOM      2  C   UNL     1       7.857   5.348  12.971  0.00  0.00    +0.000 A 
ATOM      3  C   UNL     1       7.223   4.425  12.168  0.00  0.00    +0.000 A 
ATOM      4  C   UNL     1       6.388   3.559  12.818  0.00  0.00    +0.000 A 
ATOM      5  N   UNL     1       6.166   3.586  14.131  0.00  0.00    +0.000 NA
ATOM      6  C   UNL     1       6.807   4.535  14.827  0.00  0.00    +0.000 A 
ATOM      7  N   UNL     1       7.659   5.431  14.296  0.00  0.00    +0.000 NA
ATOM      8  H   UNL     1       9.395   5.884  11.774  0.00  0.00    +0.000 HD
ATOM      9  H   UNL     1       9.122   6.855  13.124  0.00  0.00    +0.000 HD
ENDROOT
BRANCH   4  10
ATOM     10  O   UNL     1       5.709   2.587  12.144  0.00  0.00    +0.000 OA
ATOM     11  H   UNL     1       5.151   3.004  11.470  0.00  0.00    +0.000 HD
ENDBRANCH   4  10
BRANCH   6  12
ATOM     12  S   UNL     1       6.436   4.546  16.567  0.00  0.00    +0.000 S 
BRANCH  12  13
ATOM     13  C   UNL     1       4.758   5.265  16.631  0.00  0.00    +0.000 C 
BRANCH  13  14
ATOM     14  C   UNL     1       4.656   6.095  17.919  0.00  0.00    +0.000 C 
BRANCH  14  15
ATOM     15  S   UNL     1       2.929   6.611  18.234  0.00  0.00    +0.000 S 
BRANCH  15  16
ATOM     16  C   UNL     1       2.140   5.126  18.869  0.00  0.00    +0.000 A 
ATOM     17  C   UNL     1       1.630   4.082  18.089  0.00  0.00    +0.000 A 
ATOM     18  C   UNL     1       1.027   2.970  18.691  0.00  0.00    +0.000 A 
ATOM     19  C   UNL     1       0.930   2.883  20.077  0.00  0.00    +0.000 A 
ATOM     20  C   UNL     1       1.434   3.912  20.867  0.00  0.00    +0.000 A 
ATOM     21  C   UNL     1       2.035   5.021  20.265  0.00  0.00    +0.000 A 
ENDBRANCH  15  16
ENDBRANCH  14  15
ENDBRANCH  13  14
ENDBRANCH  12  13
ENDBRANCH   6  12
TORSDOF 6
ENDMDL
MODEL 7
REMARK VINA RESULT:      -6.6      3.295      4.385
REMARK  Name = 
REMARK  6 active torsions:
REMARK  status: ('A' for Active; 'I' for Inactive)
REMARK    1  A    between atoms: C_4  and  O_5
REMARK    2  A    between atoms: C_7  and  S_8
REMARK    3  A    between atoms: S_8  and  C_9
REMARK    4  A    between atoms: C_9  and  C_10
REMARK    5  A    between atoms: C_10  and  S_11
REMARK    6  A    between atoms: S_11  and  C_12
REMARK                            x       y       z     vdW  Elec       q    Type
REMARK                         _______ _______ _______ _____ _____    ______ ____
ROOT
ATOM      1  N   UNL     1       8.546   6.338  12.122  0.00  0.00    +0.000 N 
ATOM      2  C   UNL     1       7.787   5.372  12.788  0.00  0.00    +0.000 A 
ATOM      3  C   UNL     1       7.135   4.405  12.056  0.00  0.00    +0.000 A 
ATOM      4  C   UNL     1       6.386   3.524  12.786  0.00  0.00    +0.000 A 
ATOM      5  N   UNL     1       6.259   3.576  14.111  0.00  0.00    +0.000 NA
ATOM      6  C   UNL     1       6.909   4.568  14.735  0.00  0.00    +0.000 A 
ATOM      7  N   UNL     1       7.683   5.482  14.122  0.00  0.00    +0.000 NA
ATOM      8  H   UNL     1       9.210   5.936  11.469  0.00  0.00    +0.000 HD
ATOM      9  H   UNL     1       8.998   6.931  12.812  0.00  0.00    +0.000 HD
ENDROOT
BRANCH   4  10
ATOM     10  O   UNL     1       5.699   2.509  12.186  0.00  0.00    +0.000 OA
ATOM     11  H   UNL     1       6.290   2.053  11.568  0.00  0.00    +0.000 HD
ENDBRANCH   4  10
BRANCH   6  12
ATOM     12  S   UNL     1       6.666   4.610  16.497  0.00  0.00    +0.000 S 
BRANCH  12  13
ATOM     13  C   UNL     1       5.533   6.023  16.728  0.00  0.00    +0.000 C 
BRANCH  13  14
ATOM     14  C   UNL     1       4.937   5.916  18.139  0.00  0.00    +0.000 C 
BRANCH  14  15
ATOM     15  S   UNL     1       3.216   6.538  18.175  0.00  0.00    +0.000 S 
BRANCH  15  16
ATOM     16  C   UNL     1       2.279   5.186  18.896  0.00  0.00    +0.000 A 
ATOM     17  C   UNL     1       1.935   5.067  20.248  0.00  0.00    +0.000 A 
ATOM     18  C   UNL     1       1.204   3.962  20.704  0.00  0.00    +0.000 A 
ATOM     19  C   UNL     1       0.803   2.965  19.818  0.00  0.00    +0.000 A 
ATOM     20  C   UNL     1       1.135   3.069  18.471  0.00  0.00    +0.000 A 
ATOM     21  C   UNL     1       1.864   4.172  18.017  0.00  0.00    +0.000 A 
ENDBRANCH  15  16
ENDBRANCH  14  15
ENDBRANCH  13  14
ENDBRANCH  12  13
ENDBRANCH   6  12
TORSDOF 6
ENDMDL
MODEL 8
REMARK VINA RESULT:      -6.6      2.937      4.131
REMARK  Name = 
REMARK  6 active torsions:
REMARK  status: ('A' for Active; 'I' for Inactive)
REMARK    1  A    between atoms: C_4  and  O_5
REMARK    2  A    between atoms: C_7  and  S_8
REMARK    3  A    between atoms: S_8  and  C_9
REMARK    4  A    between atoms: C_9  and  C_10
REMARK    5  A    between atoms: C_10  and  S_11
REMARK    6  A    between atoms: S_11  and  C_12
REMARK                            x       y       z     vdW  Elec       q    Type
REMARK                         _______ _______ _______ _____ _____    ______ ____
ROOT
ATOM      1  N   UNL     1       5.744   2.743  11.794  0.00  0.00    +0.000 N 
ATOM      2  C   UNL     1       6.312   3.609  12.731  0.00  0.00    +0.000 A 
ATOM      3  C   UNL     1       7.345   4.435  12.345  0.00  0.00    +0.000 A 
ATOM      4  C   UNL     1       7.866   5.223  13.334  0.00  0.00    +0.000 A 
ATOM      5  N   UNL     1       7.441   5.208  14.596  0.00  0.00    +0.000 NA
ATOM      6  C   UNL     1       6.449   4.353  14.884  0.00  0.00    +0.000 A 
ATOM      7  N   UNL     1       5.854   3.542  13.991  0.00  0.00    +0.000 NA
ATOM      8  H   UNL     1       5.468   3.211  10.938  0.00  0.00    +0.000 HD
ATOM      9  H   UNL     1       4.967   2.254  12.231  0.00  0.00    +0.000 HD
ENDROOT
BRANCH   4  10
ATOM     10  O   UNL     1       8.884   6.096  13.084  0.00  0.00    +0.000 OA
ATOM     11  H   UNL     1       9.479   6.111  13.848  0.00  0.00    +0.000 HD
ENDBRANCH   4  10
BRANCH   6  12
ATOM     12  S   UNL     1       5.957   4.350  16.593  0.00  0.00    +0.000 S 
BRANCH  12  13
ATOM     13  C   UNL     1       5.757   6.125  16.973  0.00  0.00    +0.000 C 
BRANCH  13  14
ATOM     14  C   UNL     1       4.287   6.357  17.351  0.00  0.00    +0.000 C 
BRANCH  14  15
ATOM     15  S   UNL     1       4.021   6.104  19.144  0.00  0.00    +0.000 S 
BRANCH  15  16
ATOM     16  C   UNL     1       2.740   4.847  19.221  0.00  0.00    +0.000 A 
ATOM     17  C   UNL     1       2.240   4.131  18.127  0.00  0.00    +0.000 A 
ATOM     18  C   UNL     1       1.232   3.173  18.301  0.00  0.00    +0.000 A 
ATOM     19  C   UNL     1       0.714   2.914  19.567  0.00  0.00    +0.000 A 
ATOM     20  C   UNL     1       1.202   3.616  20.665  0.00  0.00    +0.000 A 
ATOM     21  C   UNL     1       2.207   4.571  20.490  0.00  0.00    +0.000 A 
ENDBRANCH  15  16
ENDBRANCH  14  15
ENDBRANCH  13  14
ENDBRANCH  12  13
ENDBRANCH   6  12
TORSDOF 6
ENDMDL
MODEL 9
REMARK VINA RESULT:      -6.4      2.882      4.069
REMARK  Name = 
REMARK  6 active torsions:
REMARK  status: ('A' for Active; 'I' for Inactive)
REMARK    1  A    between atoms: C_4  and  O_5
REMARK    2  A    between atoms: C_7  and  S_8
REMARK    3  A    between atoms: S_8  and  C_9
REMARK    4  A    between atoms: C_9  and  C_10
REMARK    5  A    between atoms: C_10  and  S_11
REMARK    6  A    between atoms: S_11  and  C_12
REMARK                            x       y       z     vdW  Elec       q    Type
REMARK                         _______ _______ _______ _____ _____    ______ ____
ROOT
ATOM      1  N   UNL     1       5.819   2.445  11.802  0.00  0.00    +0.000 N 
ATOM      2  C   UNL     1       6.227   3.462  12.669  0.00  0.00    +0.000 A 
ATOM      3  C   UNL     1       7.338   4.212  12.353  0.00  0.00    +0.000 A 
ATOM      4  C   UNL     1       7.687   5.159  13.275  0.00  0.00    +0.000 A 
ATOM      5  N   UNL     1       7.032   5.360  14.418  0.00  0.00    +0.000 NA
ATOM      6  C   UNL     1       5.979   4.565  14.651  0.00  0.00    +0.000 A 
ATOM      7  N   UNL     1       5.538   3.611  13.811  0.00  0.00    +0.000 NA
ATOM      8  H   UNL     1       5.724   2.759  10.842  0.00  0.00    +0.000 HD
ATOM      9  H   UNL     1       4.960   2.037  12.159  0.00  0.00    +0.000 HD
ENDROOT
BRANCH   4  10
ATOM     10  O   UNL     1       8.759   5.979  13.080  0.00  0.00    +0.000 OA
ATOM     11  H   UNL     1       9.274   6.022  13.899  0.00  0.00    +0.000 HD
ENDBRANCH   4  10
BRANCH   6  12
ATOM     12  S   UNL     1       5.173   4.854  16.211  0.00  0.00    +0.000 S 
BRANCH  12  13
ATOM     13  C   UNL     1       6.525   4.651  17.422  0.00  0.00    +0.000 C 
BRANCH  13  14
ATOM     14  C   UNL     1       5.984   5.068  18.797  0.00  0.00    +0.000 C 
BRANCH  14  15
ATOM     15  S   UNL     1       4.352   5.883  18.642  0.00  0.00    +0.000 S 
BRANCH  15  16
ATOM     16  C   UNL     1       3.232   4.783  19.516  0.00  0.00    +0.000 A 
ATOM     17  C   UNL     1       1.963   5.130  19.994  0.00  0.00    +0.000 A 
ATOM     18  C   UNL     1       1.173   4.190  20.670  0.00  0.00    +0.000 A 
ATOM     19  C   UNL     1       1.637   2.893  20.874  0.00  0.00    +0.000 A 
ATOM     20  C   UNL     1       2.896   2.532  20.403  0.00  0.00    +0.000 A 
ATOM     21  C   UNL     1       3.682   3.470  19.729  0.00  0.00    +0.000 A 
ENDBRANCH  15  16
ENDBRANCH  14  15
ENDBRANCH  13  14
ENDBRANCH  12  13
ENDBRANCH   6  12
TORSDOF 6
ENDMDL
