MODEL 1
REMARK VINA RESULT:      -6.6      0.000      0.000
REMARK  Name = 
REMARK  9 active torsions:
REMARK  status: ('A' for Active; 'I' for Inactive)
REMARK    1  A    between atoms: C_1  and  C_2
REMARK    2  A    between atoms: C_2  and  N_3
REMARK    3  A    between atoms: C_2  and  C_18
REMARK    4  A    between atoms: N_6  and  C_7
REMARK    5  A    between atoms: C_7  and  C_8
REMARK    6  A    between atoms: C_8  and  C_9
REMARK    7  A    between atoms: C_11  and  C_12
REMARK    8  A    between atoms: N_20  and  C_21
REMARK    9  A    between atoms: N_20  and  C_22
REMARK                            x       y       z     vdW  Elec       q    Type
REMARK                         _______ _______ _______ _____ _____    ______ ____
ROOT
ATOM      1  N   UNL     1       5.582   3.325  18.992  0.00  0.00    +0.000 N 
ATOM      2  C   UNL     1       6.011   4.589  19.293  0.00  0.00    +0.000 C 
ATOM      3  O   UNL     1       5.277   5.461  19.736  0.00  0.00    +0.000 OA
ATOM      4  N   UNL     1       7.327   4.801  18.990  0.00  0.00    +0.000 N 
ATOM      5  H   UNL     1       6.252   2.614  18.735  0.00  0.00    +0.000 HD
ATOM      6  H   UNL     1       7.948   4.007  18.912  0.00  0.00    +0.000 HD
ENDROOT
BRANCH   1   8
ATOM      7  C   UNL     1       4.095   1.388  19.350  0.00  0.00    +0.000 C 
ATOM      8  C   UNL     1       4.206   2.914  19.272  0.00  0.00    +0.000 C 
BRANCH   8   9
ATOM      9  C   UNL     1       3.239   3.450  18.191  0.00  0.00    +0.000 C 
ATOM     10  O   UNL     1       3.550   3.385  16.996  0.00  0.00    +0.000 OA
ATOM     11  N   UNL     1       2.056   4.062  18.597  0.00  0.00    +0.000 N 
ATOM     12  C   UNL     1       1.668   4.333  19.974  0.00  0.00    +0.000 C 
ATOM     13  C   UNL     1       1.097   4.479  17.583  0.00  0.00    +0.000 C 
ENDBRANCH   8   9
ENDBRANCH   1   8
BRANCH   4  14
ATOM     14  C   UNL     1       7.955   6.098  19.208  0.00  0.00    +0.000 C 
BRANCH  14  15
ATOM     15  C   UNL     1       7.860   7.058  18.017  0.00  0.00    +0.000 C 
BRANCH  15  16
ATOM     16  C   UNL     1       6.934   6.572  16.939  0.00  0.00    +0.000 A 
ATOM     17  N   UNL     1       7.221   5.646  16.047  0.00  0.00    +0.000 NA
ATOM     18  C   UNL     1       6.127   5.413  15.205  0.00  0.00    +0.000 A 
ATOM     19  C   UNL     1       5.027   6.204  15.488  0.00  0.00    +0.000 A 
ATOM     20  S   UNL     1       5.349   7.233  16.817  0.00  0.00    +0.000 S 
BRANCH  18  21
ATOM     21  C   UNL     1       6.199   4.382  14.118  0.00  0.00    +0.000 C 
ATOM     22  F   UNL     1       5.027   4.235  13.448  0.00  0.00    +0.000 F 
ATOM     23  F   UNL     1       7.145   4.697  13.192  0.00  0.00    +0.000 F 
ATOM     24  F   UNL     1       6.530   3.157  14.606  0.00  0.00    +0.000 F 
ENDBRANCH  18  21
ENDBRANCH  15  16
ENDBRANCH  14  15
ENDBRANCH   4  14
TORSDOF 6
ENDMDL
MODEL 2
REMARK VINA RESULT:      -6.2      5.705      7.274
REMARK  Name = 
REMARK  9 active torsions:
REMARK  status: ('A' for Active; 'I' for Inactive)
REMARK    1  A    between atoms: C_1  and  C_2
REMARK    2  A    between atoms: C_2  and  N_3
REMARK    3  A    between atoms: C_2  and  C_18
REMARK    4  A    between atoms: N_6  and  C_7
REMARK    5  A    between atoms: C_7  and  C_8
REMARK    6  A    between atoms: C_8  and  C_9
REMARK    7  A    between atoms: C_11  and  C_12
REMARK    8  A    between atoms: N_20  and  C_21
REMARK    9  A    between atoms: N_20  and  C_22
REMARK                            x       y       z     vdW  Elec       q    Type
REMARK                         _______ _______ _______ _____ _____    ______ ____
ROOT
ATOM      1  N   UNL     1       1.780   9.263  18.003  0.00  0.00    +0.000 N 
ATOM      2  C   UNL     1       2.385   8.127  18.470  0.00  0.00    +0.000 C 
ATOM      3  O   UNL     1       2.143   7.636  19.563  0.00  0.00    +0.000 OA
ATOM      4  N   UNL     1       3.334   7.631  17.620  0.00  0.00    +0.000 N 
ATOM      5  H   UNL     1       1.936   9.561  17.051  0.00  0.00    +0.000 HD
ATOM      6  H   UNL     1       3.295   7.878  16.640  0.00  0.00    +0.000 HD
ENDROOT
BRANCH   1   8
ATOM      7  C   UNL     1      -0.576   9.995  17.962  0.00  0.00    +0.000 C 
ATOM      8  C   UNL     1       0.722   9.917  18.772  0.00  0.00    +0.000 C 
BRANCH   8   9
ATOM      9  C   UNL     1       1.151  11.340  19.202  0.00  0.00    +0.000 C 
ATOM     10  O   UNL     1       1.809  12.046  18.430  0.00  0.00    +0.000 OA
ATOM     11  N   UNL     1       0.839  11.772  20.488  0.00  0.00    +0.000 N 
ATOM     12  C   UNL     1       0.210  10.967  21.526  0.00  0.00    +0.000 C 
ATOM     13  C   UNL     1       1.153  13.144  20.864  0.00  0.00    +0.000 C 
ENDBRANCH   8   9
ENDBRANCH   1   8
BRANCH   4  14
ATOM     14  C   UNL     1       4.110   6.445  17.961  0.00  0.00    +0.000 C 
BRANCH  14  15
ATOM     15  C   UNL     1       3.679   5.171  17.228  0.00  0.00    +0.000 C 
BRANCH  15  16
ATOM     16  C   UNL     1       3.178   4.099  18.152  0.00  0.00    +0.000 A 
ATOM     17  N   UNL     1       2.985   4.238  19.448  0.00  0.00    +0.000 NA
ATOM     18  C   UNL     1       2.488   3.054  20.005  0.00  0.00    +0.000 A 
ATOM     19  C   UNL     1       2.332   2.028  19.088  0.00  0.00    +0.000 A 
ATOM     20  S   UNL     1       2.794   2.543  17.523  0.00  0.00    +0.000 S 
BRANCH  18  21
ATOM     21  C   UNL     1       2.165   2.968  21.468  0.00  0.00    +0.000 C 
ATOM     22  F   UNL     1       2.396   4.131  22.131  0.00  0.00    +0.000 F 
ATOM     23  F   UNL     1       0.858   2.651  21.674  0.00  0.00    +0.000 F 
ATOM     24  F   UNL     1       2.899   2.008  22.090  0.00  0.00    +0.000 F 
ENDBRANCH  18  21
ENDBRANCH  15  16
ENDBRANCH  14  15
ENDBRANCH   4  14
TORSDOF 6
ENDMDL
MODEL 3
REMARK VINA RESULT:      -6.1      0.931      1.238
REMARK  Name = 
REMARK  9 active torsions:
REMARK  status: ('A' for Active; 'I' for Inactive)
REMARK    1  A    between atoms: C_1  and  C_2
REMARK    2  A    between atoms: C_2  and  N_3
REMARK    3  A    between atoms: C_2  and  C_18
REMARK    4  A    between atoms: N_6  and  C_7
REMARK    5  A    between atoms: C_7  and  C_8
REMARK    6  A    between atoms: C_8  and  C_9
REMARK    7  A    between atoms: C_11  and  C_12
REMARK    8  A    between atoms: N_20  and  C_21
REMARK    9  A    between atoms: N_20  and  C_22
REMARK                            x       y       z     vdW  Elec       q    Type
REMARK                         _______ _______ _______ _____ _____    ______ ____
ROOT
ATOM      1  N   UNL     1       5.537   3.288  19.146  0.00  0.00    +0.000 N 
ATOM      2  C   UNL     1       6.075   4.530  19.348  0.00  0.00    +0.000 C 
ATOM      3  O   UNL     1       5.583   5.365  20.093  0.00  0.00    +0.000 OA
ATOM      4  N   UNL     1       7.184   4.770  18.586  0.00  0.00    +0.000 N 
ATOM      5  H   UNL     1       6.045   2.601  18.607  0.00  0.00    +0.000 HD
ATOM      6  H   UNL     1       7.712   3.986  18.224  0.00  0.00    +0.000 HD
ENDROOT
BRANCH   1   8
ATOM      7  C   UNL     1       4.690   1.643  20.778  0.00  0.00    +0.000 C 
ATOM      8  C   UNL     1       4.360   2.851  19.897  0.00  0.00    +0.000 C 
BRANCH   8   9
ATOM      9  C   UNL     1       3.197   2.496  18.941  0.00  0.00    +0.000 C 
ATOM     10  O   UNL     1       3.425   1.892  17.887  0.00  0.00    +0.000 OA
ATOM     11  N   UNL     1       1.912   2.926  19.262  0.00  0.00    +0.000 N 
ATOM     12  C   UNL     1       1.558   3.775  20.391  0.00  0.00    +0.000 C 
ATOM     13  C   UNL     1       0.800   2.510  18.419  0.00  0.00    +0.000 C 
ENDBRANCH   8   9
ENDBRANCH   1   8
BRANCH   4  14
ATOM     14  C   UNL     1       7.876   6.051  18.637  0.00  0.00    +0.000 C 
BRANCH  14  15
ATOM     15  C   UNL     1       7.611   6.966  17.436  0.00  0.00    +0.000 C 
BRANCH  15  16
ATOM     16  C   UNL     1       6.712   6.344  16.407  0.00  0.00    +0.000 A 
ATOM     17  N   UNL     1       7.098   5.515  15.458  0.00  0.00    +0.000 NA
ATOM     18  C   UNL     1       6.005   5.102  14.687  0.00  0.00    +0.000 A 
ATOM     19  C   UNL     1       4.800   5.660  15.081  0.00  0.00    +0.000 A 
ATOM     20  S   UNL     1       5.027   6.693  16.427  0.00  0.00    +0.000 S 
BRANCH  18  21
ATOM     21  C   UNL     1       6.185   4.135  13.554  0.00  0.00    +0.000 C 
ATOM     22  F   UNL     1       7.168   4.504  12.693  0.00  0.00    +0.000 F 
ATOM     23  F   UNL     1       6.502   2.891  14.003  0.00  0.00    +0.000 F 
ATOM     24  F   UNL     1       5.048   4.003  12.820  0.00  0.00    +0.000 F 
ENDBRANCH  18  21
ENDBRANCH  15  16
ENDBRANCH  14  15
ENDBRANCH   4  14
TORSDOF 6
ENDMDL
MODEL 4
REMARK VINA RESULT:      -6.1      4.819      7.584
REMARK  Name = 
REMARK  9 active torsions:
REMARK  status: ('A' for Active; 'I' for Inactive)
REMARK    1  A    between atoms: C_1  and  C_2
REMARK    2  A    between atoms: C_2  and  N_3
REMARK    3  A    between atoms: C_2  and  C_18
REMARK    4  A    between atoms: N_6  and  C_7
REMARK    5  A    between atoms: C_7  and  C_8
REMARK    6  A    between atoms: C_8  and  C_9
REMARK    7  A    between atoms: C_11  and  C_12
REMARK    8  A    between atoms: N_20  and  C_21
REMARK    9  A    between atoms: N_20  and  C_22
REMARK                            x       y       z     vdW  Elec       q    Type
REMARK                         _______ _______ _______ _____ _____    ______ ____
ROOT
ATOM      1  N   UNL     1       9.223   9.670  19.206  0.00  0.00    +0.000 N 
ATOM      2  C   UNL     1       8.464   8.813  18.456  0.00  0.00    +0.000 C 
ATOM      3  O   UNL     1       7.786   9.171  17.503  0.00  0.00    +0.000 OA
ATOM      4  N   UNL     1       8.487   7.526  18.915  0.00  0.00    +0.000 N 
ATOM      5  H   UNL     1       9.848   9.305  19.910  0.00  0.00    +0.000 HD
ATOM      6  H   UNL     1       9.259   7.224  19.495  0.00  0.00    +0.000 HD
ENDROOT
BRANCH   1   8
ATOM      7  C   UNL     1      10.573  11.332  17.979  0.00  0.00    +0.000 C 
ATOM      8  C   UNL     1       9.334  11.083  18.845  0.00  0.00    +0.000 C 
BRANCH   8   9
ATOM      9  C   UNL     1       9.396  11.973  20.108  0.00  0.00    +0.000 C 
ATOM     10  O   UNL     1       9.783  11.496  21.181  0.00  0.00    +0.000 OA
ATOM     11  N   UNL     1       8.946  13.288  20.023  0.00  0.00    +0.000 N 
ATOM     12  C   UNL     1       8.326  13.900  18.856  0.00  0.00    +0.000 C 
ATOM     13  C   UNL     1       9.094  14.158  21.182  0.00  0.00    +0.000 C 
ENDBRANCH   8   9
ENDBRANCH   1   8
BRANCH   4  14
ATOM     14  C   UNL     1       7.712   6.476  18.267  0.00  0.00    +0.000 C 
BRANCH  14  15
ATOM     15  C   UNL     1       6.933   5.574  19.231  0.00  0.00    +0.000 C 
BRANCH  15  16
ATOM     16  C   UNL     1       5.863   4.768  18.551  0.00  0.00    +0.000 A 
ATOM     17  N   UNL     1       4.850   4.183  19.157  0.00  0.00    +0.000 NA
ATOM     18  C   UNL     1       4.025   3.536  18.228  0.00  0.00    +0.000 A 
ATOM     19  C   UNL     1       4.465   3.645  16.920  0.00  0.00    +0.000 A 
ATOM     20  S   UNL     1       5.904   4.569  16.842  0.00  0.00    +0.000 S 
BRANCH  18  21
ATOM     21  C   UNL     1       2.788   2.813  18.671  0.00  0.00    +0.000 C 
ATOM     22  F   UNL     1       2.331   1.928  17.747  0.00  0.00    +0.000 F 
ATOM     23  F   UNL     1       3.002   2.111  19.816  0.00  0.00    +0.000 F 
ATOM     24  F   UNL     1       1.767   3.673  18.930  0.00  0.00    +0.000 F 
ENDBRANCH  18  21
ENDBRANCH  15  16
ENDBRANCH  14  15
ENDBRANCH   4  14
TORSDOF 6
ENDMDL
MODEL 5
REMARK VINA RESULT:      -6.1      4.532      7.584
REMARK  Name = 
REMARK  9 active torsions:
REMARK  status: ('A' for Active; 'I' for Inactive)
REMARK    1  A    between atoms: C_1  and  C_2
REMARK    2  A    between atoms: C_2  and  N_3
REMARK    3  A    between atoms: C_2  and  C_18
REMARK    4  A    between atoms: N_6  and  C_7
REMARK    5  A    between atoms: C_7  and  C_8
REMARK    6  A    between atoms: C_8  and  C_9
REMARK    7  A    between atoms: C_11  and  C_12
REMARK    8  A    between atoms: N_20  and  C_21
REMARK    9  A    between atoms: N_20  and  C_22
REMARK                            x       y       z     vdW  Elec       q    Type
REMARK                         _______ _______ _______ _____ _____    ______ ____
ROOT
ATOM      1  N   UNL     1       8.211   9.780  17.663  0.00  0.00    +0.000 N 
ATOM      2  C   UNL     1       7.955   8.456  17.901  0.00  0.00    +0.000 C 
ATOM      3  O   UNL     1       8.639   7.761  18.637  0.00  0.00    +0.000 OA
ATOM      4  N   UNL     1       6.897   7.972  17.184  0.00  0.00    +0.000 N 
ATOM      5  H   UNL     1       7.550  10.333  17.135  0.00  0.00    +0.000 HD
ATOM      6  H   UNL     1       6.203   8.618  16.833  0.00  0.00    +0.000 HD
ENDROOT
BRANCH   1   8
ATOM      7  C   UNL     1       9.073  10.440  19.879  0.00  0.00    +0.000 C 
ATOM      8  C   UNL     1       9.293  10.471  18.363  0.00  0.00    +0.000 C 
BRANCH   8   9
ATOM      9  C   UNL     1       9.412  11.937  17.886  0.00  0.00    +0.000 C 
ATOM     10  O   UNL     1       8.410  12.539  17.482  0.00  0.00    +0.000 OA
ATOM     11  N   UNL     1      10.670  12.533  17.859  0.00  0.00    +0.000 N 
ATOM     12  C   UNL     1      11.931  11.869  18.160  0.00  0.00    +0.000 C 
ATOM     13  C   UNL     1      10.774  13.942  17.505  0.00  0.00    +0.000 C 
ENDBRANCH   8   9
ENDBRANCH   1   8
BRANCH   4  14
ATOM     14  C   UNL     1       6.495   6.574  17.278  0.00  0.00    +0.000 C 
BRANCH  14  15
ATOM     15  C   UNL     1       5.164   6.248  16.593  0.00  0.00    +0.000 C 
BRANCH  15  16
ATOM     16  C   UNL     1       4.257   5.400  17.436  0.00  0.00    +0.000 A 
ATOM     17  N   UNL     1       4.422   4.115  17.678  0.00  0.00    +0.000 NA
ATOM     18  C   UNL     1       3.413   3.636  18.522  0.00  0.00    +0.000 A 
ATOM     19  C   UNL     1       2.486   4.598  18.886  0.00  0.00    +0.000 A 
ATOM     20  S   UNL     1       2.880   6.110  18.186  0.00  0.00    +0.000 S 
BRANCH  18  21
ATOM     21  C   UNL     1       3.395   2.202  18.963  0.00  0.00    +0.000 C 
ATOM     22  F   UNL     1       3.345   1.328  17.924  0.00  0.00    +0.000 F 
ATOM     23  F   UNL     1       4.502   1.888  19.688  0.00  0.00    +0.000 F 
ATOM     24  F   UNL     1       2.324   1.932  19.756  0.00  0.00    +0.000 F 
ENDBRANCH  18  21
ENDBRANCH  15  16
ENDBRANCH  14  15
ENDBRANCH   4  14
TORSDOF 6
ENDMDL
MODEL 6
REMARK VINA RESULT:      -6.1      5.041      8.057
REMARK  Name = 
REMARK  9 active torsions:
REMARK  status: ('A' for Active; 'I' for Inactive)
REMARK    1  A    between atoms: C_1  and  C_2
REMARK    2  A    between atoms: C_2  and  N_3
REMARK    3  A    between atoms: C_2  and  C_18
REMARK    4  A    between atoms: N_6  and  C_7
REMARK    5  A    between atoms: C_7  and  C_8
REMARK    6  A    between atoms: C_8  and  C_9
REMARK    7  A    between atoms: C_11  and  C_12
REMARK    8  A    between atoms: N_20  and  C_21
REMARK    9  A    between atoms: N_20  and  C_22
REMARK                            x       y       z     vdW  Elec       q    Type
REMARK                         _______ _______ _______ _____ _____    ______ ____
ROOT
ATOM      1  N   UNL     1       8.163   9.802  17.632  0.00  0.00    +0.000 N 
ATOM      2  C   UNL     1       7.829   8.500  17.890  0.00  0.00    +0.000 C 
ATOM      3  O   UNL     1       8.483   7.769  18.620  0.00  0.00    +0.000 OA
ATOM      4  N   UNL     1       6.727   8.077  17.201  0.00  0.00    +0.000 N 
ATOM      5  H   UNL     1       7.528  10.391  17.112  0.00  0.00    +0.000 HD
ATOM      6  H   UNL     1       6.068   8.763  16.857  0.00  0.00    +0.000 HD
ENDROOT
BRANCH   1   8
ATOM      7  C   UNL     1       9.157  10.345  19.824  0.00  0.00    +0.000 C 
ATOM      8  C   UNL     1       9.302  10.430  18.301  0.00  0.00    +0.000 C 
BRANCH   8   9
ATOM      9  C   UNL     1       9.446  11.909  17.874  0.00  0.00    +0.000 C 
ATOM     10  O   UNL     1       8.461  12.533  17.463  0.00  0.00    +0.000 OA
ATOM     11  N   UNL     1      10.710  12.492  17.900  0.00  0.00    +0.000 N 
ATOM     12  C   UNL     1      11.956  11.806  18.213  0.00  0.00    +0.000 C 
ATOM     13  C   UNL     1      10.837  13.910  17.594  0.00  0.00    +0.000 C 
ENDBRANCH   8   9
ENDBRANCH   1   8
BRANCH   4  14
ATOM     14  C   UNL     1       6.239   6.708  17.319  0.00  0.00    +0.000 C 
BRANCH  14  15
ATOM     15  C   UNL     1       4.716   6.585  17.441  0.00  0.00    +0.000 C 
BRANCH  15  16
ATOM     16  C   UNL     1       4.284   5.467  18.345  0.00  0.00    +0.000 A 
ATOM     17  N   UNL     1       3.221   5.483  19.123  0.00  0.00    +0.000 NA
ATOM     18  C   UNL     1       3.094   4.272  19.813  0.00  0.00    +0.000 A 
ATOM     19  C   UNL     1       4.103   3.364  19.539  0.00  0.00    +0.000 A 
ATOM     20  S   UNL     1       5.206   4.015  18.403  0.00  0.00    +0.000 S 
BRANCH  18  21
ATOM     21  C   UNL     1       1.945   4.036  20.748  0.00  0.00    +0.000 C 
ATOM     22  F   UNL     1       1.307   2.859  20.519  0.00  0.00    +0.000 F 
ATOM     23  F   UNL     1       2.352   4.017  22.046  0.00  0.00    +0.000 F 
ATOM     24  F   UNL     1       1.007   5.016  20.652  0.00  0.00    +0.000 F 
ENDBRANCH  18  21
ENDBRANCH  15  16
ENDBRANCH  14  15
ENDBRANCH   4  14
TORSDOF 6
ENDMDL
MODEL 7
REMARK VINA RESULT:      -6.0      5.917      7.351
REMARK  Name = 
REMARK  9 active torsions:
REMARK  status: ('A' for Active; 'I' for Inactive)
REMARK    1  A    between atoms: C_1  and  C_2
REMARK    2  A    between atoms: C_2  and  N_3
REMARK    3  A    between atoms: C_2  and  C_18
REMARK    4  A    between atoms: N_6  and  C_7
REMARK    5  A    between atoms: C_7  and  C_8
REMARK    6  A    between atoms: C_8  and  C_9
REMARK    7  A    between atoms: C_11  and  C_12
REMARK    8  A    between atoms: N_20  and  C_21
REMARK    9  A    between atoms: N_20  and  C_22
REMARK                            x       y       z     vdW  Elec       q    Type
REMARK                         _______ _______ _______ _____ _____    ______ ____
ROOT
ATOM      1  N   UNL     1       2.537   6.708  18.713  0.00  0.00    +0.000 N 
ATOM      2  C   UNL     1       2.021   7.028  19.940  0.00  0.00    +0.000 C 
ATOM      3  O   UNL     1       1.943   6.233  20.866  0.00  0.00    +0.000 OA
ATOM      4  N   UNL     1       1.544   8.307  20.010  0.00  0.00    +0.000 N 
ATOM      5  H   UNL     1       2.679   7.431  18.023  0.00  0.00    +0.000 HD
ATOM      6  H   UNL     1       1.884   8.996  19.352  0.00  0.00    +0.000 HD
ENDROOT
BRANCH   1   8
ATOM      7  C   UNL     1       4.062   5.421  17.262  0.00  0.00    +0.000 C 
ATOM      8  C   UNL     1       3.115   5.387  18.466  0.00  0.00    +0.000 C 
BRANCH   8   9
ATOM      9  C   UNL     1       2.007   4.336  18.225  0.00  0.00    +0.000 C 
ATOM     10  O   UNL     1       1.167   4.515  17.336  0.00  0.00    +0.000 OA
ATOM     11  N   UNL     1       1.941   3.229  19.068  0.00  0.00    +0.000 N 
ATOM     12  C   UNL     1       2.778   3.001  20.238  0.00  0.00    +0.000 C 
ATOM     13  C   UNL     1       0.963   2.188  18.785  0.00  0.00    +0.000 C 
ENDBRANCH   8   9
ENDBRANCH   1   8
BRANCH   4  14
ATOM     14  C   UNL     1       0.925   8.819  21.226  0.00  0.00    +0.000 C 
BRANCH  14  15
ATOM     15  C   UNL     1       0.769  10.343  21.266  0.00  0.00    +0.000 C 
BRANCH  15  16
ATOM     16  C   UNL     1       0.015  10.891  20.089  0.00  0.00    +0.000 A 
ATOM     17  N   UNL     1      -0.697  10.177  19.241  0.00  0.00    +0.000 NA
ATOM     18  C   UNL     1      -1.291  11.002  18.277  0.00  0.00    +0.000 A 
ATOM     19  C   UNL     1      -0.985  12.344  18.425  0.00  0.00    +0.000 A 
ATOM     20  S   UNL     1       0.034  12.584  19.779  0.00  0.00    +0.000 S 
BRANCH  18  21
ATOM     21  C   UNL     1      -2.174  10.424  17.210  0.00  0.00    +0.000 C 
ATOM     22  F   UNL     1      -3.397  10.060  17.673  0.00  0.00    +0.000 F 
ATOM     23  F   UNL     1      -2.383  11.312  16.200  0.00  0.00    +0.000 F 
ATOM     24  F   UNL     1      -1.622   9.318  16.644  0.00  0.00    +0.000 F 
ENDBRANCH  18  21
ENDBRANCH  15  16
ENDBRANCH  14  15
ENDBRANCH   4  14
TORSDOF 6
ENDMDL
MODEL 8
REMARK VINA RESULT:      -6.0      3.955      5.547
REMARK  Name = 
REMARK  9 active torsions:
REMARK  status: ('A' for Active; 'I' for Inactive)
REMARK    1  A    between atoms: C_1  and  C_2
REMARK    2  A    between atoms: C_2  and  N_3
REMARK    3  A    between atoms: C_2  and  C_18
REMARK    4  A    between atoms: N_6  and  C_7
REMARK    5  A    between atoms: C_7  and  C_8
REMARK    6  A    between atoms: C_8  and  C_9
REMARK    7  A    between atoms: C_11  and  C_12
REMARK    8  A    between atoms: N_20  and  C_21
REMARK    9  A    between atoms: N_20  and  C_22
REMARK                            x       y       z     vdW  Elec       q    Type
REMARK                         _______ _______ _______ _____ _____    ______ ____
ROOT
ATOM      1  N   UNL     1       1.970   6.751  20.954  0.00  0.00    +0.000 N 
ATOM      2  C   UNL     1       1.871   5.468  20.486  0.00  0.00    +0.000 C 
ATOM      3  O   UNL     1       1.199   5.157  19.514  0.00  0.00    +0.000 OA
ATOM      4  N   UNL     1       2.547   4.560  21.250  0.00  0.00    +0.000 N 
ATOM      5  H   UNL     1       2.626   6.968  21.691  0.00  0.00    +0.000 HD
ATOM      6  H   UNL     1       3.302   4.879  21.843  0.00  0.00    +0.000 HD
ENDROOT
BRANCH   1   8
ATOM      7  C   UNL     1       2.184   8.319  19.061  0.00  0.00    +0.000 C 
ATOM      8  C   UNL     1       1.329   7.858  20.245  0.00  0.00    +0.000 C 
BRANCH   8   9
ATOM      9  C   UNL     1       1.075   9.050  21.197  0.00  0.00    +0.000 C 
ATOM     10  O   UNL     1       1.621   9.082  22.306  0.00  0.00    +0.000 OA
ATOM     11  N   UNL     1       0.177  10.039  20.807  0.00  0.00    +0.000 N 
ATOM     12  C   UNL     1      -0.636  10.020  19.598  0.00  0.00    +0.000 C 
ATOM     13  C   UNL     1       0.009  11.212  21.654  0.00  0.00    +0.000 C 
ENDBRANCH   8   9
ENDBRANCH   1   8
BRANCH   4  14
ATOM     14  C   UNL     1       2.530   3.138  20.930  0.00  0.00    +0.000 C 
BRANCH  14  15
ATOM     15  C   UNL     1       3.892   2.559  20.532  0.00  0.00    +0.000 C 
BRANCH  15  16
ATOM     16  C   UNL     1       4.498   3.242  19.339  0.00  0.00    +0.000 A 
ATOM     17  N   UNL     1       5.656   3.869  19.328  0.00  0.00    +0.000 NA
ATOM     18  C   UNL     1       5.935   4.369  18.050  0.00  0.00    +0.000 A 
ATOM     19  C   UNL     1       4.943   4.109  17.119  0.00  0.00    +0.000 A 
ATOM     20  S   UNL     1       3.664   3.225  17.834  0.00  0.00    +0.000 S 
BRANCH  18  21
ATOM     21  C   UNL     1       7.213   5.106  17.774  0.00  0.00    +0.000 C 
ATOM     22  F   UNL     1       7.614   5.880  18.816  0.00  0.00    +0.000 F 
ATOM     23  F   UNL     1       8.235   4.251  17.504  0.00  0.00    +0.000 F 
ATOM     24  F   UNL     1       7.099   5.926  16.696  0.00  0.00    +0.000 F 
ENDBRANCH  18  21
ENDBRANCH  15  16
ENDBRANCH  14  15
ENDBRANCH   4  14
TORSDOF 6
ENDMDL
MODEL 9
REMARK VINA RESULT:      -6.0      3.902      5.435
REMARK  Name = 
REMARK  9 active torsions:
REMARK  status: ('A' for Active; 'I' for Inactive)
REMARK    1  A    between atoms: C_1  and  C_2
REMARK    2  A    between atoms: C_2  and  N_3
REMARK    3  A    between atoms: C_2  and  C_18
REMARK    4  A    between atoms: N_6  and  C_7
REMARK    5  A    between atoms: C_7  and  C_8
REMARK    6  A    between atoms: C_8  and  C_9
REMARK    7  A    between atoms: C_11  and  C_12
REMARK    8  A    between atoms: N_20  and  C_21
REMARK    9  A    between atoms: N_20  and  C_22
REMARK                            x       y       z     vdW  Elec       q    Type
REMARK                         _______ _______ _______ _____ _____    ______ ____
ROOT
ATOM      1  N   UNL     1       1.296   7.165  21.226  0.00  0.00    +0.000 N 
ATOM      2  C   UNL     1       1.807   6.250  20.346  0.00  0.00    +0.000 C 
ATOM      3  O   UNL     1       2.404   6.559  19.325  0.00  0.00    +0.000 OA
ATOM      4  N   UNL     1       1.530   4.956  20.688  0.00  0.00    +0.000 N 
ATOM      5  H   UNL     1       0.911   6.855  22.107  0.00  0.00    +0.000 HD
ATOM      6  H   UNL     1       1.306   4.738  21.650  0.00  0.00    +0.000 HD
ENDROOT
BRANCH   1   8
ATOM      7  C   UNL     1       1.771   9.301  22.368  0.00  0.00    +0.000 C 
ATOM      8  C   UNL     1       1.518   8.597  21.030  0.00  0.00    +0.000 C 
BRANCH   8   9
ATOM      9  C   UNL     1       0.309   9.251  20.320  0.00  0.00    +0.000 C 
ATOM     10  O   UNL     1      -0.794   9.279  20.878  0.00  0.00    +0.000 OA
ATOM     11  N   UNL     1       0.477   9.740  19.028  0.00  0.00    +0.000 N 
ATOM     12  C   UNL     1       1.684   9.615  18.222  0.00  0.00    +0.000 C 
ATOM     13  C   UNL     1      -0.628  10.443  18.393  0.00  0.00    +0.000 C 
ENDBRANCH   8   9
ENDBRANCH   1   8
BRANCH   4  14
ATOM     14  C   UNL     1       1.962   3.842  19.853  0.00  0.00    +0.000 C 
BRANCH  14  15
ATOM     15  C   UNL     1       3.443   3.478  19.996  0.00  0.00    +0.000 C 
BRANCH  15  16
ATOM     16  C   UNL     1       4.255   3.814  18.778  0.00  0.00    +0.000 A 
ATOM     17  N   UNL     1       5.524   4.167  18.782  0.00  0.00    +0.000 NA
ATOM     18  C   UNL     1       5.981   4.384  17.477  0.00  0.00    +0.000 A 
ATOM     19  C   UNL     1       5.010   4.199  16.507  0.00  0.00    +0.000 A 
ATOM     20  S   UNL     1       3.525   3.737  17.221  0.00  0.00    +0.000 S 
BRANCH  18  21
ATOM     21  C   UNL     1       7.406   4.775  17.215  0.00  0.00    +0.000 C 
ATOM     22  F   UNL     1       8.288   4.144  18.034  0.00  0.00    +0.000 F 
ATOM     23  F   UNL     1       7.778   4.485  15.939  0.00  0.00    +0.000 F 
ATOM     24  F   UNL     1       7.601   6.110  17.381  0.00  0.00    +0.000 F 
ENDBRANCH  18  21
ENDBRANCH  15  16
ENDBRANCH  14  15
ENDBRANCH   4  14
TORSDOF 6
ENDMDL
