MODEL 1
REMARK VINA RESULT:      -7.9      0.000      0.000
REMARK  Name = 
REMARK  5 active torsions:
REMARK  status: ('A' for Active; 'I' for Inactive)
REMARK    1  A    between atoms: C_2  and  C_10
REMARK    2  A    between atoms: N_3  and  C_4
REMARK    3  A    between atoms: C_4  and  C_5
REMARK    4  A    between atoms: C_15  and  S_16
REMARK    5  A    between atoms: S_16  and  N_19
REMARK                            x       y       z     vdW  Elec       q    Type
REMARK                         _______ _______ _______ _____ _____    ______ ____
ROOT
ATOM      1  C   UNL     1       2.204   6.873  19.329  0.00  0.00    +0.000 A 
ATOM      2  C   UNL     1       1.467   6.551  20.475  0.00  0.00    +0.000 A 
ATOM      3  C   UNL     1       1.598   5.292  21.066  0.00  0.00    +0.000 A 
ATOM      4  C   UNL     1       2.480   4.341  20.532  0.00  0.00    +0.000 A 
ATOM      5 CL   UNL     1       2.608   2.844  21.384  0.00  0.00    +0.000 Cl
ATOM      6  C   UNL     1       3.219   4.661  19.389  0.00  0.00    +0.000 A 
ATOM      7  C   UNL     1       3.078   5.921  18.783  0.00  0.00    +0.000 A 
ENDROOT
BRANCH   1   9
ATOM      8  O   UNL     1       2.682   8.520  17.727  0.00  0.00    +0.000 OA
ATOM      9  C   UNL     1       2.090   8.236  18.772  0.00  0.00    +0.000 C 
ATOM     10  N   UNL     1       1.297   9.140  19.446  0.00  0.00    +0.000 N 
ATOM     11  H   UNL     1       1.025   8.962  20.402  0.00  0.00    +0.000 HD
BRANCH  10  12
ATOM     12  C   UNL     1       1.155  10.502  18.978  0.00  0.00    +0.000 C 
BRANCH  12  13
ATOM     13  C   UNL     1      -0.243  10.703  18.532  0.00  0.00    +0.000 A 
ATOM     14  C   UNL     1      -1.085   9.985  17.708  0.00  0.00    +0.000 A 
ATOM     15  C   UNL     1      -2.312  10.689  17.678  0.00  0.00    +0.000 A 
ATOM     16  C   UNL     1      -2.140  11.793  18.479  0.00  0.00    +0.000 A 
ATOM     17  O   UNL     1      -0.888  11.811  19.004  0.00  0.00    +0.000 OA
ENDBRANCH  12  13
ENDBRANCH  10  12
ENDBRANCH   1   9
BRANCH   6  18
ATOM     18  S   UNL     1       4.333   3.496  18.612  0.00  0.00    +0.000 S 
ATOM     19  O   UNL     1       5.168   2.946  19.660  0.00  0.00    +0.000 OA
ATOM     20  O   UNL     1       3.535   2.626  17.782  0.00  0.00    +0.000 OA
BRANCH  18  21
ATOM     21  N   UNL     1       5.239   4.459  17.592  0.00  0.00    +0.000 NA
ATOM     22  C   UNL     1       5.046   4.390  16.131  0.00  0.00    +0.000 C 
ATOM     23  C   UNL     1       6.311   3.926  15.406  0.00  0.00    +0.000 C 
ATOM     24  O   UNL     1       7.484   4.632  15.815  0.00  0.00    +0.000 OA
ATOM     25  C   UNL     1       7.705   4.582  17.226  0.00  0.00    +0.000 C 
ATOM     26  C   UNL     1       6.508   5.062  18.049  0.00  0.00    +0.000 C 
ENDBRANCH  18  21
ENDBRANCH   6  18
TORSDOF 5
ENDMDL
MODEL 2
REMARK VINA RESULT:      -7.9      4.092      8.069
REMARK  Name = 
REMARK  5 active torsions:
REMARK  status: ('A' for Active; 'I' for Inactive)
REMARK    1  A    between atoms: C_2  and  C_10
REMARK    2  A    between atoms: N_3  and  C_4
REMARK    3  A    between atoms: C_4  and  C_5
REMARK    4  A    between atoms: C_15  and  S_16
REMARK    5  A    between atoms: S_16  and  N_19
REMARK                            x       y       z     vdW  Elec       q    Type
REMARK                         _______ _______ _______ _____ _____    ______ ____
ROOT
ATOM      1  C   UNL     1       5.474   5.389  15.936  0.00  0.00    +0.000 A 
ATOM      2  C   UNL     1       5.491   6.710  16.399  0.00  0.00    +0.000 A 
ATOM      3  C   UNL     1       4.543   7.142  17.331  0.00  0.00    +0.000 A 
ATOM      4  C   UNL     1       3.576   6.256  17.828  0.00  0.00    +0.000 A 
ATOM      5 CL   UNL     1       2.499   6.883  19.024  0.00  0.00    +0.000 Cl
ATOM      6  C   UNL     1       3.558   4.935  17.369  0.00  0.00    +0.000 A 
ATOM      7  C   UNL     1       4.501   4.502  16.420  0.00  0.00    +0.000 A 
ENDROOT
BRANCH   1   9
ATOM      8  O   UNL     1       7.678   4.768  15.422  0.00  0.00    +0.000 OA
ATOM      9  C   UNL     1       6.532   4.951  15.003  0.00  0.00    +0.000 C 
ATOM     10  N   UNL     1       6.180   4.742  13.687  0.00  0.00    +0.000 N 
ATOM     11  H   UNL     1       5.316   5.122  13.326  0.00  0.00    +0.000 HD
BRANCH  10  12
ATOM     12  C   UNL     1       7.164   4.337  12.707  0.00  0.00    +0.000 C 
BRANCH  12  13
ATOM     13  C   UNL     1       6.673   3.119  12.022  0.00  0.00    +0.000 A 
ATOM     14  C   UNL     1       5.417   2.576  11.844  0.00  0.00    +0.000 A 
ATOM     15  C   UNL     1       5.596   1.395  11.086  0.00  0.00    +0.000 A 
ATOM     16  C   UNL     1       6.947   1.288  10.854  0.00  0.00    +0.000 A 
ATOM     17  O   UNL     1       7.611   2.331  11.416  0.00  0.00    +0.000 OA
ENDBRANCH  12  13
ENDBRANCH  10  12
ENDBRANCH   1   9
BRANCH   6  18
ATOM     18  S   UNL     1       2.334   3.749  17.912  0.00  0.00    +0.000 S 
ATOM     19  O   UNL     1       1.047   4.228  17.452  0.00  0.00    +0.000 OA
ATOM     20  O   UNL     1       2.806   2.439  17.529  0.00  0.00    +0.000 OA
BRANCH  18  21
ATOM     21  N   UNL     1       2.428   3.841  19.576  0.00  0.00    +0.000 NA
ATOM     22  C   UNL     1       3.671   3.469  20.278  0.00  0.00    +0.000 C 
ATOM     23  C   UNL     1       3.465   2.280  21.220  0.00  0.00    +0.000 C 
ATOM     24  O   UNL     1       2.327   2.429  22.071  0.00  0.00    +0.000 OA
ATOM     25  C   UNL     1       1.117   2.675  21.352  0.00  0.00    +0.000 C 
ATOM     26  C   UNL     1       1.203   3.872  20.402  0.00  0.00    +0.000 C 
ENDBRANCH  18  21
ENDBRANCH   6  18
TORSDOF 5
ENDMDL
MODEL 3
REMARK VINA RESULT:      -7.5      4.381      7.723
REMARK  Name = 
REMARK  5 active torsions:
REMARK  status: ('A' for Active; 'I' for Inactive)
REMARK    1  A    between atoms: C_2  and  C_10
REMARK    2  A    between atoms: N_3  and  C_4
REMARK    3  A    between atoms: C_4  and  C_5
REMARK    4  A    between atoms: C_15  and  S_16
REMARK    5  A    between atoms: S_16  and  N_19
REMARK                            x       y       z     vdW  Elec       q    Type
REMARK                         _______ _______ _______ _____ _____    ______ ____
ROOT
ATOM      1  C   UNL     1       5.625   5.023  16.408  0.00  0.00    +0.000 A 
ATOM      2  C   UNL     1       5.812   6.069  17.318  0.00  0.00    +0.000 A 
ATOM      3  C   UNL     1       4.883   6.289  18.338  0.00  0.00    +0.000 A 
ATOM      4  C   UNL     1       3.764   5.456  18.476  0.00  0.00    +0.000 A 
ATOM      5 CL   UNL     1       2.720   5.782  19.814  0.00  0.00    +0.000 Cl
ATOM      6  C   UNL     1       3.576   4.408  17.570  0.00  0.00    +0.000 A 
ATOM      7  C   UNL     1       4.501   4.193  16.533  0.00  0.00    +0.000 A 
ENDROOT
BRANCH   1   9
ATOM      8  O   UNL     1       7.832   4.598  15.731  0.00  0.00    +0.000 OA
ATOM      9  C   UNL     1       6.662   4.779  15.384  0.00  0.00    +0.000 C 
ATOM     10  N   UNL     1       6.264   4.744  14.065  0.00  0.00    +0.000 N 
ATOM     11  H   UNL     1       5.369   5.125  13.794  0.00  0.00    +0.000 HD
BRANCH  10  12
ATOM     12  C   UNL     1       7.224   4.536  13.002  0.00  0.00    +0.000 C 
BRANCH  12  13
ATOM     13  C   UNL     1       6.789   3.371  12.196  0.00  0.00    +0.000 A 
ATOM     14  C   UNL     1       7.470   2.422  11.462  0.00  0.00    +0.000 A 
ATOM     15  C   UNL     1       6.491   1.554  10.925  0.00  0.00    +0.000 A 
ATOM     16  C   UNL     1       5.276   2.028  11.359  0.00  0.00    +0.000 A 
ATOM     17  O   UNL     1       5.445   3.131  12.134  0.00  0.00    +0.000 OA
ENDBRANCH  12  13
ENDBRANCH  10  12
ENDBRANCH   1   9
BRANCH   6  18
ATOM     18  S   UNL     1       2.155   3.323  17.641  0.00  0.00    +0.000 S 
ATOM     19  O   UNL     1       0.995   4.160  17.866  0.00  0.00    +0.000 OA
ATOM     20  O   UNL     1       2.219   2.456  16.489  0.00  0.00    +0.000 OA
BRANCH  18  21
ATOM     21  N   UNL     1       2.463   2.382  18.986  0.00  0.00    +0.000 NA
ATOM     22  C   UNL     1       1.543   2.400  20.139  0.00  0.00    +0.000 C 
ATOM     23  C   UNL     1       2.226   2.911  21.410  0.00  0.00    +0.000 C 
ATOM     24  O   UNL     1       3.482   2.279  21.666  0.00  0.00    +0.000 OA
ATOM     25  C   UNL     1       4.394   2.379  20.569  0.00  0.00    +0.000 C 
ATOM     26  C   UNL     1       3.820   1.859  19.249  0.00  0.00    +0.000 C 
ENDBRANCH  18  21
ENDBRANCH   6  18
TORSDOF 5
ENDMDL
MODEL 4
REMARK VINA RESULT:      -7.5      1.183      1.388
REMARK  Name = 
REMARK  5 active torsions:
REMARK  status: ('A' for Active; 'I' for Inactive)
REMARK    1  A    between atoms: C_2  and  C_10
REMARK    2  A    between atoms: N_3  and  C_4
REMARK    3  A    between atoms: C_4  and  C_5
REMARK    4  A    between atoms: C_15  and  S_16
REMARK    5  A    between atoms: S_16  and  N_19
REMARK                            x       y       z     vdW  Elec       q    Type
REMARK                         _______ _______ _______ _____ _____    ______ ____
ROOT
ATOM      1  C   UNL     1       2.219   6.818  19.418  0.00  0.00    +0.000 A 
ATOM      2  C   UNL     1       1.470   6.463  20.546  0.00  0.00    +0.000 A 
ATOM      3  C   UNL     1       1.594   5.185  21.100  0.00  0.00    +0.000 A 
ATOM      4  C   UNL     1       2.480   4.251  20.547  0.00  0.00    +0.000 A 
ATOM      5 CL   UNL     1       2.599   2.728  21.355  0.00  0.00    +0.000 Cl
ATOM      6  C   UNL     1       3.232   4.604  19.422  0.00  0.00    +0.000 A 
ATOM      7  C   UNL     1       3.099   5.883  18.853  0.00  0.00    +0.000 A 
ENDROOT
BRANCH   1   9
ATOM      8  O   UNL     1       2.711   8.511  17.869  0.00  0.00    +0.000 OA
ATOM      9  C   UNL     1       2.112   8.198  18.902  0.00  0.00    +0.000 C 
ATOM     10  N   UNL     1       1.318   9.083  19.599  0.00  0.00    +0.000 N 
ATOM     11  H   UNL     1       1.040   8.877  20.548  0.00  0.00    +0.000 HD
BRANCH  10  12
ATOM     12  C   UNL     1       1.182  10.459  19.171  0.00  0.00    +0.000 C 
BRANCH  12  13
ATOM     13  C   UNL     1       0.216  11.137  20.067  0.00  0.00    +0.000 A 
ATOM     14  C   UNL     1      -1.090  11.549  19.909  0.00  0.00    +0.000 A 
ATOM     15  C   UNL     1      -1.478  12.131  21.139  0.00  0.00    +0.000 A 
ATOM     16  C   UNL     1      -0.384  12.043  21.967  0.00  0.00    +0.000 A 
ATOM     17  O   UNL     1       0.651  11.439  21.327  0.00  0.00    +0.000 OA
ENDBRANCH  12  13
ENDBRANCH  10  12
ENDBRANCH   1   9
BRANCH   6  18
ATOM     18  S   UNL     1       4.354   3.463  18.622  0.00  0.00    +0.000 S 
ATOM     19  O   UNL     1       5.198   2.904  19.658  0.00  0.00    +0.000 OA
ATOM     20  O   UNL     1       3.560   2.599  17.781  0.00  0.00    +0.000 OA
BRANCH  18  21
ATOM     21  N   UNL     1       5.247   4.451  17.614  0.00  0.00    +0.000 NA
ATOM     22  C   UNL     1       5.047   4.406  16.153  0.00  0.00    +0.000 C 
ATOM     23  C   UNL     1       6.312   3.964  15.414  0.00  0.00    +0.000 C 
ATOM     24  O   UNL     1       7.482   4.673  15.829  0.00  0.00    +0.000 OA
ATOM     25  C   UNL     1       7.710   4.600  17.239  0.00  0.00    +0.000 C 
ATOM     26  C   UNL     1       6.514   5.055  18.076  0.00  0.00    +0.000 C 
ENDBRANCH  18  21
ENDBRANCH   6  18
TORSDOF 5
ENDMDL
MODEL 5
REMARK VINA RESULT:      -7.5      2.526      3.161
REMARK  Name = 
REMARK  5 active torsions:
REMARK  status: ('A' for Active; 'I' for Inactive)
REMARK    1  A    between atoms: C_2  and  C_10
REMARK    2  A    between atoms: N_3  and  C_4
REMARK    3  A    between atoms: C_4  and  C_5
REMARK    4  A    between atoms: C_15  and  S_16
REMARK    5  A    between atoms: S_16  and  N_19
REMARK                            x       y       z     vdW  Elec       q    Type
REMARK                         _______ _______ _______ _____ _____    ______ ____
ROOT
ATOM      1  C   UNL     1       2.707   7.404  18.485  0.00  0.00    +0.000 A 
ATOM      2  C   UNL     1       2.498   6.551  19.575  0.00  0.00    +0.000 A 
ATOM      3  C   UNL     1       3.177   5.333  19.655  0.00  0.00    +0.000 A 
ATOM      4  C   UNL     1       4.088   4.956  18.658  0.00  0.00    +0.000 A 
ATOM      5 CL   UNL     1       4.918   3.460  18.897  0.00  0.00    +0.000 Cl
ATOM      6  C   UNL     1       4.301   5.808  17.570  0.00  0.00    +0.000 A 
ATOM      7  C   UNL     1       3.608   7.028  17.478  0.00  0.00    +0.000 A 
ENDROOT
BRANCH   1   9
ATOM      8  O   UNL     1       2.092   9.426  17.462  0.00  0.00    +0.000 OA
ATOM      9  C   UNL     1       2.023   8.714  18.468  0.00  0.00    +0.000 C 
ATOM     10  N   UNL     1       1.310   9.079  19.590  0.00  0.00    +0.000 N 
ATOM     11  H   UNL     1       1.464   8.602  20.467  0.00  0.00    +0.000 HD
BRANCH  10  12
ATOM     12  C   UNL     1       0.634  10.356  19.661  0.00  0.00    +0.000 C 
BRANCH  12  13
ATOM     13  C   UNL     1       0.028  10.494  21.005  0.00  0.00    +0.000 A 
ATOM     14  C   UNL     1      -0.763  11.461  21.591  0.00  0.00    +0.000 A 
ATOM     15  C   UNL     1      -1.031  11.015  22.907  0.00  0.00    +0.000 A 
ATOM     16  C   UNL     1      -0.383   9.810  23.044  0.00  0.00    +0.000 A 
ATOM     17  O   UNL     1       0.262   9.483  21.894  0.00  0.00    +0.000 OA
ENDBRANCH  12  13
ENDBRANCH  10  12
ENDBRANCH   1   9
BRANCH   6  18
ATOM     18  S   UNL     1       5.409   5.390  16.229  0.00  0.00    +0.000 S 
ATOM     19  O   UNL     1       5.303   3.961  16.021  0.00  0.00    +0.000 OA
ATOM     20  O   UNL     1       5.140   6.308  15.148  0.00  0.00    +0.000 OA
BRANCH  18  21
ATOM     21  N   UNL     1       6.913   5.779  16.844  0.00  0.00    +0.000 NA
ATOM     22  C   UNL     1       7.525   4.953  17.902  0.00  0.00    +0.000 C 
ATOM     23  C   UNL     1       7.749   5.747  19.192  0.00  0.00    +0.000 C 
ATOM     24  O   UNL     1       8.395   7.002  18.973  0.00  0.00    +0.000 OA
ATOM     25  C   UNL     1       7.713   7.827  18.025  0.00  0.00    +0.000 C 
ATOM     26  C   UNL     1       7.468   7.139  16.681  0.00  0.00    +0.000 C 
ENDBRANCH  18  21
ENDBRANCH   6  18
TORSDOF 5
ENDMDL
MODEL 6
REMARK VINA RESULT:      -7.4      1.669      1.869
REMARK  Name = 
REMARK  5 active torsions:
REMARK  status: ('A' for Active; 'I' for Inactive)
REMARK    1  A    between atoms: C_2  and  C_10
REMARK    2  A    between atoms: N_3  and  C_4
REMARK    3  A    between atoms: C_4  and  C_5
REMARK    4  A    between atoms: C_15  and  S_16
REMARK    5  A    between atoms: S_16  and  N_19
REMARK                            x       y       z     vdW  Elec       q    Type
REMARK                         _______ _______ _______ _____ _____    ______ ____
ROOT
ATOM      1  C   UNL     1       2.136   6.903  19.582  0.00  0.00    +0.000 A 
ATOM      2  C   UNL     1       1.414   6.296  20.616  0.00  0.00    +0.000 A 
ATOM      3  C   UNL     1       1.690   4.977  20.988  0.00  0.00    +0.000 A 
ATOM      4  C   UNL     1       2.702   4.251  20.344  0.00  0.00    +0.000 A 
ATOM      5 CL   UNL     1       2.998   2.654  20.931  0.00  0.00    +0.000 Cl
ATOM      6  C   UNL     1       3.427   4.856  19.312  0.00  0.00    +0.000 A 
ATOM      7  C   UNL     1       3.142   6.178  18.927  0.00  0.00    +0.000 A 
ENDROOT
BRANCH   1   9
ATOM      8  O   UNL     1       2.294   8.803  18.213  0.00  0.00    +0.000 OA
ATOM      9  C   UNL     1       1.863   8.319  19.263  0.00  0.00    +0.000 C 
ATOM     10  N   UNL     1       1.108   9.044  20.161  0.00  0.00    +0.000 N 
ATOM     11  H   UNL     1       0.976   8.705  21.103  0.00  0.00    +0.000 HD
BRANCH  10  12
ATOM     12  C   UNL     1       0.819  10.444  19.933  0.00  0.00    +0.000 C 
BRANCH  12  13
ATOM     13  C   UNL     1      -0.042  10.932  21.035  0.00  0.00    +0.000 A 
ATOM     14  C   UNL     1      -0.307  10.466  22.305  0.00  0.00    +0.000 A 
ATOM     15  C   UNL     1      -1.213  11.383  22.887  0.00  0.00    +0.000 A 
ATOM     16  C   UNL     1      -1.448  12.347  21.936  0.00  0.00    +0.000 A 
ATOM     17  O   UNL     1      -0.740  12.085  20.807  0.00  0.00    +0.000 OA
ENDBRANCH  12  13
ENDBRANCH  10  12
ENDBRANCH   1   9
BRANCH   6  18
ATOM     18  S   UNL     1       4.704   3.993  18.405  0.00  0.00    +0.000 S 
ATOM     19  O   UNL     1       5.744   3.657  19.355  0.00  0.00    +0.000 OA
ATOM     20  O   UNL     1       4.058   2.960  17.632  0.00  0.00    +0.000 OA
BRANCH  18  21
ATOM     21  N   UNL     1       5.251   5.147  17.328  0.00  0.00    +0.000 NA
ATOM     22  C   UNL     1       5.317   4.852  15.884  0.00  0.00    +0.000 C 
ATOM     23  C   UNL     1       6.750   4.920  15.349  0.00  0.00    +0.000 C 
ATOM     24  O   UNL     1       7.439   6.109  15.742  0.00  0.00    +0.000 OA
ATOM     25  C   UNL     1       7.455   6.305  17.158  0.00  0.00    +0.000 C 
ATOM     26  C   UNL     1       6.063   6.290  17.793  0.00  0.00    +0.000 C 
ENDBRANCH  18  21
ENDBRANCH   6  18
TORSDOF 5
ENDMDL
MODEL 7
REMARK VINA RESULT:      -7.3      1.124      1.125
REMARK  Name = 
REMARK  5 active torsions:
REMARK  status: ('A' for Active; 'I' for Inactive)
REMARK    1  A    between atoms: C_2  and  C_10
REMARK    2  A    between atoms: N_3  and  C_4
REMARK    3  A    between atoms: C_4  and  C_5
REMARK    4  A    between atoms: C_15  and  S_16
REMARK    5  A    between atoms: S_16  and  N_19
REMARK                            x       y       z     vdW  Elec       q    Type
REMARK                         _______ _______ _______ _____ _____    ______ ____
ROOT
ATOM      1  C   UNL     1       1.976   6.610  19.849  0.00  0.00    +0.000 A 
ATOM      2  C   UNL     1       1.093   5.827  20.601  0.00  0.00    +0.000 A 
ATOM      3  C   UNL     1       1.280   4.444  20.692  0.00  0.00    +0.000 A 
ATOM      4  C   UNL     1       2.362   3.827  20.049  0.00  0.00    +0.000 A 
ATOM      5 CL   UNL     1       2.530   2.124  20.286  0.00  0.00    +0.000 Cl
ATOM      6  C   UNL     1       3.247   4.608  19.299  0.00  0.00    +0.000 A 
ATOM      7  C   UNL     1       3.053   5.996  19.193  0.00  0.00    +0.000 A 
ENDROOT
BRANCH   1   9
ATOM      8  O   UNL     1       1.679   8.690  20.896  0.00  0.00    +0.000 OA
ATOM      9  C   UNL     1       1.786   8.075  19.832  0.00  0.00    +0.000 C 
ATOM     10  N   UNL     1       1.756   8.702  18.604  0.00  0.00    +0.000 N 
ATOM     11  H   UNL     1       1.605   8.164  17.763  0.00  0.00    +0.000 HD
BRANCH  10  12
ATOM     12  C   UNL     1       1.548  10.130  18.502  0.00  0.00    +0.000 C 
BRANCH  12  13
ATOM     13  C   UNL     1       0.091  10.392  18.460  0.00  0.00    +0.000 A 
ATOM     14  C   UNL     1      -0.935   9.903  17.678  0.00  0.00    +0.000 A 
ATOM     15  C   UNL     1      -2.118  10.536  18.128  0.00  0.00    +0.000 A 
ATOM     16  C   UNL     1      -1.740  11.374  19.150  0.00  0.00    +0.000 A 
ATOM     17  O   UNL     1      -0.401  11.294  19.362  0.00  0.00    +0.000 OA
ENDBRANCH  12  13
ENDBRANCH  10  12
ENDBRANCH   1   9
BRANCH   6  18
ATOM     18  S   UNL     1       4.628   3.901  18.407  0.00  0.00    +0.000 S 
ATOM     19  O   UNL     1       5.588   3.457  19.396  0.00  0.00    +0.000 OA
ATOM     20  O   UNL     1       4.087   2.972  17.445  0.00  0.00    +0.000 OA
BRANCH  18  21
ATOM     21  N   UNL     1       5.233   5.202  17.552  0.00  0.00    +0.000 NA
ATOM     22  C   UNL     1       5.213   5.202  16.077  0.00  0.00    +0.000 C 
ATOM     23  C   UNL     1       6.623   5.262  15.484  0.00  0.00    +0.000 C 
ATOM     24  O   UNL     1       7.434   6.285  16.064  0.00  0.00    +0.000 OA
ATOM     25  C   UNL     1       7.526   6.187  17.488  0.00  0.00    +0.000 C 
ATOM     26  C   UNL     1       6.166   6.156  18.187  0.00  0.00    +0.000 C 
ENDBRANCH  18  21
ENDBRANCH   6  18
TORSDOF 5
ENDMDL
MODEL 8
REMARK VINA RESULT:      -7.2      0.904      1.390
REMARK  Name = 
REMARK  5 active torsions:
REMARK  status: ('A' for Active; 'I' for Inactive)
REMARK    1  A    between atoms: C_2  and  C_10
REMARK    2  A    between atoms: N_3  and  C_4
REMARK    3  A    between atoms: C_4  and  C_5
REMARK    4  A    between atoms: C_15  and  S_16
REMARK    5  A    between atoms: S_16  and  N_19
REMARK                            x       y       z     vdW  Elec       q    Type
REMARK                         _______ _______ _______ _____ _____    ______ ____
ROOT
ATOM      1  C   UNL     1       2.216   6.929  18.948  0.00  0.00    +0.000 A 
ATOM      2  C   UNL     1       1.929   6.708  20.299  0.00  0.00    +0.000 A 
ATOM      3  C   UNL     1       2.134   5.447  20.866  0.00  0.00    +0.000 A 
ATOM      4  C   UNL     1       2.646   4.394  20.096  0.00  0.00    +0.000 A 
ATOM      5 CL   UNL     1       2.921   2.899  20.918  0.00  0.00    +0.000 Cl
ATOM      6  C   UNL     1       2.937   4.612  18.745  0.00  0.00    +0.000 A 
ATOM      7  C   UNL     1       2.718   5.875  18.169  0.00  0.00    +0.000 A 
ENDROOT
BRANCH   1   9
ATOM      8  O   UNL     1       2.538   8.572  17.302  0.00  0.00    +0.000 OA
ATOM      9  C   UNL     1       2.051   8.291  18.401  0.00  0.00    +0.000 C 
ATOM     10  N   UNL     1       1.330   9.198  19.148  0.00  0.00    +0.000 N 
ATOM     11  H   UNL     1       1.153   9.023  20.127  0.00  0.00    +0.000 HD
BRANCH  10  12
ATOM     12  C   UNL     1       1.145  10.560  18.693  0.00  0.00    +0.000 C 
BRANCH  12  13
ATOM     13  C   UNL     1      -0.305  10.806  18.522  0.00  0.00    +0.000 A 
ATOM     14  C   UNL     1      -1.289  10.189  17.777  0.00  0.00    +0.000 A 
ATOM     15  C   UNL     1      -2.490  10.885  18.045  0.00  0.00    +0.000 A 
ATOM     16  C   UNL     1      -2.166  11.885  18.930  0.00  0.00    +0.000 A 
ATOM     17  O   UNL     1      -0.841  11.846  19.229  0.00  0.00    +0.000 OA
ENDBRANCH  12  13
ENDBRANCH  10  12
ENDBRANCH   1   9
BRANCH   6  18
ATOM     18  S   UNL     1       3.550   3.316  17.675  0.00  0.00    +0.000 S 
ATOM     19  O   UNL     1       3.814   2.165  18.513  0.00  0.00    +0.000 OA
ATOM     20  O   UNL     1       2.641   3.215  16.559  0.00  0.00    +0.000 OA
BRANCH  18  21
ATOM     21  N   UNL     1       4.980   3.951  17.092  0.00  0.00    +0.000 NA
ATOM     22  C   UNL     1       5.994   4.490  18.018  0.00  0.00    +0.000 C 
ATOM     23  C   UNL     1       6.244   5.983  17.790  0.00  0.00    +0.000 C 
ATOM     24  O   UNL     1       6.464   6.312  16.417  0.00  0.00    +0.000 OA
ATOM     25  C   UNL     1       5.407   5.875  15.559  0.00  0.00    +0.000 C 
ATOM     26  C   UNL     1       5.097   4.382  15.683  0.00  0.00    +0.000 C 
ENDBRANCH  18  21
ENDBRANCH   6  18
TORSDOF 5
ENDMDL
MODEL 9
REMARK VINA RESULT:      -7.2      3.001      4.031
REMARK  Name = 
REMARK  5 active torsions:
REMARK  status: ('A' for Active; 'I' for Inactive)
REMARK    1  A    between atoms: C_2  and  C_10
REMARK    2  A    between atoms: N_3  and  C_4
REMARK    3  A    between atoms: C_4  and  C_5
REMARK    4  A    between atoms: C_15  and  S_16
REMARK    5  A    between atoms: S_16  and  N_19
REMARK                            x       y       z     vdW  Elec       q    Type
REMARK                         _______ _______ _______ _____ _____    ______ ____
ROOT
ATOM      1  C   UNL     1       2.485   7.059  19.449  0.00  0.00    +0.000 A 
ATOM      2  C   UNL     1       2.470   7.985  18.400  0.00  0.00    +0.000 A 
ATOM      3  C   UNL     1       3.316   7.818  17.300  0.00  0.00    +0.000 A 
ATOM      4  C   UNL     1       4.176   6.713  17.223  0.00  0.00    +0.000 A 
ATOM      5 CL   UNL     1       5.127   6.574  15.787  0.00  0.00    +0.000 Cl
ATOM      6  C   UNL     1       4.191   5.784  18.269  0.00  0.00    +0.000 A 
ATOM      7  C   UNL     1       3.352   5.958  19.383  0.00  0.00    +0.000 A 
ENDROOT
BRANCH   1   9
ATOM      8  O   UNL     1       1.170   6.250  21.217  0.00  0.00    +0.000 OA
ATOM      9  C   UNL     1       1.530   7.232  20.562  0.00  0.00    +0.000 C 
ATOM     10  N   UNL     1       1.091   8.510  20.837  0.00  0.00    +0.000 N 
ATOM     11  H   UNL     1       1.207   9.244  20.153  0.00  0.00    +0.000 HD
BRANCH  10  12
ATOM     12  C   UNL     1       0.135   8.758  21.894  0.00  0.00    +0.000 C 
BRANCH  12  13
ATOM     13  C   UNL     1      -0.123  10.215  21.962  0.00  0.00    +0.000 A 
ATOM     14  C   UNL     1      -0.913  10.999  22.778  0.00  0.00    +0.000 A 
ATOM     15  C   UNL     1      -0.727  12.335  22.352  0.00  0.00    +0.000 A 
ATOM     16  C   UNL     1       0.158  12.283  21.302  0.00  0.00    +0.000 A 
ATOM     17  O   UNL     1       0.534  11.001  21.057  0.00  0.00    +0.000 OA
ENDBRANCH  12  13
ENDBRANCH  10  12
ENDBRANCH   1   9
BRANCH   6  18
ATOM     18  S   UNL     1       5.287   4.370  18.278  0.00  0.00    +0.000 S 
ATOM     19  O   UNL     1       5.850   4.262  16.948  0.00  0.00    +0.000 OA
ATOM     20  O   UNL     1       6.148   4.501  19.428  0.00  0.00    +0.000 OA
BRANCH  18  21
ATOM     21  N   UNL     1       4.254   3.091  18.576  0.00  0.00    +0.000 NA
ATOM     22  C   UNL     1       3.149   2.789  17.648  0.00  0.00    +0.000 C 
ATOM     23  C   UNL     1       1.780   2.926  18.320  0.00  0.00    +0.000 C 
ATOM     24  O   UNL     1       1.701   2.247  19.575  0.00  0.00    +0.000 OA
ATOM     25  C   UNL     1       2.719   2.647  20.495  0.00  0.00    +0.000 C 
ATOM     26  C   UNL     1       4.136   2.516  19.932  0.00  0.00    +0.000 C 
ENDBRANCH  18  21
ENDBRANCH   6  18
TORSDOF 5
ENDMDL
