MODEL 1
REMARK VINA RESULT:      -9.1      0.000      0.000
REMARK  Name = 
REMARK  9 active torsions:
REMARK  status: ('A' for Active; 'I' for Inactive)
REMARK    1  A    between atoms: C_1  and  C_2
REMARK    2  A    between atoms: C_4  and  C_5
REMARK    3  A    between atoms: C_5  and  O_6
REMARK    4  A    between atoms: O_6  and  C_7
REMARK    5  A    between atoms: C_10  and  S_11
REMARK    6  A    between atoms: S_11  and  N_14
REMARK    7  A    between atoms: N_14  and  C_15
REMARK    8  A    between atoms: C_19  and  C_20
REMARK    9  A    between atoms: N_22  and  O_23
REMARK                            x       y       z     vdW  Elec       q    Type
REMARK                         _______ _______ _______ _____ _____    ______ ____
ROOT
ATOM      1  C   UNL     1       1.509   8.501  20.001  0.00  0.00    +0.000 A 
ATOM      2  C   UNL     1       1.472   7.326  20.744  0.00  0.00    +0.000 A 
ATOM      3  C   UNL     1       1.886   6.127  20.196  0.00  0.00    +0.000 A 
ATOM      4  C   UNL     1       2.274   6.071  18.858  0.00  0.00    +0.000 A 
ATOM      5  C   UNL     1       2.354   7.245  18.097  0.00  0.00    +0.000 A 
ATOM      6  C   UNL     1       1.960   8.467  18.673  0.00  0.00    +0.000 A 
ENDROOT
BRANCH   4   7
ATOM      7  S   UNL     1       2.702   4.468  18.211  0.00  0.00    +0.000 S 
ATOM      8  O   UNL     1       3.193   3.679  19.297  0.00  0.00    +0.000 OA
ATOM      9  O   UNL     1       1.571   4.031  17.398  0.00  0.00    +0.000 OA
BRANCH   7  10
ATOM     10  N   UNL     1       4.001   4.761  17.172  0.00  0.00    +0.000 NA
ATOM     11  H   UNL     1       3.741   5.345  16.375  0.00  0.00    +0.000 HD
BRANCH  10  12
ATOM     12  C   UNL     1       5.379   4.863  17.679  0.00  0.00    +0.000 C 
ATOM     13  C   UNL     1       5.956   6.262  17.890  0.00  0.00    +0.000 C 
ATOM     14  C   UNL     1       7.457   6.015  18.079  0.00  0.00    +0.000 C 
ATOM     15  C   UNL     1       7.736   4.627  17.492  0.00  0.00    +0.000 C 
ATOM     16  C   UNL     1       6.442   4.216  16.775  0.00  0.00    +0.000 C 
BRANCH  16  17
ATOM     17  C   UNL     1       6.454   4.730  15.329  0.00  0.00    +0.000 C 
ATOM     18  O   UNL     1       5.466   4.739  14.597  0.00  0.00    +0.000 OA
ATOM     19  N   UNL     1       7.685   5.139  14.863  0.00  0.00    +0.000 N 
ATOM     20  H   UNL     1       8.421   5.490  15.463  0.00  0.00    +0.000 HD
BRANCH  19  21
ATOM     21  O   UNL     1       7.694   5.643  13.540  0.00  0.00    +0.000 OA
ATOM     22  H   UNL     1       7.516   6.601  13.676  0.00  0.00    +0.000 HD
ENDBRANCH  19  21
ENDBRANCH  16  17
ENDBRANCH  10  12
ENDBRANCH   7  10
ENDBRANCH   4   7
BRANCH   1  23
ATOM     23  O   UNL     1       1.111   9.676  20.590  0.00  0.00    +0.000 OA
BRANCH  23  24
ATOM     24  C   UNL     1       0.940  10.768  19.647  0.00  0.00    +0.000 C 
BRANCH  24  28
ATOM     25  C   UNL     1      -2.447  13.710  21.891  0.00  0.00    +0.000 C 
ATOM     26  C   UNL     1      -2.060  12.767  20.793  0.00  0.00    +0.000 A 
ATOM     27  C   UNL     1      -0.784  12.227  20.742  0.00  0.00    +0.000 A 
ATOM     28  C   UNL     1      -0.455  11.342  19.712  0.00  0.00    +0.000 A 
ATOM     29  C   UNL     1      -1.435  11.022  18.739  0.00  0.00    +0.000 A 
ATOM     30  C   UNL     1      -1.218  10.146  17.645  0.00  0.00    +0.000 A 
ATOM     31  C   UNL     1      -2.224   9.882  16.716  0.00  0.00    +0.000 A 
ATOM     32  C   UNL     1      -3.464  10.486  16.863  0.00  0.00    +0.000 A 
ATOM     33  C   UNL     1      -3.687  11.350  17.936  0.00  0.00    +0.000 A 
ATOM     34  C   UNL     1      -2.704  11.630  18.876  0.00  0.00    +0.000 A 
ATOM     35  N   UNL     1      -3.007  12.473  19.876  0.00  0.00    +0.000 NA
ENDBRANCH  24  28
ENDBRANCH  23  24
ENDBRANCH   1  23
TORSDOF 8
ENDMDL
MODEL 2
REMARK VINA RESULT:      -9.0      1.805      2.310
REMARK  Name = 
REMARK  9 active torsions:
REMARK  status: ('A' for Active; 'I' for Inactive)
REMARK    1  A    between atoms: C_1  and  C_2
REMARK    2  A    between atoms: C_4  and  C_5
REMARK    3  A    between atoms: C_5  and  O_6
REMARK    4  A    between atoms: O_6  and  C_7
REMARK    5  A    between atoms: C_10  and  S_11
REMARK    6  A    between atoms: S_11  and  N_14
REMARK    7  A    between atoms: N_14  and  C_15
REMARK    8  A    between atoms: C_19  and  C_20
REMARK    9  A    between atoms: N_22  and  O_23
REMARK                            x       y       z     vdW  Elec       q    Type
REMARK                         _______ _______ _______ _____ _____    ______ ____
ROOT
ATOM      1  C   UNL     1       1.116   9.706  19.722  0.00  0.00    +0.000 A 
ATOM      2  C   UNL     1       1.104   8.725  20.709  0.00  0.00    +0.000 A 
ATOM      3  C   UNL     1       1.681   7.489  20.487  0.00  0.00    +0.000 A 
ATOM      4  C   UNL     1       2.217   7.186  19.237  0.00  0.00    +0.000 A 
ATOM      5  C   UNL     1       2.273   8.166  18.237  0.00  0.00    +0.000 A 
ATOM      6  C   UNL     1       1.710   9.433  18.481  0.00  0.00    +0.000 A 
ENDROOT
BRANCH   4   7
ATOM      7  S   UNL     1       2.856   5.538  19.014  0.00  0.00    +0.000 S 
ATOM      8  O   UNL     1       2.772   4.866  20.272  0.00  0.00    +0.000 OA
ATOM      9  O   UNL     1       2.216   5.002  17.816  0.00  0.00    +0.000 OA
BRANCH   7  10
ATOM     10  N   UNL     1       4.494   5.760  18.667  0.00  0.00    +0.000 NA
ATOM     11  H   UNL     1       5.089   5.629  19.488  0.00  0.00    +0.000 HD
BRANCH  10  12
ATOM     12  C   UNL     1       5.051   5.413  17.350  0.00  0.00    +0.000 C 
ATOM     13  C   UNL     1       5.036   3.942  16.939  0.00  0.00    +0.000 C 
ATOM     14  C   UNL     1       5.968   3.892  15.723  0.00  0.00    +0.000 C 
ATOM     15  C   UNL     1       6.829   5.157  15.795  0.00  0.00    +0.000 C 
ATOM     16  C   UNL     1       6.535   5.777  17.168  0.00  0.00    +0.000 C 
BRANCH  16  17
ATOM     17  C   UNL     1       7.475   5.185  18.226  0.00  0.00    +0.000 C 
ATOM     18  O   UNL     1       8.287   4.289  17.999  0.00  0.00    +0.000 OA
ATOM     19  N   UNL     1       7.314   5.688  19.500  0.00  0.00    +0.000 N 
ATOM     20  H   UNL     1       6.959   6.616  19.693  0.00  0.00    +0.000 HD
BRANCH  19  21
ATOM     21  O   UNL     1       8.201   5.167  20.473  0.00  0.00    +0.000 OA
ATOM     22  H   UNL     1       7.733   5.363  21.315  0.00  0.00    +0.000 HD
ENDBRANCH  19  21
ENDBRANCH  16  17
ENDBRANCH  10  12
ENDBRANCH   7  10
ENDBRANCH   4   7
BRANCH   1  23
ATOM     23  O   UNL     1       0.552  10.929  19.989  0.00  0.00    +0.000 OA
BRANCH  23  24
ATOM     24  C   UNL     1       0.009  11.586  18.813  0.00  0.00    +0.000 C 
BRANCH  24  28
ATOM     25  C   UNL     1      -4.006  13.162  21.376  0.00  0.00    +0.000 C 
ATOM     26  C   UNL     1      -3.397  12.538  20.157  0.00  0.00    +0.000 A 
ATOM     27  C   UNL     1      -2.025  12.359  20.066  0.00  0.00    +0.000 A 
ATOM     28  C   UNL     1      -1.487  11.765  18.921  0.00  0.00    +0.000 A 
ATOM     29  C   UNL     1      -2.359  11.364  17.877  0.00  0.00    +0.000 A 
ATOM     30  C   UNL     1      -1.932  10.761  16.668  0.00  0.00    +0.000 A 
ATOM     31  C   UNL     1      -2.843  10.400  15.675  0.00  0.00    +0.000 A 
ATOM     32  C   UNL     1      -4.195  10.633  15.874  0.00  0.00    +0.000 A 
ATOM     33  C   UNL     1      -4.626  11.227  17.061  0.00  0.00    +0.000 A 
ATOM     34  C   UNL     1      -3.740  11.596  18.066  0.00  0.00    +0.000 A 
ATOM     35  N   UNL     1      -4.244  12.162  19.175  0.00  0.00    +0.000 NA
ENDBRANCH  24  28
ENDBRANCH  23  24
ENDBRANCH   1  23
TORSDOF 8
ENDMDL
MODEL 3
REMARK VINA RESULT:      -8.8      1.744      2.377
REMARK  Name = 
REMARK  9 active torsions:
REMARK  status: ('A' for Active; 'I' for Inactive)
REMARK    1  A    between atoms: C_1  and  C_2
REMARK    2  A    between atoms: C_4  and  C_5
REMARK    3  A    between atoms: C_5  and  O_6
REMARK    4  A    between atoms: O_6  and  C_7
REMARK    5  A    between atoms: C_10  and  S_11
REMARK    6  A    between atoms: S_11  and  N_14
REMARK    7  A    between atoms: N_14  and  C_15
REMARK    8  A    between atoms: C_19  and  C_20
REMARK    9  A    between atoms: N_22  and  O_23
REMARK                            x       y       z     vdW  Elec       q    Type
REMARK                         _______ _______ _______ _____ _____    ______ ____
ROOT
ATOM      1  C   UNL     1       1.797   7.049  20.322  0.00  0.00    +0.000 A 
ATOM      2  C   UNL     1       2.666   7.035  19.236  0.00  0.00    +0.000 A 
ATOM      3  C   UNL     1       3.225   5.851  18.791  0.00  0.00    +0.000 A 
ATOM      4  C   UNL     1       2.979   4.664  19.478  0.00  0.00    +0.000 A 
ATOM      5  C   UNL     1       2.080   4.644  20.553  0.00  0.00    +0.000 A 
ATOM      6  C   UNL     1       1.492   5.849  20.981  0.00  0.00    +0.000 A 
ENDROOT
BRANCH   4   7
ATOM      7  S   UNL     1       3.814   3.206  18.888  0.00  0.00    +0.000 S 
ATOM      8  O   UNL     1       4.257   2.468  20.029  0.00  0.00    +0.000 OA
ATOM      9  O   UNL     1       2.944   2.606  17.881  0.00  0.00    +0.000 OA
BRANCH   7  10
ATOM     10  N   UNL     1       5.188   3.791  18.100  0.00  0.00    +0.000 NA
ATOM     11  H   UNL     1       6.045   3.330  18.411  0.00  0.00    +0.000 HD
BRANCH  10  12
ATOM     12  C   UNL     1       5.128   4.265  16.708  0.00  0.00    +0.000 C 
ATOM     13  C   UNL     1       6.075   3.620  15.698  0.00  0.00    +0.000 C 
ATOM     14  C   UNL     1       6.002   4.550  14.481  0.00  0.00    +0.000 C 
ATOM     15  C   UNL     1       5.450   5.883  14.998  0.00  0.00    +0.000 C 
ATOM     16  C   UNL     1       5.444   5.760  16.528  0.00  0.00    +0.000 C 
BRANCH  16  17
ATOM     17  C   UNL     1       6.798   6.203  17.098  0.00  0.00    +0.000 C 
ATOM     18  O   UNL     1       7.737   6.597  16.407  0.00  0.00    +0.000 OA
ATOM     19  N   UNL     1       6.928   6.074  18.464  0.00  0.00    +0.000 N 
ATOM     20  H   UNL     1       6.146   6.109  19.106  0.00  0.00    +0.000 HD
BRANCH  19  21
ATOM     21  O   UNL     1       8.166   6.511  18.997  0.00  0.00    +0.000 OA
ATOM     22  H   UNL     1       8.173   7.467  18.764  0.00  0.00    +0.000 HD
ENDBRANCH  19  21
ENDBRANCH  16  17
ENDBRANCH  10  12
ENDBRANCH   7  10
ENDBRANCH   4   7
BRANCH   1  23
ATOM     23  O   UNL     1       1.245   8.242  20.719  0.00  0.00    +0.000 OA
BRANCH  23  24
ATOM     24  C   UNL     1       1.113   9.206  19.641  0.00  0.00    +0.000 C 
BRANCH  24  28
ATOM     25  C   UNL     1      -1.039  12.559  22.691  0.00  0.00    +0.000 C 
ATOM     26  C   UNL     1      -0.995  11.815  21.390  0.00  0.00    +0.000 A 
ATOM     27  C   UNL     1       0.005  10.889  21.140  0.00  0.00    +0.000 A 
ATOM     28  C   UNL     1       0.014  10.203  19.922  0.00  0.00    +0.000 A 
ATOM     29  C   UNL     1      -0.999  10.478  18.968  0.00  0.00    +0.000 A 
ATOM     30  C   UNL     1      -1.090   9.855  17.698  0.00  0.00    +0.000 A 
ATOM     31  C   UNL     1      -2.109  10.180  16.802  0.00  0.00    +0.000 A 
ATOM     32  C   UNL     1      -3.053  11.130  17.159  0.00  0.00    +0.000 A 
ATOM     33  C   UNL     1      -2.972  11.749  18.407  0.00  0.00    +0.000 A 
ATOM     34  C   UNL     1      -1.969  11.445  19.318  0.00  0.00    +0.000 A 
ATOM     35  N   UNL     1      -1.969  12.090  20.496  0.00  0.00    +0.000 NA
ENDBRANCH  24  28
ENDBRANCH  23  24
ENDBRANCH   1  23
TORSDOF 8
ENDMDL
MODEL 4
REMARK VINA RESULT:      -8.8      1.547      2.283
REMARK  Name = 
REMARK  9 active torsions:
REMARK  status: ('A' for Active; 'I' for Inactive)
REMARK    1  A    between atoms: C_1  and  C_2
REMARK    2  A    between atoms: C_4  and  C_5
REMARK    3  A    between atoms: C_5  and  O_6
REMARK    4  A    between atoms: O_6  and  C_7
REMARK    5  A    between atoms: C_10  and  S_11
REMARK    6  A    between atoms: S_11  and  N_14
REMARK    7  A    between atoms: N_14  and  C_15
REMARK    8  A    between atoms: C_19  and  C_20
REMARK    9  A    between atoms: N_22  and  O_23
REMARK                            x       y       z     vdW  Elec       q    Type
REMARK                         _______ _______ _______ _____ _____    ______ ____
ROOT
ATOM      1  C   UNL     1       1.718   8.012  19.526  0.00  0.00    +0.000 A 
ATOM      2  C   UNL     1       2.055   7.554  18.257  0.00  0.00    +0.000 A 
ATOM      3  C   UNL     1       2.326   6.217  18.035  0.00  0.00    +0.000 A 
ATOM      4  C   UNL     1       2.339   5.323  19.104  0.00  0.00    +0.000 A 
ATOM      5  C   UNL     1       1.970   5.751  20.386  0.00  0.00    +0.000 A 
ATOM      6  C   UNL     1       1.665   7.109  20.598  0.00  0.00    +0.000 A 
ENDROOT
BRANCH   4   7
ATOM      7  S   UNL     1       2.790   3.639  18.739  0.00  0.00    +0.000 S 
ATOM      8  O   UNL     1       2.748   2.903  19.963  0.00  0.00    +0.000 OA
ATOM      9  O   UNL     1       2.001   3.239  17.578  0.00  0.00    +0.000 OA
BRANCH   7  10
ATOM     10  N   UNL     1       4.407   3.726  18.258  0.00  0.00    +0.000 NA
ATOM     11  H   UNL     1       4.958   2.930  18.589  0.00  0.00    +0.000 HD
BRANCH  10  12
ATOM     12  C   UNL     1       4.793   4.348  16.982  0.00  0.00    +0.000 C 
ATOM     13  C   UNL     1       5.759   3.578  16.081  0.00  0.00    +0.000 C 
ATOM     14  C   UNL     1       6.205   4.619  15.048  0.00  0.00    +0.000 C 
ATOM     15  C   UNL     1       5.898   5.988  15.664  0.00  0.00    +0.000 C 
ATOM     16  C   UNL     1       5.505   5.705  17.121  0.00  0.00    +0.000 C 
BRANCH  16  17
ATOM     17  C   UNL     1       6.755   5.685  18.010  0.00  0.00    +0.000 C 
ATOM     18  O   UNL     1       7.897   5.870  17.592  0.00  0.00    +0.000 OA
ATOM     19  N   UNL     1       6.526   5.382  19.335  0.00  0.00    +0.000 N 
ATOM     20  H   UNL     1       5.650   5.567  19.808  0.00  0.00    +0.000 HD
BRANCH  19  21
ATOM     21  O   UNL     1       7.674   5.394  20.165  0.00  0.00    +0.000 OA
ATOM     22  H   UNL     1       7.456   6.095  20.819  0.00  0.00    +0.000 HD
ENDBRANCH  19  21
ENDBRANCH  16  17
ENDBRANCH  10  12
ENDBRANCH   7  10
ENDBRANCH   4   7
BRANCH   1  23
ATOM     23  O   UNL     1       1.433   9.344  19.701  0.00  0.00    +0.000 OA
BRANCH  23  24
ATOM     24  C   UNL     1       0.791   9.954  18.550  0.00  0.00    +0.000 C 
BRANCH  24  28
ATOM     25  C   UNL     1      -1.573  13.047  21.715  0.00  0.00    +0.000 C 
ATOM     26  C   UNL     1      -1.558  12.214  20.469  0.00  0.00    +0.000 A 
ATOM     27  C   UNL     1      -0.427  11.497  20.112  0.00  0.00    +0.000 A 
ATOM     28  C   UNL     1      -0.447  10.721  18.950  0.00  0.00    +0.000 A 
ATOM     29  C   UNL     1      -1.625  10.691  18.160  0.00  0.00    +0.000 A 
ATOM     30  C   UNL     1      -1.763   9.951  16.960  0.00  0.00    +0.000 A 
ATOM     31  C   UNL     1      -2.948   9.974  16.224  0.00  0.00    +0.000 A 
ATOM     32  C   UNL     1      -4.016  10.735  16.676  0.00  0.00    +0.000 A 
ATOM     33  C   UNL     1      -3.890  11.467  17.857  0.00  0.00    +0.000 A 
ATOM     34  C   UNL     1      -2.721  11.463  18.609  0.00  0.00    +0.000 A 
ATOM     35  N   UNL     1      -2.690  12.198  19.732  0.00  0.00    +0.000 NA
ENDBRANCH  24  28
ENDBRANCH  23  24
ENDBRANCH   1  23
TORSDOF 8
ENDMDL
MODEL 5
REMARK VINA RESULT:      -8.7      3.185      9.760
REMARK  Name = 
REMARK  9 active torsions:
REMARK  status: ('A' for Active; 'I' for Inactive)
REMARK    1  A    between atoms: C_1  and  C_2
REMARK    2  A    between atoms: C_4  and  C_5
REMARK    3  A    between atoms: C_5  and  O_6
REMARK    4  A    between atoms: O_6  and  C_7
REMARK    5  A    between atoms: C_10  and  S_11
REMARK    6  A    between atoms: S_11  and  N_14
REMARK    7  A    between atoms: N_14  and  C_15
REMARK    8  A    between atoms: C_19  and  C_20
REMARK    9  A    between atoms: N_22  and  O_23
REMARK                            x       y       z     vdW  Elec       q    Type
REMARK                         _______ _______ _______ _____ _____    ______ ____
ROOT
ATOM      1  C   UNL     1       1.688   8.703  19.208  0.00  0.00    +0.000 A 
ATOM      2  C   UNL     1       1.894   9.536  18.112  0.00  0.00    +0.000 A 
ATOM      3  C   UNL     1       1.331  10.797  18.065  0.00  0.00    +0.000 A 
ATOM      4  C   UNL     1       0.483  11.219  19.087  0.00  0.00    +0.000 A 
ATOM      5  C   UNL     1       0.287  10.415  20.218  0.00  0.00    +0.000 A 
ATOM      6  C   UNL     1       0.889   9.144  20.272  0.00  0.00    +0.000 A 
ENDROOT
BRANCH   4   7
ATOM      7  S   UNL     1      -0.270  12.822  18.897  0.00  0.00    +0.000 S 
ATOM      8  O   UNL     1      -1.005  13.101  20.091  0.00  0.00    +0.000 OA
ATOM      9  O   UNL     1       0.775  13.719  18.415  0.00  0.00    +0.000 OA
BRANCH   7  10
ATOM     10  N   UNL     1      -1.392  12.619  17.650  0.00  0.00    +0.000 NA
ATOM     11  H   UNL     1      -1.271  13.303  16.900  0.00  0.00    +0.000 HD
BRANCH  10  12
ATOM     12  C   UNL     1      -1.906  11.288  17.292  0.00  0.00    +0.000 C 
ATOM     13  C   UNL     1      -2.598  11.135  15.939  0.00  0.00    +0.000 C 
ATOM     14  C   UNL     1      -3.291   9.771  16.033  0.00  0.00    +0.000 C 
ATOM     15  C   UNL     1      -3.392   9.449  17.529  0.00  0.00    +0.000 C 
ATOM     16  C   UNL     1      -2.970  10.733  18.255  0.00  0.00    +0.000 C 
BRANCH  16  17
ATOM     17  C   UNL     1      -4.185  11.645  18.463  0.00  0.00    +0.000 C 
ATOM     18  O   UNL     1      -5.300  11.421  17.992  0.00  0.00    +0.000 OA
ATOM     19  N   UNL     1      -3.937  12.797  19.179  0.00  0.00    +0.000 N 
ATOM     20  H   UNL     1      -3.201  12.879  19.868  0.00  0.00    +0.000 HD
BRANCH  19  21
ATOM     21  O   UNL     1      -5.065  13.627  19.398  0.00  0.00    +0.000 OA
ATOM     22  H   UNL     1      -4.710  14.523  19.205  0.00  0.00    +0.000 HD
ENDBRANCH  19  21
ENDBRANCH  16  17
ENDBRANCH  10  12
ENDBRANCH   7  10
ENDBRANCH   4   7
BRANCH   1  23
ATOM     23  O   UNL     1       2.284   7.466  19.227  0.00  0.00    +0.000 OA
BRANCH  23  24
ATOM     24  C   UNL     1       2.934   7.117  17.976  0.00  0.00    +0.000 C 
BRANCH  24  28
ATOM     25  C   UNL     1       7.489   5.050  18.358  0.00  0.00    +0.000 C 
ATOM     26  C   UNL     1       5.996   4.924  18.324  0.00  0.00    +0.000 A 
ATOM     27  C   UNL     1       5.196   6.045  18.167  0.00  0.00    +0.000 A 
ATOM     28  C   UNL     1       3.807   5.894  18.129  0.00  0.00    +0.000 A 
ATOM     29  C   UNL     1       3.250   4.597  18.257  0.00  0.00    +0.000 A 
ATOM     30  C   UNL     1       1.860   4.320  18.242  0.00  0.00    +0.000 A 
ATOM     31  C   UNL     1       1.378   3.018  18.384  0.00  0.00    +0.000 A 
ATOM     32  C   UNL     1       2.274   1.972  18.542  0.00  0.00    +0.000 A 
ATOM     33  C   UNL     1       3.645   2.235  18.559  0.00  0.00    +0.000 A 
ATOM     34  C   UNL     1       4.152   3.521  18.419  0.00  0.00    +0.000 A 
ATOM     35  N   UNL     1       5.485   3.680  18.447  0.00  0.00    +0.000 NA
ENDBRANCH  24  28
ENDBRANCH  23  24
ENDBRANCH   1  23
TORSDOF 8
ENDMDL
MODEL 6
REMARK VINA RESULT:      -8.7      1.677      3.283
REMARK  Name = 
REMARK  9 active torsions:
REMARK  status: ('A' for Active; 'I' for Inactive)
REMARK    1  A    between atoms: C_1  and  C_2
REMARK    2  A    between atoms: C_4  and  C_5
REMARK    3  A    between atoms: C_5  and  O_6
REMARK    4  A    between atoms: O_6  and  C_7
REMARK    5  A    between atoms: C_10  and  S_11
REMARK    6  A    between atoms: S_11  and  N_14
REMARK    7  A    between atoms: N_14  and  C_15
REMARK    8  A    between atoms: C_19  and  C_20
REMARK    9  A    between atoms: N_22  and  O_23
REMARK                            x       y       z     vdW  Elec       q    Type
REMARK                         _______ _______ _______ _____ _____    ______ ____
ROOT
ATOM      1  C   UNL     1       1.816   7.399  19.749  0.00  0.00    +0.000 A 
ATOM      2  C   UNL     1       2.121   7.140  18.416  0.00  0.00    +0.000 A 
ATOM      3  C   UNL     1       2.408   5.856  17.992  0.00  0.00    +0.000 A 
ATOM      4  C   UNL     1       2.468   4.815  18.917  0.00  0.00    +0.000 A 
ATOM      5  C   UNL     1       2.131   5.042  20.258  0.00  0.00    +0.000 A 
ATOM      6  C   UNL     1       1.810   6.348  20.676  0.00  0.00    +0.000 A 
ENDROOT
BRANCH   4   7
ATOM      7  S   UNL     1       2.935   3.213  18.295  0.00  0.00    +0.000 S 
ATOM      8  O   UNL     1       2.914   2.298  19.393  0.00  0.00    +0.000 OA
ATOM      9  O   UNL     1       2.139   2.984  17.093  0.00  0.00    +0.000 OA
BRANCH   7  10
ATOM     10  N   UNL     1       4.546   3.394  17.821  0.00  0.00    +0.000 NA
ATOM     11  H   UNL     1       5.117   2.578  18.052  0.00  0.00    +0.000 HD
BRANCH  10  12
ATOM     12  C   UNL     1       4.908   4.170  16.625  0.00  0.00    +0.000 C 
ATOM     13  C   UNL     1       6.007   3.612  15.722  0.00  0.00    +0.000 C 
ATOM     14  C   UNL     1       6.363   4.788  14.806  0.00  0.00    +0.000 C 
ATOM     15  C   UNL     1       5.852   6.048  15.515  0.00  0.00    +0.000 C 
ATOM     16  C   UNL     1       5.430   5.588  16.917  0.00  0.00    +0.000 C 
BRANCH  16  17
ATOM     17  C   UNL     1       6.628   5.646  17.873  0.00  0.00    +0.000 C 
ATOM     18  O   UNL     1       7.760   5.990  17.535  0.00  0.00    +0.000 OA
ATOM     19  N   UNL     1       6.371   5.223  19.160  0.00  0.00    +0.000 N 
ATOM     20  H   UNL     1       5.458   5.273  19.593  0.00  0.00    +0.000 HD
BRANCH  19  21
ATOM     21  O   UNL     1       7.467   5.305  20.054  0.00  0.00    +0.000 OA
ATOM     22  H   UNL     1       7.181   6.008  20.678  0.00  0.00    +0.000 HD
ENDBRANCH  19  21
ENDBRANCH  16  17
ENDBRANCH  10  12
ENDBRANCH   7  10
ENDBRANCH   4   7
BRANCH   1  23
ATOM     23  O   UNL     1       1.514   8.685  20.125  0.00  0.00    +0.000 OA
BRANCH  23  24
ATOM     24  C   UNL     1       1.459   9.617  19.012  0.00  0.00    +0.000 C 
BRANCH  24  28
ATOM     25  C   UNL     1      -2.862   9.930  16.483  0.00  0.00    +0.000 C 
ATOM     26  C   UNL     1      -1.990  10.331  17.634  0.00  0.00    +0.000 A 
ATOM     27  C   UNL     1      -0.716   9.803  17.773  0.00  0.00    +0.000 A 
ATOM     28  C   UNL     1       0.077  10.204  18.851  0.00  0.00    +0.000 A 
ATOM     29  C   UNL     1      -0.444  11.138  19.782  0.00  0.00    +0.000 A 
ATOM     30  C   UNL     1       0.260  11.613  20.917  0.00  0.00    +0.000 A 
ATOM     31  C   UNL     1      -0.318  12.526  21.800  0.00  0.00    +0.000 A 
ATOM     32  C   UNL     1      -1.606  12.981  21.564  0.00  0.00    +0.000 A 
ATOM     33  C   UNL     1      -2.307  12.519  20.449  0.00  0.00    +0.000 A 
ATOM     34  C   UNL     1      -1.757  11.611  19.554  0.00  0.00    +0.000 A 
ATOM     35  N   UNL     1      -2.505  11.222  18.509  0.00  0.00    +0.000 NA
ENDBRANCH  24  28
ENDBRANCH  23  24
ENDBRANCH   1  23
TORSDOF 8
ENDMDL
MODEL 7
REMARK VINA RESULT:      -8.6      1.058      1.507
REMARK  Name = 
REMARK  9 active torsions:
REMARK  status: ('A' for Active; 'I' for Inactive)
REMARK    1  A    between atoms: C_1  and  C_2
REMARK    2  A    between atoms: C_4  and  C_5
REMARK    3  A    between atoms: C_5  and  O_6
REMARK    4  A    between atoms: O_6  and  C_7
REMARK    5  A    between atoms: C_10  and  S_11
REMARK    6  A    between atoms: S_11  and  N_14
REMARK    7  A    between atoms: N_14  and  C_15
REMARK    8  A    between atoms: C_19  and  C_20
REMARK    9  A    between atoms: N_22  and  O_23
REMARK                            x       y       z     vdW  Elec       q    Type
REMARK                         _______ _______ _______ _____ _____    ______ ____
ROOT
ATOM      1  C   UNL     1       1.746   7.732  20.352  0.00  0.00    +0.000 A 
ATOM      2  C   UNL     1       2.174   7.794  19.029  0.00  0.00    +0.000 A 
ATOM      3  C   UNL     1       2.439   6.640  18.316  0.00  0.00    +0.000 A 
ATOM      4  C   UNL     1       2.352   5.399  18.944  0.00  0.00    +0.000 A 
ATOM      5  C   UNL     1       1.890   5.306  20.263  0.00  0.00    +0.000 A 
ATOM      6  C   UNL     1       1.593   6.485  20.973  0.00  0.00    +0.000 A 
ENDROOT
BRANCH   4   7
ATOM      7  S   UNL     1       2.802   3.974  17.974  0.00  0.00    +0.000 S 
ATOM      8  O   UNL     1       3.271   2.968  18.873  0.00  0.00    +0.000 OA
ATOM      9  O   UNL     1       1.691   3.725  17.059  0.00  0.00    +0.000 OA
BRANCH   7  10
ATOM     10  N   UNL     1       4.123   4.485  17.054  0.00  0.00    +0.000 NA
ATOM     11  H   UNL     1       3.864   5.178  16.347  0.00  0.00    +0.000 HD
BRANCH  10  12
ATOM     12  C   UNL     1       5.473   4.563  17.632  0.00  0.00    +0.000 C 
ATOM     13  C   UNL     1       5.928   5.910  18.194  0.00  0.00    +0.000 C 
ATOM     14  C   UNL     1       7.439   5.736  18.386  0.00  0.00    +0.000 C 
ATOM     15  C   UNL     1       7.846   4.553  17.500  0.00  0.00    +0.000 C 
ATOM     16  C   UNL     1       6.610   4.231  16.649  0.00  0.00    +0.000 C 
BRANCH  16  17
ATOM     17  C   UNL     1       6.617   5.076  15.368  0.00  0.00    +0.000 C 
ATOM     18  O   UNL     1       5.696   5.818  15.030  0.00  0.00    +0.000 OA
ATOM     19  N   UNL     1       7.723   4.907  14.562  0.00  0.00    +0.000 N 
ATOM     20  H   UNL     1       8.630   4.625  14.910  0.00  0.00    +0.000 HD
BRANCH  19  21
ATOM     21  O   UNL     1       7.747   5.709  13.394  0.00  0.00    +0.000 OA
ATOM     22  H   UNL     1       7.141   5.224  12.791  0.00  0.00    +0.000 HD
ENDBRANCH  19  21
ENDBRANCH  16  17
ENDBRANCH  10  12
ENDBRANCH   7  10
ENDBRANCH   4   7
BRANCH   1  23
ATOM     23  O   UNL     1       1.471   8.901  21.019  0.00  0.00    +0.000 OA
BRANCH  23  24
ATOM     24  C   UNL     1       0.117   8.965  21.540  0.00  0.00    +0.000 C 
BRANCH  24  28
ATOM     25  C   UNL     1      -1.168  13.488  23.289  0.00  0.00    +0.000 C 
ATOM     26  C   UNL     1      -1.092  12.493  22.171  0.00  0.00    +0.000 A 
ATOM     27  C   UNL     1      -0.544  11.238  22.378  0.00  0.00    +0.000 A 
ATOM     28  C   UNL     1      -0.497  10.328  21.319  0.00  0.00    +0.000 A 
ATOM     29  C   UNL     1      -1.007  10.714  20.054  0.00  0.00    +0.000 A 
ATOM     30  C   UNL     1      -1.007   9.884  18.905  0.00  0.00    +0.000 A 
ATOM     31  C   UNL     1      -1.516  10.332  17.686  0.00  0.00    +0.000 A 
ATOM     32  C   UNL     1      -2.035  11.615  17.594  0.00  0.00    +0.000 A 
ATOM     33  C   UNL     1      -2.040  12.439  18.719  0.00  0.00    +0.000 A 
ATOM     34  C   UNL     1      -1.540  12.019  19.945  0.00  0.00    +0.000 A 
ATOM     35  N   UNL     1      -1.585  12.880  20.974  0.00  0.00    +0.000 NA
ENDBRANCH  24  28
ENDBRANCH  23  24
ENDBRANCH   1  23
TORSDOF 8
ENDMDL
MODEL 8
REMARK VINA RESULT:      -8.6      1.797      2.491
REMARK  Name = 
REMARK  9 active torsions:
REMARK  status: ('A' for Active; 'I' for Inactive)
REMARK    1  A    between atoms: C_1  and  C_2
REMARK    2  A    between atoms: C_4  and  C_5
REMARK    3  A    between atoms: C_5  and  O_6
REMARK    4  A    between atoms: O_6  and  C_7
REMARK    5  A    between atoms: C_10  and  S_11
REMARK    6  A    between atoms: S_11  and  N_14
REMARK    7  A    between atoms: N_14  and  C_15
REMARK    8  A    between atoms: C_19  and  C_20
REMARK    9  A    between atoms: N_22  and  O_23
REMARK                            x       y       z     vdW  Elec       q    Type
REMARK                         _______ _______ _______ _____ _____    ______ ____
ROOT
ATOM      1  C   UNL     1       1.257   9.591  19.597  0.00  0.00    +0.000 A 
ATOM      2  C   UNL     1       1.839   9.020  18.469  0.00  0.00    +0.000 A 
ATOM      3  C   UNL     1       2.220   7.691  18.464  0.00  0.00    +0.000 A 
ATOM      4  C   UNL     1       2.093   6.927  19.623  0.00  0.00    +0.000 A 
ATOM      5  C   UNL     1       1.479   7.467  20.761  0.00  0.00    +0.000 A 
ATOM      6  C   UNL     1       1.065   8.812  20.747  0.00  0.00    +0.000 A 
ENDROOT
BRANCH   4   7
ATOM      7  S   UNL     1       2.695   5.252  19.551  0.00  0.00    +0.000 S 
ATOM      8  O   UNL     1       2.650   4.717  20.875  0.00  0.00    +0.000 OA
ATOM      9  O   UNL     1       2.000   4.607  18.441  0.00  0.00    +0.000 OA
BRANCH   7  10
ATOM     10  N   UNL     1       4.322   5.403  19.123  0.00  0.00    +0.000 NA
ATOM     11  H   UNL     1       4.953   5.093  19.866  0.00  0.00    +0.000 HD
BRANCH  10  12
ATOM     12  C   UNL     1       4.765   5.238  17.730  0.00  0.00    +0.000 C 
ATOM     13  C   UNL     1       4.874   3.815  17.184  0.00  0.00    +0.000 C 
ATOM     14  C   UNL     1       5.663   3.982  15.881  0.00  0.00    +0.000 C 
ATOM     15  C   UNL     1       6.376   5.335  15.986  0.00  0.00    +0.000 C 
ATOM     16  C   UNL     1       6.168   5.798  17.434  0.00  0.00    +0.000 C 
BRANCH  16  17
ATOM     17  C   UNL     1       7.282   5.243  18.331  0.00  0.00    +0.000 C 
ATOM     18  O   UNL     1       8.141   4.450  17.947  0.00  0.00    +0.000 OA
ATOM     19  N   UNL     1       7.230   5.649  19.648  0.00  0.00    +0.000 N 
ATOM     20  H   UNL     1       6.816   6.522  19.947  0.00  0.00    +0.000 HD
BRANCH  19  21
ATOM     21  O   UNL     1       8.276   5.163  20.471  0.00  0.00    +0.000 OA
ATOM     22  H   UNL     1       8.654   5.990  20.845  0.00  0.00    +0.000 HD
ENDBRANCH  19  21
ENDBRANCH  16  17
ENDBRANCH  10  12
ENDBRANCH   7  10
ENDBRANCH   4   7
BRANCH   1  23
ATOM     23  O   UNL     1       0.871  10.908  19.554  0.00  0.00    +0.000 OA
BRANCH  23  24
ATOM     24  C   UNL     1      -0.145  11.182  18.553  0.00  0.00    +0.000 C 
BRANCH  24  28
ATOM     25  C   UNL     1      -2.641  13.036  22.490  0.00  0.00    +0.000 C 
ATOM     26  C   UNL     1      -2.615  12.534  21.078  0.00  0.00    +0.000 A 
ATOM     27  C   UNL     1      -1.430  12.105  20.502  0.00  0.00    +0.000 A 
ATOM     28  C   UNL     1      -1.440  11.632  19.187  0.00  0.00    +0.000 A 
ATOM     29  C   UNL     1      -2.663  11.607  18.472  0.00  0.00    +0.000 A 
ATOM     30  C   UNL     1      -2.797  11.159  17.134  0.00  0.00    +0.000 A 
ATOM     31  C   UNL     1      -4.032  11.171  16.484  0.00  0.00    +0.000 A 
ATOM     32  C   UNL     1      -5.153  11.629  17.159  0.00  0.00    +0.000 A 
ATOM     33  C   UNL     1      -5.031  12.073  18.477  0.00  0.00    +0.000 A 
ATOM     34  C   UNL     1      -3.815  12.072  19.147  0.00  0.00    +0.000 A 
ATOM     35  N   UNL     1      -3.791  12.517  20.414  0.00  0.00    +0.000 NA
ENDBRANCH  24  28
ENDBRANCH  23  24
ENDBRANCH   1  23
TORSDOF 8
ENDMDL
MODEL 9
REMARK VINA RESULT:      -8.6      0.651      1.100
REMARK  Name = 
REMARK  9 active torsions:
REMARK  status: ('A' for Active; 'I' for Inactive)
REMARK    1  A    between atoms: C_1  and  C_2
REMARK    2  A    between atoms: C_4  and  C_5
REMARK    3  A    between atoms: C_5  and  O_6
REMARK    4  A    between atoms: O_6  and  C_7
REMARK    5  A    between atoms: C_10  and  S_11
REMARK    6  A    between atoms: S_11  and  N_14
REMARK    7  A    between atoms: N_14  and  C_15
REMARK    8  A    between atoms: C_19  and  C_20
REMARK    9  A    between atoms: N_22  and  O_23
REMARK                            x       y       z     vdW  Elec       q    Type
REMARK                         _______ _______ _______ _____ _____    ______ ____
ROOT
ATOM      1  C   UNL     1       1.576   8.373  19.427  0.00  0.00    +0.000 A 
ATOM      2  C   UNL     1       1.933   7.916  18.162  0.00  0.00    +0.000 A 
ATOM      3  C   UNL     1       2.293   6.597  17.961  0.00  0.00    +0.000 A 
ATOM      4  C   UNL     1       2.374   5.725  19.046  0.00  0.00    +0.000 A 
ATOM      5  C   UNL     1       1.988   6.150  20.323  0.00  0.00    +0.000 A 
ATOM      6  C   UNL     1       1.593   7.488  20.514  0.00  0.00    +0.000 A 
ENDROOT
BRANCH   4   7
ATOM      7  S   UNL     1       2.935   4.069  18.706  0.00  0.00    +0.000 S 
ATOM      8  O   UNL     1       3.532   3.559  19.900  0.00  0.00    +0.000 OA
ATOM      9  O   UNL     1       1.828   3.381  18.050  0.00  0.00    +0.000 OA
BRANCH   7  10
ATOM     10  N   UNL     1       4.169   4.263  17.568  0.00  0.00    +0.000 NA
ATOM     11  H   UNL     1       3.835   4.678  16.695  0.00  0.00    +0.000 HD
BRANCH  10  12
ATOM     12  C   UNL     1       5.552   4.546  17.980  0.00  0.00    +0.000 C 
ATOM     13  C   UNL     1       5.934   6.006  18.225  0.00  0.00    +0.000 C 
ATOM     14  C   UNL     1       7.466   5.977  18.292  0.00  0.00    +0.000 C 
ATOM     15  C   UNL     1       7.896   4.673  17.612  0.00  0.00    +0.000 C 
ATOM     16  C   UNL     1       6.624   4.105  16.969  0.00  0.00    +0.000 C 
BRANCH  16  17
ATOM     17  C   UNL     1       6.448   4.677  15.556  0.00  0.00    +0.000 C 
ATOM     18  O   UNL     1       5.371   4.714  14.961  0.00  0.00    +0.000 OA
ATOM     19  N   UNL     1       7.608   5.106  14.949  0.00  0.00    +0.000 N 
ATOM     20  H   UNL     1       8.418   5.434  15.460  0.00  0.00    +0.000 HD
BRANCH  19  21
ATOM     21  O   UNL     1       7.444   5.663  13.657  0.00  0.00    +0.000 OA
ATOM     22  H   UNL     1       6.466   5.681  13.555  0.00  0.00    +0.000 HD
ENDBRANCH  19  21
ENDBRANCH  16  17
ENDBRANCH  10  12
ENDBRANCH   7  10
ENDBRANCH   4   7
BRANCH   1  23
ATOM     23  O   UNL     1       1.203   9.686  19.581  0.00  0.00    +0.000 OA
BRANCH  23  24
ATOM     24  C   UNL     1       0.473  10.217  18.444  0.00  0.00    +0.000 C 
BRANCH  24  28
ATOM     25  C   UNL     1      -2.075  12.939  21.802  0.00  0.00    +0.000 C 
ATOM     26  C   UNL     1      -2.002  12.217  20.490  0.00  0.00    +0.000 A 
ATOM     27  C   UNL     1      -0.837  11.575  20.101  0.00  0.00    +0.000 A 
ATOM     28  C   UNL     1      -0.802  10.903  18.877  0.00  0.00    +0.000 A 
ATOM     29  C   UNL     1      -1.960  10.899  18.058  0.00  0.00    +0.000 A 
ATOM     30  C   UNL     1      -2.044  10.260  16.796  0.00  0.00    +0.000 A 
ATOM     31  C   UNL     1      -3.213  10.304  16.036  0.00  0.00    +0.000 A 
ATOM     32  C   UNL     1      -4.318  10.985  16.524  0.00  0.00    +0.000 A 
ATOM     33  C   UNL     1      -4.245  11.617  17.766  0.00  0.00    +0.000 A 
ATOM     34  C   UNL     1      -3.095  11.589  18.543  0.00  0.00    +0.000 A 
ATOM     35  N   UNL     1      -3.115  12.225  19.726  0.00  0.00    +0.000 NA
ENDBRANCH  24  28
ENDBRANCH  23  24
ENDBRANCH   1  23
TORSDOF 8
ENDMDL
