MODEL 1
REMARK VINA RESULT:      -7.7      0.000      0.000
REMARK  Name = 
REMARK  2 active torsions:
REMARK  status: ('A' for Active; 'I' for Inactive)
REMARK    1  A    between atoms: C_5  and  C_6
REMARK    2  A    between atoms: C_9  and  C_10
REMARK                            x       y       z     vdW  Elec       q    Type
REMARK                         _______ _______ _______ _____ _____    ______ ____
ROOT
ATOM      1  C   UNL     1       5.568   4.201  17.503  0.00  0.00    +0.000 A 
ATOM      2  N   UNL     1       6.302   4.208  18.623  0.00  0.00    +0.000 NA
ATOM      3  O   UNL     1       5.380   3.922  19.624  0.00  0.00    +0.000 OA
ATOM      4  C   UNL     1       4.159   3.764  19.021  0.00  0.00    +0.000 A 
ATOM      5  N   UNL     1       4.234   3.936  17.715  0.00  0.00    +0.000 NA
ENDROOT
BRANCH   1  10
ATOM      6 CL   UNL     1       7.927   5.259  12.195  0.00  0.00    +0.000 Cl
ATOM      7  C   UNL     1       7.194   4.911  13.704  0.00  0.00    +0.000 A 
ATOM      8  C   UNL     1       6.134   4.025  13.794  0.00  0.00    +0.000 A 
ATOM      9  C   UNL     1       5.585   3.784  15.052  0.00  0.00    +0.000 A 
ATOM     10  C   UNL     1       6.109   4.433  16.176  0.00  0.00    +0.000 A 
ATOM     11  C   UNL     1       7.175   5.305  15.968  0.00  0.00    +0.000 A 
ATOM     12  N   UNL     1       7.731   5.559  14.758  0.00  0.00    +0.000 NA
ENDBRANCH   1  10
BRANCH   4  13
ATOM     13  C   UNL     1       2.954   3.433  19.732  0.00  0.00    +0.000 A 
ATOM     14  S   UNL     1       3.025   2.743  21.308  0.00  0.00    +0.000 S 
ATOM     15  C   UNL     1       1.325   2.688  21.444  0.00  0.00    +0.000 A 
ATOM     16  C   UNL     1       0.705   3.173  20.317  0.00  0.00    +0.000 A 
ATOM     17  C   UNL     1       1.642   3.599  19.328  0.00  0.00    +0.000 A 
ATOM     18 CL   UNL     1       1.096   4.241  17.834  0.00  0.00    +0.000 Cl
ENDBRANCH   4  13
TORSDOF 2
ENDMDL
MODEL 2
REMARK VINA RESULT:      -7.5      1.051      1.062
REMARK  Name = 
REMARK  2 active torsions:
REMARK  status: ('A' for Active; 'I' for Inactive)
REMARK    1  A    between atoms: C_5  and  C_6
REMARK    2  A    between atoms: C_9  and  C_10
REMARK                            x       y       z     vdW  Elec       q    Type
REMARK                         _______ _______ _______ _____ _____    ______ ____
ROOT
ATOM      1  C   UNL     1       5.828   4.398  17.301  0.00  0.00    +0.000 A 
ATOM      2  N   UNL     1       6.683   4.424  18.331  0.00  0.00    +0.000 NA
ATOM      3  O   UNL     1       5.862   4.288  19.445  0.00  0.00    +0.000 OA
ATOM      4  C   UNL     1       4.571   4.190  18.992  0.00  0.00    +0.000 A 
ATOM      5  N   UNL     1       4.511   4.262  17.676  0.00  0.00    +0.000 NA
ENDROOT
BRANCH   1  10
ATOM      6 CL   UNL     1       7.635   4.887  11.701  0.00  0.00    +0.000 Cl
ATOM      7  C   UNL     1       7.058   4.703  13.305  0.00  0.00    +0.000 A 
ATOM      8  C   UNL     1       6.003   3.853  13.588  0.00  0.00    +0.000 A 
ATOM      9  C   UNL     1       5.585   3.747  14.914  0.00  0.00    +0.000 A 
ATOM     10  C   UNL     1       6.231   4.490  15.909  0.00  0.00    +0.000 A 
ATOM     11  C   UNL     1       7.281   5.312  15.509  0.00  0.00    +0.000 A 
ATOM     12  N   UNL     1       7.710   5.436  14.229  0.00  0.00    +0.000 NA
ENDBRANCH   1  10
BRANCH   4  13
ATOM     13  C   UNL     1       3.434   4.012  19.852  0.00  0.00    +0.000 A 
ATOM     14  S   UNL     1       3.148   2.504  20.630  0.00  0.00    +0.000 S 
ATOM     15  C   UNL     1       1.750   3.087  21.418  0.00  0.00    +0.000 A 
ATOM     16  C   UNL     1       1.492   4.399  21.096  0.00  0.00    +0.000 A 
ATOM     17  C   UNL     1       2.458   4.933  20.191  0.00  0.00    +0.000 A 
ATOM     18 CL   UNL     1       2.336   6.555  19.648  0.00  0.00    +0.000 Cl
ENDBRANCH   4  13
TORSDOF 2
ENDMDL
MODEL 3
REMARK VINA RESULT:      -7.3      1.571      1.679
REMARK  Name = 
REMARK  2 active torsions:
REMARK  status: ('A' for Active; 'I' for Inactive)
REMARK    1  A    between atoms: C_5  and  C_6
REMARK    2  A    between atoms: C_9  and  C_10
REMARK                            x       y       z     vdW  Elec       q    Type
REMARK                         _______ _______ _______ _____ _____    ______ ____
ROOT
ATOM      1  C   UNL     1       5.786   4.336  17.297  0.00  0.00    +0.000 A 
ATOM      2  N   UNL     1       6.606   4.518  18.340  0.00  0.00    +0.000 NA
ATOM      3  O   UNL     1       5.794   4.283  19.444  0.00  0.00    +0.000 OA
ATOM      4  C   UNL     1       4.543   3.977  18.972  0.00  0.00    +0.000 A 
ATOM      5  N   UNL     1       4.498   4.007  17.654  0.00  0.00    +0.000 NA
ENDROOT
BRANCH   1  10
ATOM      6 CL   UNL     1       7.624   4.944  11.719  0.00  0.00    +0.000 Cl
ATOM      7  C   UNL     1       7.040   4.724  13.315  0.00  0.00    +0.000 A 
ATOM      8  C   UNL     1       6.010   3.837  13.581  0.00  0.00    +0.000 A 
ATOM      9  C   UNL     1       5.585   3.703  14.901  0.00  0.00    +0.000 A 
ATOM     10  C   UNL     1       6.197   4.456  15.910  0.00  0.00    +0.000 A 
ATOM     11  C   UNL     1       7.223   5.317  15.527  0.00  0.00    +0.000 A 
ATOM     12  N   UNL     1       7.659   5.468  14.253  0.00  0.00    +0.000 NA
ENDBRANCH   1  10
BRANCH   4  13
ATOM     13  C   UNL     1       3.429   3.646  19.819  0.00  0.00    +0.000 A 
ATOM     14  S   UNL     1       1.948   4.516  19.703  0.00  0.00    +0.000 S 
ATOM     15  C   UNL     1       1.208   3.568  20.913  0.00  0.00    +0.000 A 
ATOM     16  C   UNL     1       2.063   2.612  21.410  0.00  0.00    +0.000 A 
ATOM     17  C   UNL     1       3.344   2.658  20.784  0.00  0.00    +0.000 A 
ATOM     18 CL   UNL     1       4.577   1.558  21.245  0.00  0.00    +0.000 Cl
ENDBRANCH   4  13
TORSDOF 2
ENDMDL
MODEL 4
REMARK VINA RESULT:      -6.7      5.717      8.275
REMARK  Name = 
REMARK  2 active torsions:
REMARK  status: ('A' for Active; 'I' for Inactive)
REMARK    1  A    between atoms: C_5  and  C_6
REMARK    2  A    between atoms: C_9  and  C_10
REMARK                            x       y       z     vdW  Elec       q    Type
REMARK                         _______ _______ _______ _____ _____    ______ ____
ROOT
ATOM      1  C   UNL     1       1.397   8.475  20.125  0.00  0.00    +0.000 A 
ATOM      2  N   UNL     1       1.769   8.731  18.864  0.00  0.00    +0.000 NA
ATOM      3  O   UNL     1       2.467   7.588  18.488  0.00  0.00    +0.000 OA
ATOM      4  C   UNL     1       2.458   6.733  19.560  0.00  0.00    +0.000 A 
ATOM      5  N   UNL     1       1.814   7.249  20.590  0.00  0.00    +0.000 NA
ENDROOT
BRANCH   1  10
ATOM      6 CL   UNL     1      -1.817  12.302  23.270  0.00  0.00    +0.000 Cl
ATOM      7  C   UNL     1      -0.879  11.150  22.415  0.00  0.00    +0.000 A 
ATOM      8  C   UNL     1      -0.497   9.960  23.009  0.00  0.00    +0.000 A 
ATOM      9  C   UNL     1       0.262   9.065  22.257  0.00  0.00    +0.000 A 
ATOM     10  C   UNL     1       0.614   9.386  20.941  0.00  0.00    +0.000 A 
ATOM     11  C   UNL     1       0.175  10.612  20.445  0.00  0.00    +0.000 A 
ATOM     12  N   UNL     1      -0.564  11.502  21.152  0.00  0.00    +0.000 NA
ENDBRANCH   1  10
BRANCH   4  13
ATOM     13  C   UNL     1       3.063   5.429  19.546  0.00  0.00    +0.000 A 
ATOM     14  S   UNL     1       4.716   5.231  19.110  0.00  0.00    +0.000 S 
ATOM     15  C   UNL     1       4.659   3.544  19.357  0.00  0.00    +0.000 A 
ATOM     16  C   UNL     1       3.410   3.126  19.754  0.00  0.00    +0.000 A 
ATOM     17  C   UNL     1       2.488   4.210  19.860  0.00  0.00    +0.000 A 
ATOM     18 CL   UNL     1       0.866   3.926  20.339  0.00  0.00    +0.000 Cl
ENDBRANCH   4  13
TORSDOF 2
ENDMDL
MODEL 5
REMARK VINA RESULT:      -6.6      4.375      4.662
REMARK  Name = 
REMARK  2 active torsions:
REMARK  status: ('A' for Active; 'I' for Inactive)
REMARK    1  A    between atoms: C_5  and  C_6
REMARK    2  A    between atoms: C_9  and  C_10
REMARK                            x       y       z     vdW  Elec       q    Type
REMARK                         _______ _______ _______ _____ _____    ______ ____
ROOT
ATOM      1  C   UNL     1       3.164   6.294  18.604  0.00  0.00    +0.000 A 
ATOM      2  N   UNL     1       2.745   5.498  19.596  0.00  0.00    +0.000 NA
ATOM      3  O   UNL     1       1.962   6.335  20.383  0.00  0.00    +0.000 OA
ATOM      4  C   UNL     1       1.973   7.575  19.797  0.00  0.00    +0.000 A 
ATOM      5  N   UNL     1       2.710   7.589  18.702  0.00  0.00    +0.000 NA
ENDROOT
BRANCH   1  10
ATOM      6 CL   UNL     1       6.666   4.690  14.129  0.00  0.00    +0.000 Cl
ATOM      7  C   UNL     1       5.631   5.088  15.436  0.00  0.00    +0.000 A 
ATOM      8  C   UNL     1       4.976   4.100  16.152  0.00  0.00    +0.000 A 
ATOM      9  C   UNL     1       4.151   4.492  17.206  0.00  0.00    +0.000 A 
ATOM     10  C   UNL     1       4.007   5.850  17.509  0.00  0.00    +0.000 A 
ATOM     11  C   UNL     1       4.714   6.757  16.722  0.00  0.00    +0.000 A 
ATOM     12  N   UNL     1       5.523   6.407  15.692  0.00  0.00    +0.000 NA
ENDBRANCH   1  10
BRANCH   4  13
ATOM     13  C   UNL     1       1.251   8.707  20.309  0.00  0.00    +0.000 A 
ATOM     14  S   UNL     1       1.185   9.014  22.002  0.00  0.00    +0.000 S 
ATOM     15  C   UNL     1       0.250  10.426  21.787  0.00  0.00    +0.000 A 
ATOM     16  C   UNL     1      -0.020  10.664  20.460  0.00  0.00    +0.000 A 
ATOM     17  C   UNL     1       0.552   9.673  19.607  0.00  0.00    +0.000 A 
ATOM     18 CL   UNL     1       0.344   9.764  17.907  0.00  0.00    +0.000 Cl
ENDBRANCH   4  13
TORSDOF 2
ENDMDL
MODEL 6
REMARK VINA RESULT:      -6.6      1.354      1.633
REMARK  Name = 
REMARK  2 active torsions:
REMARK  status: ('A' for Active; 'I' for Inactive)
REMARK    1  A    between atoms: C_5  and  C_6
REMARK    2  A    between atoms: C_9  and  C_10
REMARK                            x       y       z     vdW  Elec       q    Type
REMARK                         _______ _______ _______ _____ _____    ______ ____
ROOT
ATOM      1  C   UNL     1       5.827   4.360  17.169  0.00  0.00    +0.000 A 
ATOM      2  N   UNL     1       6.682   4.431  18.197  0.00  0.00    +0.000 NA
ATOM      3  O   UNL     1       5.859   4.354  19.316  0.00  0.00    +0.000 OA
ATOM      4  C   UNL     1       4.568   4.242  18.867  0.00  0.00    +0.000 A 
ATOM      5  N   UNL     1       4.509   4.250  17.548  0.00  0.00    +0.000 NA
ENDROOT
BRANCH   1  10
ATOM      6 CL   UNL     1       7.297   4.335  11.451  0.00  0.00    +0.000 Cl
ATOM      7  C   UNL     1       6.927   4.383  13.123  0.00  0.00    +0.000 A 
ATOM      8  C   UNL     1       7.671   5.159  13.995  0.00  0.00    +0.000 A 
ATOM      9  C   UNL     1       7.314   5.156  15.343  0.00  0.00    +0.000 A 
ATOM     10  C   UNL     1       6.232   4.381  15.775  0.00  0.00    +0.000 A 
ATOM     11  C   UNL     1       5.555   3.639  14.810  0.00  0.00    +0.000 A 
ATOM     12  N   UNL     1       5.877   3.622  13.493  0.00  0.00    +0.000 NA
ENDBRANCH   1  10
BRANCH   4  13
ATOM     13  C   UNL     1       3.429   4.113  19.734  0.00  0.00    +0.000 A 
ATOM     14  S   UNL     1       3.072   2.612  20.498  0.00  0.00    +0.000 S 
ATOM     15  C   UNL     1       1.712   3.258  21.302  0.00  0.00    +0.000 A 
ATOM     16  C   UNL     1       1.517   4.584  20.995  0.00  0.00    +0.000 A 
ATOM     17  C   UNL     1       2.503   5.078  20.089  0.00  0.00    +0.000 A 
ATOM     18 CL   UNL     1       2.460   6.710  19.563  0.00  0.00    +0.000 Cl
ENDBRANCH   4  13
TORSDOF 2
ENDMDL
MODEL 7
REMARK VINA RESULT:      -6.6      4.563      5.035
REMARK  Name = 
REMARK  2 active torsions:
REMARK  status: ('A' for Active; 'I' for Inactive)
REMARK    1  A    between atoms: C_5  and  C_6
REMARK    2  A    between atoms: C_9  and  C_10
REMARK                            x       y       z     vdW  Elec       q    Type
REMARK                         _______ _______ _______ _____ _____    ______ ____
ROOT
ATOM      1  C   UNL     1       2.905   6.351  18.927  0.00  0.00    +0.000 A 
ATOM      2  N   UNL     1       2.512   5.615  19.974  0.00  0.00    +0.000 NA
ATOM      3  O   UNL     1       1.746   6.498  20.728  0.00  0.00    +0.000 OA
ATOM      4  C   UNL     1       1.740   7.700  20.068  0.00  0.00    +0.000 A 
ATOM      5  N   UNL     1       2.451   7.649  18.958  0.00  0.00    +0.000 NA
ENDROOT
BRANCH   1  10
ATOM      6 CL   UNL     1       6.143   4.095  14.535  0.00  0.00    +0.000 Cl
ATOM      7  C   UNL     1       5.231   4.813  15.796  0.00  0.00    +0.000 A 
ATOM      8  C   UNL     1       5.269   6.180  16.013  0.00  0.00    +0.000 A 
ATOM      9  C   UNL     1       4.501   6.700  17.053  0.00  0.00    +0.000 A 
ATOM     10  C   UNL     1       3.723   5.843  17.840  0.00  0.00    +0.000 A 
ATOM     11  C   UNL     1       3.762   4.485  17.532  0.00  0.00    +0.000 A 
ATOM     12  N   UNL     1       4.498   3.950  16.526  0.00  0.00    +0.000 NA
ENDBRANCH   1  10
BRANCH   4  13
ATOM     13  C   UNL     1       1.028   8.860  20.529  0.00  0.00    +0.000 A 
ATOM     14  S   UNL     1       0.932   9.223  22.209  0.00  0.00    +0.000 S 
ATOM     15  C   UNL     1       0.027  10.643  21.929  0.00  0.00    +0.000 A 
ATOM     16  C   UNL     1      -0.212  10.842  20.590  0.00  0.00    +0.000 A 
ATOM     17  C   UNL     1       0.361   9.815  19.782  0.00  0.00    +0.000 A 
ATOM     18 CL   UNL     1       0.189   9.854  18.075  0.00  0.00    +0.000 Cl
ENDBRANCH   4  13
TORSDOF 2
ENDMDL
MODEL 8
REMARK VINA RESULT:      -6.6      4.880      5.213
REMARK  Name = 
REMARK  2 active torsions:
REMARK  status: ('A' for Active; 'I' for Inactive)
REMARK    1  A    between atoms: C_5  and  C_6
REMARK    2  A    between atoms: C_9  and  C_10
REMARK                            x       y       z     vdW  Elec       q    Type
REMARK                         _______ _______ _______ _____ _____    ______ ____
ROOT
ATOM      1  C   UNL     1       3.101   6.745  18.450  0.00  0.00    +0.000 A 
ATOM      2  N   UNL     1       2.792   6.217  19.641  0.00  0.00    +0.000 NA
ATOM      3  O   UNL     1       1.980   7.180  20.229  0.00  0.00    +0.000 OA
ATOM      4  C   UNL     1       1.865   8.216  19.338  0.00  0.00    +0.000 A 
ATOM      5  N   UNL     1       2.549   7.987  18.233  0.00  0.00    +0.000 NA
ENDROOT
BRANCH   1  10
ATOM      6 CL   UNL     1       6.558   4.238  14.373  0.00  0.00    +0.000 Cl
ATOM      7  C   UNL     1       5.529   4.901  15.572  0.00  0.00    +0.000 A 
ATOM      8  C   UNL     1       4.748   4.085  16.371  0.00  0.00    +0.000 A 
ATOM      9  C   UNL     1       3.935   4.689  17.329  0.00  0.00    +0.000 A 
ATOM     10  C   UNL     1       3.928   6.083  17.458  0.00  0.00    +0.000 A 
ATOM     11  C   UNL     1       4.755   6.805  16.600  0.00  0.00    +0.000 A 
ATOM     12  N   UNL     1       5.556   6.246  15.659  0.00  0.00    +0.000 NA
ENDBRANCH   1  10
BRANCH   4  13
ATOM     13  C   UNL     1       1.077   9.394  19.580  0.00  0.00    +0.000 A 
ATOM     14  S   UNL     1       1.294  10.808  18.622  0.00  0.00    +0.000 S 
ATOM     15  C   UNL     1       0.070  11.655  19.458  0.00  0.00    +0.000 A 
ATOM     16  C   UNL     1      -0.493  10.891  20.454  0.00  0.00    +0.000 A 
ATOM     17  C   UNL     1       0.089   9.590  20.528  0.00  0.00    +0.000 A 
ATOM     18 CL   UNL     1      -0.455   8.461  21.700  0.00  0.00    +0.000 Cl
ENDBRANCH   4  13
TORSDOF 2
ENDMDL
MODEL 9
REMARK VINA RESULT:      -6.6      5.596      8.077
REMARK  Name = 
REMARK  2 active torsions:
REMARK  status: ('A' for Active; 'I' for Inactive)
REMARK    1  A    between atoms: C_5  and  C_6
REMARK    2  A    between atoms: C_9  and  C_10
REMARK                            x       y       z     vdW  Elec       q    Type
REMARK                         _______ _______ _______ _____ _____    ______ ____
ROOT
ATOM      1  C   UNL     1       1.750   8.746  18.955  0.00  0.00    +0.000 A 
ATOM      2  N   UNL     1       2.007   9.257  17.744  0.00  0.00    +0.000 NA
ATOM      3  O   UNL     1       2.791   8.283  17.134  0.00  0.00    +0.000 OA
ATOM      4  C   UNL     1       2.943   7.259  18.034  0.00  0.00    +0.000 A 
ATOM      5  N   UNL     1       2.321   7.513  19.170  0.00  0.00    +0.000 NA
ENDROOT
BRANCH   1  10
ATOM      6 CL   UNL     1      -1.457  11.325  23.188  0.00  0.00    +0.000 Cl
ATOM      7  C   UNL     1      -0.559  10.617  21.911  0.00  0.00    +0.000 A 
ATOM      8  C   UNL     1      -0.689  11.074  20.611  0.00  0.00    +0.000 A 
ATOM      9  C   UNL     1       0.073  10.456  19.620  0.00  0.00    +0.000 A 
ATOM     10  C   UNL     1       0.936   9.406  19.958  0.00  0.00    +0.000 A 
ATOM     11  C   UNL     1       0.985   9.030  21.298  0.00  0.00    +0.000 A 
ATOM     12  N   UNL     1       0.257   9.612  22.284  0.00  0.00    +0.000 NA
ENDBRANCH   1  10
BRANCH   4  13
ATOM     13  C   UNL     1       3.675   6.054  17.755  0.00  0.00    +0.000 A 
ATOM     14  S   UNL     1       5.389   6.084  17.598  0.00  0.00    +0.000 S 
ATOM     15  C   UNL     1       5.471   4.401  17.329  0.00  0.00    +0.000 A 
ATOM     16  C   UNL     1       4.225   3.818  17.347  0.00  0.00    +0.000 A 
ATOM     17  C   UNL     1       3.189   4.769  17.589  0.00  0.00    +0.000 A 
ATOM     18 CL   UNL     1       1.549   4.270  17.654  0.00  0.00    +0.000 Cl
ENDBRANCH   4  13
TORSDOF 2
ENDMDL
