MODEL 1
REMARK VINA RESULT:      -8.8      0.000      0.000
REMARK  Name = 
REMARK  3 active torsions:
REMARK  status: ('A' for Active; 'I' for Inactive)
REMARK    1  A    between atoms: N_1  and  C_2
REMARK    2  A    between atoms: N_16  and  C_17
REMARK    3  A    between atoms: C_17  and  C_18
REMARK                            x       y       z     vdW  Elec       q    Type
REMARK                         _______ _______ _______ _____ _____    ______ ____
ROOT
ATOM      1  C   UNL     1       7.080   5.075  17.454  0.00  0.00    +0.000 C 
ATOM      2  C   UNL     1       7.031   4.639  15.974  0.00  0.00    +0.000 C 
ATOM      3  C   UNL     1       5.716   4.915  15.230  0.00  0.00    +0.000 C 
ATOM      4  C   UNL     1       5.024   6.211  15.650  0.00  0.00    +0.000 C 
ATOM      5  N   UNL     1       4.933   6.225  17.123  0.00  0.00    +0.000 N 
ATOM      6  C   UNL     1       3.977   7.043  17.639  0.00  0.00    +0.000 A 
ATOM      7  N   UNL     1       3.470   8.110  17.062  0.00  0.00    +0.000 NA
ATOM      8  C   UNL     1       2.521   8.592  17.918  0.00  0.00    +0.000 A 
ATOM      9  C   UNL     1       1.691   9.714  17.809  0.00  0.00    +0.000 A 
ATOM     10  C   UNL     1       0.803   9.990  18.851  0.00  0.00    +0.000 A 
ATOM     11  C   UNL     1       0.753   9.132  19.945  0.00  0.00    +0.000 A 
ATOM     12  N   UNL     1       1.573   8.018  20.009  0.00  0.00    +0.000 N 
ATOM     13  O   UNL     1       1.486   7.249  21.017  0.00  0.00    +0.000 OA
ATOM     14  C   UNL     1       2.419   7.792  19.032  0.00  0.00    +0.000 A 
ATOM     15  N   UNL     1       3.350   6.784  18.853  0.00  0.00    +0.000 N 
ATOM     16  C   UNL     1       6.292   6.388  17.690  0.00  0.00    +0.000 C 
ENDROOT
BRANCH   1  17
ATOM     17  N   UNL     1       6.559   4.019  18.336  0.00  0.00    +0.000 NA
ATOM     18  H   UNL     1       5.546   4.052  18.383  0.00  0.00    +0.000 HD
ATOM     19  H   UNL     1       6.906   4.205  19.275  0.00  0.00    +0.000 HD
ENDBRANCH   1  17
BRANCH  15  20
ATOM     20  C   UNL     1       3.485   5.589  19.678  0.00  0.00    +0.000 C 
BRANCH  20  21
ATOM     21  C   UNL     1       2.625   4.409  19.274  0.00  0.00    +0.000 A 
ATOM     22  C   UNL     1       2.960   3.523  18.239  0.00  0.00    +0.000 A 
ATOM     23  C   UNL     1       2.191   2.383  17.988  0.00  0.00    +0.000 A 
ATOM     24  C   UNL     1       1.075   2.104  18.770  0.00  0.00    +0.000 A 
ATOM     25  C   UNL     1       0.718   2.972  19.796  0.00  0.00    +0.000 A 
ATOM     26  C   UNL     1       1.489   4.111  20.049  0.00  0.00    +0.000 A 
ENDBRANCH  20  21
ENDBRANCH  15  20
TORSDOF 3
ENDMDL
MODEL 2
REMARK VINA RESULT:      -7.7      2.173      5.824
REMARK  Name = 
REMARK  3 active torsions:
REMARK  status: ('A' for Active; 'I' for Inactive)
REMARK    1  A    between atoms: N_1  and  C_2
REMARK    2  A    between atoms: N_16  and  C_17
REMARK    3  A    between atoms: C_17  and  C_18
REMARK                            x       y       z     vdW  Elec       q    Type
REMARK                         _______ _______ _______ _____ _____    ______ ____
ROOT
ATOM      1  C   UNL     1       2.450   2.923  21.280  0.00  0.00    +0.000 C 
ATOM      2  C   UNL     1       1.036   2.492  20.831  0.00  0.00    +0.000 C 
ATOM      3  C   UNL     1       0.671   2.783  19.369  0.00  0.00    +0.000 C 
ATOM      4  C   UNL     1       1.841   2.637  18.395  0.00  0.00    +0.000 C 
ATOM      5  N   UNL     1       2.980   3.408  18.929  0.00  0.00    +0.000 N 
ATOM      6  C   UNL     1       3.922   3.763  18.014  0.00  0.00    +0.000 A 
ATOM      7  N   UNL     1       4.175   3.152  16.878  0.00  0.00    +0.000 NA
ATOM      8  C   UNL     1       5.161   3.873  16.268  0.00  0.00    +0.000 A 
ATOM      9  C   UNL     1       5.816   3.660  15.049  0.00  0.00    +0.000 A 
ATOM     10  C   UNL     1       6.811   4.560  14.660  0.00  0.00    +0.000 A 
ATOM     11  C   UNL     1       7.099   5.648  15.477  0.00  0.00    +0.000 A 
ATOM     12  N   UNL     1       6.415   5.841  16.666  0.00  0.00    +0.000 N 
ATOM     13  O   UNL     1       6.696   6.855  17.377  0.00  0.00    +0.000 OA
ATOM     14  C   UNL     1       5.503   4.968  17.026  0.00  0.00    +0.000 A 
ATOM     15  N   UNL     1       4.699   4.909  18.151  0.00  0.00    +0.000 N 
ATOM     16  C   UNL     1       3.490   2.736  20.147  0.00  0.00    +0.000 C 
ENDROOT
BRANCH   1  17
ATOM     17  N   UNL     1       2.459   4.322  21.735  0.00  0.00    +0.000 NA
ATOM     18  H   UNL     1       2.378   4.375  22.746  0.00  0.00    +0.000 HD
ATOM     19  H   UNL     1       1.634   4.775  21.348  0.00  0.00    +0.000 HD
ENDBRANCH   1  17
BRANCH  15  20
ATOM     20  C   UNL     1       4.561   5.953  19.159  0.00  0.00    +0.000 C 
BRANCH  20  21
ATOM     21  C   UNL     1       3.400   6.907  18.966  0.00  0.00    +0.000 A 
ATOM     22  C   UNL     1       2.441   7.171  19.955  0.00  0.00    +0.000 A 
ATOM     23  C   UNL     1       1.460   8.149  19.765  0.00  0.00    +0.000 A 
ATOM     24  C   UNL     1       1.423   8.885  18.585  0.00  0.00    +0.000 A 
ATOM     25  C   UNL     1       2.359   8.635  17.587  0.00  0.00    +0.000 A 
ATOM     26  C   UNL     1       3.341   7.659  17.778  0.00  0.00    +0.000 A 
ENDBRANCH  20  21
ENDBRANCH  15  20
TORSDOF 3
ENDMDL
MODEL 3
REMARK VINA RESULT:      -7.6      1.899      4.514
REMARK  Name = 
REMARK  3 active torsions:
REMARK  status: ('A' for Active; 'I' for Inactive)
REMARK    1  A    between atoms: N_1  and  C_2
REMARK    2  A    between atoms: N_16  and  C_17
REMARK    3  A    between atoms: C_17  and  C_18
REMARK                            x       y       z     vdW  Elec       q    Type
REMARK                         _______ _______ _______ _____ _____    ______ ____
ROOT
ATOM      1  C   UNL     1       3.274   1.891  18.035  0.00  0.00    +0.000 C 
ATOM      2  C   UNL     1       3.950   1.185  19.230  0.00  0.00    +0.000 C 
ATOM      3  C   UNL     1       4.321   2.076  20.423  0.00  0.00    +0.000 C 
ATOM      4  C   UNL     1       3.325   3.205  20.689  0.00  0.00    +0.000 C 
ATOM      5  N   UNL     1       3.087   3.915  19.418  0.00  0.00    +0.000 N 
ATOM      6  C   UNL     1       2.607   5.182  19.540  0.00  0.00    +0.000 A 
ATOM      7  N   UNL     1       1.927   5.663  20.557  0.00  0.00    +0.000 NA
ATOM      8  C   UNL     1       1.691   6.977  20.271  0.00  0.00    +0.000 A 
ATOM      9  C   UNL     1       0.998   7.952  20.999  0.00  0.00    +0.000 A 
ATOM     10  C   UNL     1       0.894   9.237  20.463  0.00  0.00    +0.000 A 
ATOM     11  C   UNL     1       1.502   9.514  19.242  0.00  0.00    +0.000 A 
ATOM     12  N   UNL     1       2.200   8.531  18.559  0.00  0.00    +0.000 N 
ATOM     13  O   UNL     1       2.754   8.828  17.456  0.00  0.00    +0.000 OA
ATOM     14  C   UNL     1       2.261   7.323  19.068  0.00  0.00    +0.000 A 
ATOM     15  N   UNL     1       2.864   6.170  18.596  0.00  0.00    +0.000 N 
ATOM     16  C   UNL     1       2.331   3.028  18.503  0.00  0.00    +0.000 C 
ENDROOT
BRANCH   1  17
ATOM     17  N   UNL     1       4.275   2.430  17.101  0.00  0.00    +0.000 NA
ATOM     18  H   UNL     1       5.184   2.507  17.546  0.00  0.00    +0.000 HD
ATOM     19  H   UNL     1       3.986   3.375  16.855  0.00  0.00    +0.000 HD
ENDBRANCH   1  17
BRANCH  15  20
ATOM     20  C   UNL     1       3.756   6.081  17.446  0.00  0.00    +0.000 C 
BRANCH  20  21
ATOM     21  C   UNL     1       5.235   6.215  17.748  0.00  0.00    +0.000 A 
ATOM     22  C   UNL     1       6.069   7.162  17.135  0.00  0.00    +0.000 A 
ATOM     23  C   UNL     1       7.398   7.321  17.539  0.00  0.00    +0.000 A 
ATOM     24  C   UNL     1       7.917   6.539  18.566  0.00  0.00    +0.000 A 
ATOM     25  C   UNL     1       7.111   5.587  19.183  0.00  0.00    +0.000 A 
ATOM     26  C   UNL     1       5.781   5.430  18.781  0.00  0.00    +0.000 A 
ENDBRANCH  20  21
ENDBRANCH  15  20
TORSDOF 3
ENDMDL
MODEL 4
REMARK VINA RESULT:      -7.5      1.910      4.556
REMARK  Name = 
REMARK  3 active torsions:
REMARK  status: ('A' for Active; 'I' for Inactive)
REMARK    1  A    between atoms: N_1  and  C_2
REMARK    2  A    between atoms: N_16  and  C_17
REMARK    3  A    between atoms: C_17  and  C_18
REMARK                            x       y       z     vdW  Elec       q    Type
REMARK                         _______ _______ _______ _____ _____    ______ ____
ROOT
ATOM      1  C   UNL     1       3.219   2.049  18.055  0.00  0.00    +0.000 C 
ATOM      2  C   UNL     1       3.854   1.318  19.257  0.00  0.00    +0.000 C 
ATOM      3  C   UNL     1       4.174   2.182  20.484  0.00  0.00    +0.000 C 
ATOM      4  C   UNL     1       3.162   3.298  20.740  0.00  0.00    +0.000 C 
ATOM      5  N   UNL     1       2.967   4.038  19.478  0.00  0.00    +0.000 N 
ATOM      6  C   UNL     1       2.475   5.299  19.613  0.00  0.00    +0.000 A 
ATOM      7  N   UNL     1       1.754   5.751  20.615  0.00  0.00    +0.000 NA
ATOM      8  C   UNL     1       1.521   7.071  20.352  0.00  0.00    +0.000 A 
ATOM      9  C   UNL     1       0.796   8.024  21.077  0.00  0.00    +0.000 A 
ATOM     10  C   UNL     1       0.704   9.321  20.568  0.00  0.00    +0.000 A 
ATOM     11  C   UNL     1       1.356   9.631  19.379  0.00  0.00    +0.000 A 
ATOM     12  N   UNL     1       2.084   8.669  18.699  0.00  0.00    +0.000 N 
ATOM     13  O   UNL     1       2.678   8.995  17.625  0.00  0.00    +0.000 OA
ATOM     14  C   UNL     1       2.134   7.449  19.180  0.00  0.00    +0.000 A 
ATOM     15  N   UNL     1       2.761   6.311  18.703  0.00  0.00    +0.000 N 
ATOM     16  C   UNL     1       2.251   3.169  18.514  0.00  0.00    +0.000 C 
ENDROOT
BRANCH   1  17
ATOM     17  N   UNL     1       4.250   2.616  17.173  0.00  0.00    +0.000 NA
ATOM     18  H   UNL     1       4.730   1.885  16.657  0.00  0.00    +0.000 HD
ATOM     19  H   UNL     1       4.945   3.067  17.764  0.00  0.00    +0.000 HD
ENDBRANCH   1  17
BRANCH  15  20
ATOM     20  C   UNL     1       3.697   6.255  17.586  0.00  0.00    +0.000 C 
BRANCH  20  21
ATOM     21  C   UNL     1       5.164   6.362  17.949  0.00  0.00    +0.000 A 
ATOM     22  C   UNL     1       5.788   5.542  18.901  0.00  0.00    +0.000 A 
ATOM     23  C   UNL     1       7.169   5.602  19.110  0.00  0.00    +0.000 A 
ATOM     24  C   UNL     1       7.952   6.480  18.368  0.00  0.00    +0.000 A 
ATOM     25  C   UNL     1       7.354   7.309  17.424  0.00  0.00    +0.000 A 
ATOM     26  C   UNL     1       5.974   7.246  17.213  0.00  0.00    +0.000 A 
ENDBRANCH  20  21
ENDBRANCH  15  20
TORSDOF 3
ENDMDL
MODEL 5
REMARK VINA RESULT:      -7.1      1.945      4.689
REMARK  Name = 
REMARK  3 active torsions:
REMARK  status: ('A' for Active; 'I' for Inactive)
REMARK    1  A    between atoms: N_1  and  C_2
REMARK    2  A    between atoms: N_16  and  C_17
REMARK    3  A    between atoms: C_17  and  C_18
REMARK                            x       y       z     vdW  Elec       q    Type
REMARK                         _______ _______ _______ _____ _____    ______ ____
ROOT
ATOM      1  C   UNL     1       1.889   2.369  18.902  0.00  0.00    +0.000 C 
ATOM      2  C   UNL     1       2.415   1.734  20.208  0.00  0.00    +0.000 C 
ATOM      3  C   UNL     1       2.954   2.707  21.266  0.00  0.00    +0.000 C 
ATOM      4  C   UNL     1       2.197   4.034  21.333  0.00  0.00    +0.000 C 
ATOM      5  N   UNL     1       2.102   4.576  19.964  0.00  0.00    +0.000 N 
ATOM      6  C   UNL     1       1.878   5.915  19.883  0.00  0.00    +0.000 A 
ATOM      7  N   UNL     1       1.306   6.667  20.798  0.00  0.00    +0.000 NA
ATOM      8  C   UNL     1       1.331   7.943  20.313  0.00  0.00    +0.000 A 
ATOM      9  C   UNL     1       0.842   9.132  20.869  0.00  0.00    +0.000 A 
ATOM     10  C   UNL     1       0.991  10.317  20.145  0.00  0.00    +0.000 A 
ATOM     11  C   UNL     1       1.641  10.284  18.915  0.00  0.00    +0.000 A 
ATOM     12  N   UNL     1       2.132   9.093  18.406  0.00  0.00    +0.000 N 
ATOM     13  O   UNL     1       2.734   9.107  17.287  0.00  0.00    +0.000 OA
ATOM     14  C   UNL     1       1.957   7.987  19.089  0.00  0.00    +0.000 A 
ATOM     15  N   UNL     1       2.322   6.681  18.811  0.00  0.00    +0.000 N 
ATOM     16  C   UNL     1       1.186   3.724  19.169  0.00  0.00    +0.000 C 
ENDROOT
BRANCH   1  17
ATOM     17  N   UNL     1       2.975   2.558  17.928  0.00  0.00    +0.000 NA
ATOM     18  H   UNL     1       3.647   1.798  17.981  0.00  0.00    +0.000 HD
ATOM     19  H   UNL     1       3.471   3.409  18.184  0.00  0.00    +0.000 HD
ENDBRANCH   1  17
BRANCH  15  20
ATOM     20  C   UNL     1       3.180   6.249  17.713  0.00  0.00    +0.000 C 
BRANCH  20  21
ATOM     21  C   UNL     1       4.665   6.220  18.010  0.00  0.00    +0.000 A 
ATOM     22  C   UNL     1       5.237   5.443  19.029  0.00  0.00    +0.000 A 
ATOM     23  C   UNL     1       6.624   5.361  19.181  0.00  0.00    +0.000 A 
ATOM     24  C   UNL     1       7.466   6.050  18.314  0.00  0.00    +0.000 A 
ATOM     25  C   UNL     1       6.922   6.833  17.302  0.00  0.00    +0.000 A 
ATOM     26  C   UNL     1       5.535   6.913  17.148  0.00  0.00    +0.000 A 
ENDBRANCH  20  21
ENDBRANCH  15  20
TORSDOF 3
ENDMDL
MODEL 6
REMARK VINA RESULT:      -6.8      1.944      4.779
REMARK  Name = 
REMARK  3 active torsions:
REMARK  status: ('A' for Active; 'I' for Inactive)
REMARK    1  A    between atoms: N_1  and  C_2
REMARK    2  A    between atoms: N_16  and  C_17
REMARK    3  A    between atoms: C_17  and  C_18
REMARK                            x       y       z     vdW  Elec       q    Type
REMARK                         _______ _______ _______ _____ _____    ______ ____
ROOT
ATOM      1  C   UNL     1       6.360   5.714  15.836  0.00  0.00    +0.000 C 
ATOM      2  C   UNL     1       7.543   6.455  16.497  0.00  0.00    +0.000 C 
ATOM      3  C   UNL     1       7.476   6.613  18.023  0.00  0.00    +0.000 C 
ATOM      4  C   UNL     1       6.844   5.422  18.744  0.00  0.00    +0.000 C 
ATOM      5  N   UNL     1       5.562   5.115  18.083  0.00  0.00    +0.000 N 
ATOM      6  C   UNL     1       4.673   4.413  18.836  0.00  0.00    +0.000 A 
ATOM      7  N   UNL     1       4.960   3.618  19.842  0.00  0.00    +0.000 NA
ATOM      8  C   UNL     1       3.765   3.164  20.324  0.00  0.00    +0.000 A 
ATOM      9  C   UNL     1       3.490   2.281  21.375  0.00  0.00    +0.000 A 
ATOM     10  C   UNL     1       2.156   1.973  21.655  0.00  0.00    +0.000 A 
ATOM     11  C   UNL     1       1.149   2.572  20.904  0.00  0.00    +0.000 A 
ATOM     12  N   UNL     1       1.458   3.460  19.887  0.00  0.00    +0.000 N 
ATOM     13  O   UNL     1       0.510   3.998  19.235  0.00  0.00    +0.000 OA
ATOM     14  C   UNL     1       2.718   3.713  19.622  0.00  0.00    +0.000 A 
ATOM     15  N   UNL     1       3.297   4.529  18.666  0.00  0.00    +0.000 N 
ATOM     16  C   UNL     1       5.833   4.566  16.733  0.00  0.00    +0.000 C 
ENDROOT
BRANCH   1  17
ATOM     17  N   UNL     1       5.262   6.641  15.521  0.00  0.00    +0.000 NA
ATOM     18  H   UNL     1       4.524   6.580  16.215  0.00  0.00    +0.000 HD
ATOM     19  H   UNL     1       4.859   6.347  14.634  0.00  0.00    +0.000 HD
ENDBRANCH   1  17
BRANCH  15  20
ATOM     20  C   UNL     1       2.591   5.470  17.803  0.00  0.00    +0.000 C 
BRANCH  20  21
ATOM     21  C   UNL     1       2.309   6.832  18.405  0.00  0.00    +0.000 A 
ATOM     22  C   UNL     1       2.137   7.996  17.641  0.00  0.00    +0.000 A 
ATOM     23  C   UNL     1       1.761   9.201  18.240  0.00  0.00    +0.000 A 
ATOM     24  C   UNL     1       1.545   9.265  19.613  0.00  0.00    +0.000 A 
ATOM     25  C   UNL     1       1.718   8.126  20.391  0.00  0.00    +0.000 A 
ATOM     26  C   UNL     1       2.092   6.919  19.792  0.00  0.00    +0.000 A 
ENDBRANCH  20  21
ENDBRANCH  15  20
TORSDOF 3
ENDMDL
MODEL 7
REMARK VINA RESULT:      -6.7      3.814      8.529
REMARK  Name = 
REMARK  3 active torsions:
REMARK  status: ('A' for Active; 'I' for Inactive)
REMARK    1  A    between atoms: N_1  and  C_2
REMARK    2  A    between atoms: N_16  and  C_17
REMARK    3  A    between atoms: C_17  and  C_18
REMARK                            x       y       z     vdW  Elec       q    Type
REMARK                         _______ _______ _______ _____ _____    ______ ____
ROOT
ATOM      1  C   UNL     1      -0.908  13.950  21.997  0.00  0.00    +0.000 C 
ATOM      2  C   UNL     1      -2.058  13.645  22.982  0.00  0.00    +0.000 C 
ATOM      3  C   UNL     1      -2.523  12.184  23.050  0.00  0.00    +0.000 C 
ATOM      4  C   UNL     1      -1.397  11.164  22.879  0.00  0.00    +0.000 C 
ATOM      5  N   UNL     1      -0.629  11.529  21.673  0.00  0.00    +0.000 N 
ATOM      6  C   UNL     1       0.097  10.521  21.120  0.00  0.00    +0.000 A 
ATOM      7  N   UNL     1       0.550   9.454  21.740  0.00  0.00    +0.000 NA
ATOM      8  C   UNL     1       1.182   8.700  20.793  0.00  0.00    +0.000 A 
ATOM      9  C   UNL     1       1.854   7.477  20.909  0.00  0.00    +0.000 A 
ATOM     10  C   UNL     1       2.429   6.921  19.764  0.00  0.00    +0.000 A 
ATOM     11  C   UNL     1       2.293   7.581  18.547  0.00  0.00    +0.000 A 
ATOM     12  N   UNL     1       1.600   8.778  18.464  0.00  0.00    +0.000 N 
ATOM     13  O   UNL     1       1.484   9.341  17.332  0.00  0.00    +0.000 OA
ATOM     14  C   UNL     1       1.092   9.297  19.557  0.00  0.00    +0.000 A 
ATOM     15  N   UNL     1       0.383  10.469  19.760  0.00  0.00    +0.000 N 
ATOM     16  C   UNL     1       0.112  12.785  21.934  0.00  0.00    +0.000 C 
ENDROOT
BRANCH   1  17
ATOM     17  N   UNL     1      -1.424  14.231  20.649  0.00  0.00    +0.000 NA
ATOM     18  H   UNL     1      -1.805  15.170  20.593  0.00  0.00    +0.000 HD
ATOM     19  H   UNL     1      -2.195  13.588  20.476  0.00  0.00    +0.000 HD
ENDBRANCH   1  17
BRANCH  15  20
ATOM     20  C   UNL     1      -0.128  11.350  18.716  0.00  0.00    +0.000 C 
BRANCH  20  21
ATOM     21  C   UNL     1      -1.533  11.052  18.233  0.00  0.00    +0.000 A 
ATOM     22  C   UNL     1      -2.659  11.793  18.621  0.00  0.00    +0.000 A 
ATOM     23  C   UNL     1      -3.913  11.550  18.052  0.00  0.00    +0.000 A 
ATOM     24  C   UNL     1      -4.063  10.566  17.080  0.00  0.00    +0.000 A 
ATOM     25  C   UNL     1      -2.962   9.813  16.685  0.00  0.00    +0.000 A 
ATOM     26  C   UNL     1      -1.708  10.057  17.253  0.00  0.00    +0.000 A 
ENDBRANCH  20  21
ENDBRANCH  15  20
TORSDOF 3
ENDMDL
MODEL 8
REMARK VINA RESULT:      -6.7      3.906      8.584
REMARK  Name = 
REMARK  3 active torsions:
REMARK  status: ('A' for Active; 'I' for Inactive)
REMARK    1  A    between atoms: N_1  and  C_2
REMARK    2  A    between atoms: N_16  and  C_17
REMARK    3  A    between atoms: C_17  and  C_18
REMARK                            x       y       z     vdW  Elec       q    Type
REMARK                         _______ _______ _______ _____ _____    ______ ____
ROOT
ATOM      1  C   UNL     1      -0.998  14.189  21.856  0.00  0.00    +0.000 C 
ATOM      2  C   UNL     1      -2.184  13.926  22.808  0.00  0.00    +0.000 C 
ATOM      3  C   UNL     1      -2.670  12.472  22.901  0.00  0.00    +0.000 C 
ATOM      4  C   UNL     1      -1.551  11.435  22.798  0.00  0.00    +0.000 C 
ATOM      5  N   UNL     1      -0.737  11.757  21.609  0.00  0.00    +0.000 N 
ATOM      6  C   UNL     1      -0.005  10.725  21.110  0.00  0.00    +0.000 A 
ATOM      7  N   UNL     1       0.413   9.671  21.775  0.00  0.00    +0.000 NA
ATOM      8  C   UNL     1       1.067   8.884  20.872  0.00  0.00    +0.000 A 
ATOM      9  C   UNL     1       1.720   7.657  21.046  0.00  0.00    +0.000 A 
ATOM     10  C   UNL     1       2.327   7.062  19.938  0.00  0.00    +0.000 A 
ATOM     11  C   UNL     1       2.241   7.689  18.698  0.00  0.00    +0.000 A 
ATOM     12  N   UNL     1       1.567   8.891  18.558  0.00  0.00    +0.000 N 
ATOM     13  O   UNL     1       1.497   9.423  17.407  0.00  0.00    +0.000 OA
ATOM     14  C   UNL     1       1.028   9.447  19.617  0.00  0.00    +0.000 A 
ATOM     15  N   UNL     1       0.327  10.631  19.762  0.00  0.00    +0.000 N 
ATOM     16  C   UNL     1       0.010  13.011  21.860  0.00  0.00    +0.000 C 
ENDROOT
BRANCH   1  17
ATOM     17  N   UNL     1      -1.463  14.437  20.483  0.00  0.00    +0.000 NA
ATOM     18  H   UNL     1      -0.698  14.740  19.888  0.00  0.00    +0.000 HD
ATOM     19  H   UNL     1      -2.130  15.205  20.520  0.00  0.00    +0.000 HD
ENDBRANCH   1  17
BRANCH  15  20
ATOM     20  C   UNL     1      -0.137  11.488  18.677  0.00  0.00    +0.000 C 
BRANCH  20  21
ATOM     21  C   UNL     1      -1.524  11.187  18.147  0.00  0.00    +0.000 A 
ATOM     22  C   UNL     1      -1.799  10.154  17.239  0.00  0.00    +0.000 A 
ATOM     23  C   UNL     1      -3.113   9.844  16.876  0.00  0.00    +0.000 A 
ATOM     24  C   UNL     1      -4.177  10.558  17.419  0.00  0.00    +0.000 A 
ATOM     25  C   UNL     1      -3.928  11.592  18.315  0.00  0.00    +0.000 A 
ATOM     26  C   UNL     1      -2.614  11.900  18.680  0.00  0.00    +0.000 A 
ENDBRANCH  20  21
ENDBRANCH  15  20
TORSDOF 3
ENDMDL
MODEL 9
REMARK VINA RESULT:      -6.3      2.160      5.627
REMARK  Name = 
REMARK  3 active torsions:
REMARK  status: ('A' for Active; 'I' for Inactive)
REMARK    1  A    between atoms: N_1  and  C_2
REMARK    2  A    between atoms: N_16  and  C_17
REMARK    3  A    between atoms: C_17  and  C_18
REMARK                            x       y       z     vdW  Elec       q    Type
REMARK                         _______ _______ _______ _____ _____    ______ ____
ROOT
ATOM      1  C   UNL     1       1.265   3.675  21.002  0.00  0.00    +0.000 C 
ATOM      2  C   UNL     1       1.353   2.136  20.907  0.00  0.00    +0.000 C 
ATOM      3  C   UNL     1       2.467   1.575  20.013  0.00  0.00    +0.000 C 
ATOM      4  C   UNL     1       3.756   2.396  20.035  0.00  0.00    +0.000 C 
ATOM      5  N   UNL     1       3.403   3.809  19.795  0.00  0.00    +0.000 N 
ATOM      6  C   UNL     1       4.417   4.592  19.338  0.00  0.00    +0.000 A 
ATOM      7  N   UNL     1       5.703   4.385  19.516  0.00  0.00    +0.000 NA
ATOM      8  C   UNL     1       6.346   5.392  18.854  0.00  0.00    +0.000 A 
ATOM      9  C   UNL     1       7.714   5.664  18.731  0.00  0.00    +0.000 A 
ATOM     10  C   UNL     1       8.107   6.784  17.995  0.00  0.00    +0.000 A 
ATOM     11  C   UNL     1       7.135   7.573  17.388  0.00  0.00    +0.000 A 
ATOM     12  N   UNL     1       5.791   7.261  17.512  0.00  0.00    +0.000 N 
ATOM     13  O   UNL     1       4.935   7.997  16.930  0.00  0.00    +0.000 OA
ATOM     14  C   UNL     1       5.442   6.221  18.231  0.00  0.00    +0.000 A 
ATOM     15  N   UNL     1       4.194   5.703  18.532  0.00  0.00    +0.000 N 
ATOM     16  C   UNL     1       2.669   4.330  20.972  0.00  0.00    +0.000 C 
ENDROOT
BRANCH   1  17
ATOM     17  N   UNL     1       0.438   4.227  19.918  0.00  0.00    +0.000 NA
ATOM     18  H   UNL     1       0.997   4.787  19.282  0.00  0.00    +0.000 HD
ATOM     19  H   UNL     1      -0.245   4.852  20.341  0.00  0.00    +0.000 HD
ENDBRANCH   1  17
BRANCH  15  20
ATOM     20  C   UNL     1       2.929   6.127  17.943  0.00  0.00    +0.000 C 
BRANCH  20  21
ATOM     21  C   UNL     1       2.311   7.376  18.538  0.00  0.00    +0.000 A 
ATOM     22  C   UNL     1       1.849   8.454  17.768  0.00  0.00    +0.000 A 
ATOM     23  C   UNL     1       1.179   9.528  18.361  0.00  0.00    +0.000 A 
ATOM     24  C   UNL     1       0.954   9.542  19.734  0.00  0.00    +0.000 A 
ATOM     25  C   UNL     1       1.410   8.488  20.518  0.00  0.00    +0.000 A 
ATOM     26  C   UNL     1       2.078   7.413  19.925  0.00  0.00    +0.000 A 
ENDBRANCH  20  21
ENDBRANCH  15  20
TORSDOF 3
ENDMDL
