MODEL 1
REMARK VINA RESULT:      -7.0      0.000      0.000
REMARK  Name = 
REMARK  2 active torsions:
REMARK  status: ('A' for Active; 'I' for Inactive)
REMARK    1  A    between atoms: C_2  and  C_9
REMARK    2  A    between atoms: N_3  and  C_4
REMARK                            x       y       z     vdW  Elec       q    Type
REMARK                         _______ _______ _______ _____ _____    ______ ____
ROOT
ATOM      1  C   UNL     1       4.926   4.326  17.790  0.00  0.00    +0.000 A 
ATOM      2  C   UNL     1       4.832   5.453  18.511  0.00  0.00    +0.000 A 
ATOM      3  N   UNL     1       3.897   5.706  19.486  0.00  0.00    +0.000 NA
ATOM      4  C   UNL     1       3.073   4.749  19.734  0.00  0.00    +0.000 A 
ATOM      5  N   UNL     1       3.063   3.537  19.107  0.00  0.00    +0.000 N 
ATOM      6  C   UNL     1       3.940   3.260  18.083  0.00  0.00    +0.000 A 
ATOM      7  O   UNL     1       3.917   2.209  17.442  0.00  0.00    +0.000 OA
ATOM      8  C   UNL     1       2.067   2.590  19.544  0.00  0.00    +0.000 C 
ATOM      9  C   UNL     1       1.230   3.183  20.666  0.00  0.00    +0.000 C 
ATOM     10  S   UNL     1       1.821   4.872  20.925  0.00  0.00    +0.000 S 
ENDROOT
BRANCH   1  12
ATOM     11  O   UNL     1       7.177   4.336  17.055  0.00  0.00    +0.000 OA
ATOM     12  C   UNL     1       5.989   4.244  16.755  0.00  0.00    +0.000 C 
ATOM     13  N   UNL     1       5.557   4.088  15.460  0.00  0.00    +0.000 N 
ATOM     14  H   UNL     1       4.575   3.866  15.299  0.00  0.00    +0.000 HD
BRANCH  13  15
ATOM     15  C   UNL     1       6.496   3.964  14.368  0.00  0.00    +0.000 C 
ATOM     16  C   UNL     1       5.829   3.583  13.051  0.00  0.00    +0.000 C 
ATOM     17  C   UNL     1       6.912   3.881  12.020  0.00  0.00    +0.000 C 
ATOM     18  C   UNL     1       7.735   5.032  12.603  0.00  0.00    +0.000 C 
ATOM     19  C   UNL     1       7.192   5.273  14.012  0.00  0.00    +0.000 C 
ENDBRANCH  13  15
ENDBRANCH   1  12
TORSDOF 2
ENDMDL
MODEL 2
REMARK VINA RESULT:      -6.7      1.646      1.956
REMARK  Name = 
REMARK  2 active torsions:
REMARK  status: ('A' for Active; 'I' for Inactive)
REMARK    1  A    between atoms: C_2  and  C_9
REMARK    2  A    between atoms: N_3  and  C_4
REMARK                            x       y       z     vdW  Elec       q    Type
REMARK                         _______ _______ _______ _____ _____    ______ ____
ROOT
ATOM      1  C   UNL     1       4.187   4.378  17.747  0.00  0.00    +0.000 A 
ATOM      2  C   UNL     1       5.019   3.688  18.542  0.00  0.00    +0.000 A 
ATOM      3  N   UNL     1       4.675   3.072  19.721  0.00  0.00    +0.000 NA
ATOM      4  C   UNL     1       3.434   3.149  20.053  0.00  0.00    +0.000 A 
ATOM      5  N   UNL     1       2.466   3.789  19.334  0.00  0.00    +0.000 N 
ATOM      6  C   UNL     1       2.773   4.471  18.179  0.00  0.00    +0.000 A 
ATOM      7  O   UNL     1       1.946   5.121  17.541  0.00  0.00    +0.000 OA
ATOM      8  C   UNL     1       1.128   3.744  19.869  0.00  0.00    +0.000 C 
ATOM      9  C   UNL     1       1.100   2.944  21.161  0.00  0.00    +0.000 C 
ATOM     10  S   UNL     1       2.803   2.439  21.501  0.00  0.00    +0.000 S 
ENDROOT
BRANCH   1  12
ATOM     11  O   UNL     1       4.790   6.224  16.392  0.00  0.00    +0.000 OA
ATOM     12  C   UNL     1       4.748   5.002  16.521  0.00  0.00    +0.000 C 
ATOM     13  N   UNL     1       5.182   4.134  15.549  0.00  0.00    +0.000 N 
ATOM     14  H   UNL     1       5.260   3.144  15.780  0.00  0.00    +0.000 HD
BRANCH  13  15
ATOM     15  C   UNL     1       5.776   4.619  14.323  0.00  0.00    +0.000 C 
ATOM     16  C   UNL     1       7.257   4.947  14.469  0.00  0.00    +0.000 C 
ATOM     17  C   UNL     1       7.727   5.061  13.022  0.00  0.00    +0.000 C 
ATOM     18  C   UNL     1       6.830   4.115  12.220  0.00  0.00    +0.000 C 
ATOM     19  C   UNL     1       5.780   3.589  13.200  0.00  0.00    +0.000 C 
ENDBRANCH  13  15
ENDBRANCH   1  12
TORSDOF 2
ENDMDL
MODEL 3
REMARK VINA RESULT:      -6.6      1.229      1.544
REMARK  Name = 
REMARK  2 active torsions:
REMARK  status: ('A' for Active; 'I' for Inactive)
REMARK    1  A    between atoms: C_2  and  C_9
REMARK    2  A    between atoms: N_3  and  C_4
REMARK                            x       y       z     vdW  Elec       q    Type
REMARK                         _______ _______ _______ _____ _____    ______ ____
ROOT
ATOM      1  C   UNL     1       4.030   4.924  17.564  0.00  0.00    +0.000 A 
ATOM      2  C   UNL     1       4.410   5.489  18.720  0.00  0.00    +0.000 A 
ATOM      3  N   UNL     1       3.895   5.201  19.961  0.00  0.00    +0.000 NA
ATOM      4  C   UNL     1       2.996   4.281  19.995  0.00  0.00    +0.000 A 
ATOM      5  N   UNL     1       2.528   3.597  18.911  0.00  0.00    +0.000 N 
ATOM      6  C   UNL     1       2.969   3.892  17.641  0.00  0.00    +0.000 A 
ATOM      7  O   UNL     1       2.522   3.352  16.630  0.00  0.00    +0.000 OA
ATOM      8  C   UNL     1       1.530   2.588  19.164  0.00  0.00    +0.000 C 
ATOM      9  C   UNL     1       1.225   2.505  20.650  0.00  0.00    +0.000 C 
ATOM     10  S   UNL     1       2.225   3.775  21.462  0.00  0.00    +0.000 S 
ENDROOT
BRANCH   1  12
ATOM     11  O   UNL     1       4.831   6.583  16.077  0.00  0.00    +0.000 OA
ATOM     12  C   UNL     1       4.682   5.386  16.311  0.00  0.00    +0.000 C 
ATOM     13  N   UNL     1       5.074   4.400  15.439  0.00  0.00    +0.000 N 
ATOM     14  H   UNL     1       5.060   3.433  15.760  0.00  0.00    +0.000 HD
BRANCH  13  15
ATOM     15  C   UNL     1       5.748   4.721  14.200  0.00  0.00    +0.000 C 
ATOM     16  C   UNL     1       7.241   4.967  14.381  0.00  0.00    +0.000 C 
ATOM     17  C   UNL     1       7.774   4.905  12.954  0.00  0.00    +0.000 C 
ATOM     18  C   UNL     1       6.846   3.943  12.207  0.00  0.00    +0.000 C 
ATOM     19  C   UNL     1       5.726   3.586  13.183  0.00  0.00    +0.000 C 
ENDBRANCH  13  15
ENDBRANCH   1  12
TORSDOF 2
ENDMDL
MODEL 4
REMARK VINA RESULT:      -6.5      1.211      1.976
REMARK  Name = 
REMARK  2 active torsions:
REMARK  status: ('A' for Active; 'I' for Inactive)
REMARK    1  A    between atoms: C_2  and  C_9
REMARK    2  A    between atoms: N_3  and  C_4
REMARK                            x       y       z     vdW  Elec       q    Type
REMARK                         _______ _______ _______ _____ _____    ______ ____
ROOT
ATOM      1  C   UNL     1       4.860   4.385  17.637  0.00  0.00    +0.000 A 
ATOM      2  C   UNL     1       4.387   3.263  18.200  0.00  0.00    +0.000 A 
ATOM      3  N   UNL     1       3.425   3.200  19.180  0.00  0.00    +0.000 NA
ATOM      4  C   UNL     1       2.926   4.328  19.547  0.00  0.00    +0.000 A 
ATOM      5  N   UNL     1       3.283   5.547  19.048  0.00  0.00    +0.000 N 
ATOM      6  C   UNL     1       4.283   5.665  18.110  0.00  0.00    +0.000 A 
ATOM      7  O   UNL     1       4.686   6.748  17.687  0.00  0.00    +0.000 OA
ATOM      8  C   UNL     1       2.589   6.693  19.581  0.00  0.00    +0.000 C 
ATOM      9  C   UNL     1       1.562   6.257  20.613  0.00  0.00    +0.000 C 
ATOM     10  S   UNL     1       1.704   4.461  20.768  0.00  0.00    +0.000 S 
ENDROOT
BRANCH   1  12
ATOM     11  O   UNL     1       7.114   4.320  16.914  0.00  0.00    +0.000 OA
ATOM     12  C   UNL     1       5.925   4.257  16.609  0.00  0.00    +0.000 C 
ATOM     13  N   UNL     1       5.496   4.094  15.315  0.00  0.00    +0.000 N 
ATOM     14  H   UNL     1       4.509   3.899  15.151  0.00  0.00    +0.000 HD
BRANCH  13  15
ATOM     15  C   UNL     1       6.436   3.928  14.229  0.00  0.00    +0.000 C 
ATOM     16  C   UNL     1       5.765   3.556  12.912  0.00  0.00    +0.000 C 
ATOM     17  C   UNL     1       6.864   3.806  11.885  0.00  0.00    +0.000 C 
ATOM     18  C   UNL     1       7.722   4.934  12.463  0.00  0.00    +0.000 C 
ATOM     19  C   UNL     1       7.180   5.207  13.865  0.00  0.00    +0.000 C 
ENDBRANCH  13  15
ENDBRANCH   1  12
TORSDOF 2
ENDMDL
MODEL 5
REMARK VINA RESULT:      -6.5      1.139      1.189
REMARK  Name = 
REMARK  2 active torsions:
REMARK  status: ('A' for Active; 'I' for Inactive)
REMARK    1  A    between atoms: C_2  and  C_9
REMARK    2  A    between atoms: N_3  and  C_4
REMARK                            x       y       z     vdW  Elec       q    Type
REMARK                         _______ _______ _______ _____ _____    ______ ____
ROOT
ATOM      1  C   UNL     1       4.484   4.087  17.786  0.00  0.00    +0.000 A 
ATOM      2  C   UNL     1       3.379   4.776  17.460  0.00  0.00    +0.000 A 
ATOM      3  N   UNL     1       2.215   4.816  18.188  0.00  0.00    +0.000 NA
ATOM      4  C   UNL     1       2.221   4.155  19.292  0.00  0.00    +0.000 A 
ATOM      5  N   UNL     1       3.275   3.432  19.771  0.00  0.00    +0.000 N 
ATOM      6  C   UNL     1       4.441   3.312  19.049  0.00  0.00    +0.000 A 
ATOM      7  O   UNL     1       5.387   2.612  19.408  0.00  0.00    +0.000 OA
ATOM      8  C   UNL     1       3.086   2.776  21.041  0.00  0.00    +0.000 C 
ATOM      9  C   UNL     1       1.698   3.068  21.586  0.00  0.00    +0.000 C 
ATOM     10  S   UNL     1       0.851   4.081  20.350  0.00  0.00    +0.000 S 
ENDROOT
BRANCH   1  12
ATOM     11  O   UNL     1       6.779   4.356  17.270  0.00  0.00    +0.000 OA
ATOM     12  C   UNL     1       5.642   4.140  16.857  0.00  0.00    +0.000 C 
ATOM     13  N   UNL     1       5.354   3.960  15.526  0.00  0.00    +0.000 N 
ATOM     14  H   UNL     1       4.422   3.636  15.269  0.00  0.00    +0.000 HD
BRANCH  13  15
ATOM     15  C   UNL     1       6.400   3.960  14.527  0.00  0.00    +0.000 C 
ATOM     16  C   UNL     1       5.903   3.546  13.147  0.00  0.00    +0.000 C 
ATOM     17  C   UNL     1       7.042   3.977  12.230  0.00  0.00    +0.000 C 
ATOM     18  C   UNL     1       7.683   5.191  12.908  0.00  0.00    +0.000 C 
ATOM     19  C   UNL     1       6.988   5.340  14.260  0.00  0.00    +0.000 C 
ENDBRANCH  13  15
ENDBRANCH   1  12
TORSDOF 2
ENDMDL
MODEL 6
REMARK VINA RESULT:      -6.5      4.077      5.162
REMARK  Name = 
REMARK  2 active torsions:
REMARK  status: ('A' for Active; 'I' for Inactive)
REMARK    1  A    between atoms: C_2  and  C_9
REMARK    2  A    between atoms: N_3  and  C_4
REMARK                            x       y       z     vdW  Elec       q    Type
REMARK                         _______ _______ _______ _____ _____    ______ ____
ROOT
ATOM      1  C   UNL     1       2.295   7.297  19.030  0.00  0.00    +0.000 A 
ATOM      2  C   UNL     1       1.931   7.132  20.312  0.00  0.00    +0.000 A 
ATOM      3  N   UNL     1       1.290   8.066  21.089  0.00  0.00    +0.000 NA
ATOM      4  C   UNL     1       0.992   9.173  20.505  0.00  0.00    +0.000 A 
ATOM      5  N   UNL     1       1.268   9.475  19.203  0.00  0.00    +0.000 N 
ATOM      6  C   UNL     1       1.963   8.597  18.402  0.00  0.00    +0.000 A 
ATOM      7  O   UNL     1       2.297   8.858  17.247  0.00  0.00    +0.000 OA
ATOM      8  C   UNL     1       0.833  10.766  18.732  0.00  0.00    +0.000 C 
ATOM      9  C   UNL     1       0.120  11.522  19.841  0.00  0.00    +0.000 C 
ATOM     10  S   UNL     1       0.183  10.474  21.313  0.00  0.00    +0.000 S 
ENDROOT
BRANCH   1  12
ATOM     11  O   UNL     1       2.623   5.020  18.467  0.00  0.00    +0.000 OA
ATOM     12  C   UNL     1       3.010   6.181  18.357  0.00  0.00    +0.000 C 
ATOM     13  N   UNL     1       4.127   6.530  17.638  0.00  0.00    +0.000 N 
ATOM     14  H   UNL     1       4.303   7.519  17.462  0.00  0.00    +0.000 HD
BRANCH  13  15
ATOM     15  C   UNL     1       4.890   5.539  16.913  0.00  0.00    +0.000 C 
ATOM     16  C   UNL     1       5.353   6.028  15.546  0.00  0.00    +0.000 C 
ATOM     17  C   UNL     1       6.412   5.003  15.156  0.00  0.00    +0.000 C 
ATOM     18  C   UNL     1       7.023   4.517  16.473  0.00  0.00    +0.000 C 
ATOM     19  C   UNL     1       6.206   5.169  17.588  0.00  0.00    +0.000 C 
ENDBRANCH  13  15
ENDBRANCH   1  12
TORSDOF 2
ENDMDL
MODEL 7
REMARK VINA RESULT:      -6.4      2.718      6.566
REMARK  Name = 
REMARK  2 active torsions:
REMARK  status: ('A' for Active; 'I' for Inactive)
REMARK    1  A    between atoms: C_2  and  C_9
REMARK    2  A    between atoms: N_3  and  C_4
REMARK                            x       y       z     vdW  Elec       q    Type
REMARK                         _______ _______ _______ _____ _____    ______ ____
ROOT
ATOM      1  C   UNL     1       5.791   4.888  17.019  0.00  0.00    +0.000 A 
ATOM      2  C   UNL     1       6.864   5.673  16.837  0.00  0.00    +0.000 A 
ATOM      3  N   UNL     1       7.579   5.797  15.671  0.00  0.00    +0.000 NA
ATOM      4  C   UNL     1       7.141   5.116  14.670  0.00  0.00    +0.000 A 
ATOM      5  N   UNL     1       6.049   4.299  14.692  0.00  0.00    +0.000 N 
ATOM      6  C   UNL     1       5.337   4.096  15.853  0.00  0.00    +0.000 A 
ATOM      7  O   UNL     1       4.392   3.312  15.935  0.00  0.00    +0.000 OA
ATOM      8  C   UNL     1       5.711   3.636  13.457  0.00  0.00    +0.000 C 
ATOM      9  C   UNL     1       6.686   4.032  12.360  0.00  0.00    +0.000 C 
ATOM     10  S   UNL     1       7.903   5.136  13.114  0.00  0.00    +0.000 S 
ENDROOT
BRANCH   1  12
ATOM     11  O   UNL     1       5.734   5.342  19.343  0.00  0.00    +0.000 OA
ATOM     12  C   UNL     1       5.163   4.862  18.366  0.00  0.00    +0.000 C 
ATOM     13  N   UNL     1       3.936   4.251  18.445  0.00  0.00    +0.000 N 
ATOM     14  H   UNL     1       3.455   4.012  17.578  0.00  0.00    +0.000 HD
BRANCH  13  15
ATOM     15  C   UNL     1       3.209   4.189  19.694  0.00  0.00    +0.000 C 
ATOM     16  C   UNL     1       1.698   4.242  19.506  0.00  0.00    +0.000 C 
ATOM     17  C   UNL     1       1.168   3.791  20.862  0.00  0.00    +0.000 C 
ATOM     18  C   UNL     1       2.227   2.839  21.425  0.00  0.00    +0.000 C 
ATOM     19  C   UNL     1       3.398   2.876  20.443  0.00  0.00    +0.000 C 
ENDBRANCH  13  15
ENDBRANCH   1  12
TORSDOF 2
ENDMDL
MODEL 8
REMARK VINA RESULT:      -6.3      4.087      5.051
REMARK  Name = 
REMARK  2 active torsions:
REMARK  status: ('A' for Active; 'I' for Inactive)
REMARK    1  A    between atoms: C_2  and  C_9
REMARK    2  A    between atoms: N_3  and  C_4
REMARK                            x       y       z     vdW  Elec       q    Type
REMARK                         _______ _______ _______ _____ _____    ______ ____
ROOT
ATOM      1  C   UNL     1       2.335   7.609  18.569  0.00  0.00    +0.000 A 
ATOM      2  C   UNL     1       2.182   8.679  17.773  0.00  0.00    +0.000 A 
ATOM      3  N   UNL     1       1.545   9.848  18.114  0.00  0.00    +0.000 NA
ATOM      4  C   UNL     1       1.095   9.911  19.318  0.00  0.00    +0.000 A 
ATOM      5  N   UNL     1       1.199   8.919  20.250  0.00  0.00    +0.000 N 
ATOM      6  C   UNL     1       1.775   7.708  19.938  0.00  0.00    +0.000 A 
ATOM      7  O   UNL     1       1.824   6.763  20.724  0.00  0.00    +0.000 OA
ATOM      8  C   UNL     1       0.644   9.194  21.552  0.00  0.00    +0.000 C 
ATOM      9  C   UNL     1       0.057  10.595  21.593  0.00  0.00    +0.000 C 
ATOM     10  S   UNL     1       0.262  11.297  19.939  0.00  0.00    +0.000 S 
ENDROOT
BRANCH   1  12
ATOM     11  O   UNL     1       2.445   5.345  17.886  0.00  0.00    +0.000 OA
ATOM     12  C   UNL     1       3.029   6.418  18.015  0.00  0.00    +0.000 C 
ATOM     13  N   UNL     1       4.352   6.591  17.690  0.00  0.00    +0.000 N 
ATOM     14  H   UNL     1       4.731   7.538  17.679  0.00  0.00    +0.000 HD
BRANCH  13  15
ATOM     15  C   UNL     1       5.128   5.516  17.114  0.00  0.00    +0.000 C 
ATOM     16  C   UNL     1       5.452   5.739  15.642  0.00  0.00    +0.000 C 
ATOM     17  C   UNL     1       6.550   4.716  15.374  0.00  0.00    +0.000 C 
ATOM     18  C   UNL     1       7.290   4.544  16.703  0.00  0.00    +0.000 C 
ATOM     19  C   UNL     1       6.513   5.364  17.732  0.00  0.00    +0.000 C 
ENDBRANCH  13  15
ENDBRANCH   1  12
TORSDOF 2
ENDMDL
MODEL 9
REMARK VINA RESULT:      -6.2      1.033      1.033
REMARK  Name = 
REMARK  2 active torsions:
REMARK  status: ('A' for Active; 'I' for Inactive)
REMARK    1  A    between atoms: C_2  and  C_9
REMARK    2  A    between atoms: N_3  and  C_4
REMARK                            x       y       z     vdW  Elec       q    Type
REMARK                         _______ _______ _______ _____ _____    ______ ____
ROOT
ATOM      1  C   UNL     1       4.278   4.755  17.301  0.00  0.00    +0.000 A 
ATOM      2  C   UNL     1       4.637   5.477  18.374  0.00  0.00    +0.000 A 
ATOM      3  N   UNL     1       3.994   5.483  19.588  0.00  0.00    +0.000 NA
ATOM      4  C   UNL     1       2.983   4.693  19.691  0.00  0.00    +0.000 A 
ATOM      5  N   UNL     1       2.518   3.878  18.701  0.00  0.00    +0.000 N 
ATOM      6  C   UNL     1       3.090   3.882  17.449  0.00  0.00    +0.000 A 
ATOM      7  O   UNL     1       2.657   3.218  16.508  0.00  0.00    +0.000 OA
ATOM      8  C   UNL     1       1.380   3.052  19.024  0.00  0.00    +0.000 C 
ATOM      9  C   UNL     1       0.953   3.279  20.464  0.00  0.00    +0.000 C 
ATOM     10  S   UNL     1       2.042   4.555  21.139  0.00  0.00    +0.000 S 
ENDROOT
BRANCH   1  12
ATOM     11  O   UNL     1       5.152   5.979  15.472  0.00  0.00    +0.000 OA
ATOM     12  C   UNL     1       5.080   4.902  16.059  0.00  0.00    +0.000 C 
ATOM     13  N   UNL     1       5.701   3.764  15.606  0.00  0.00    +0.000 N 
ATOM     14  H   UNL     1       5.726   2.947  16.217  0.00  0.00    +0.000 HD
BRANCH  13  15
ATOM     15  C   UNL     1       6.535   3.784  14.426  0.00  0.00    +0.000 C 
ATOM     16  C   UNL     1       5.742   3.626  13.134  0.00  0.00    +0.000 C 
ATOM     17  C   UNL     1       6.741   4.050  12.064  0.00  0.00    +0.000 C 
ATOM     18  C   UNL     1       7.657   5.077  12.735  0.00  0.00    +0.000 C 
ATOM     19  C   UNL     1       7.249   5.113  14.207  0.00  0.00    +0.000 C 
ENDBRANCH  13  15
ENDBRANCH   1  12
TORSDOF 2
ENDMDL
