MODEL 1
REMARK VINA RESULT:      -7.1      0.000      0.000
REMARK  Name = 
REMARK  4 active torsions:
REMARK  status: ('A' for Active; 'I' for Inactive)
REMARK    1  A    between atoms: C_1  and  O_2
REMARK    2  A    between atoms: O_2  and  C_3
REMARK    3  A    between atoms: C_8  and  N_9
REMARK    4  A    between atoms: N_14  and  C_15
REMARK                            x       y       z     vdW  Elec       q    Type
REMARK                         _______ _______ _______ _____ _____    ______ ____
ROOT
ATOM      1  N   UNL     1       3.952   4.286  18.718  0.00  0.00    +0.000 N 
ATOM      2  C   UNL     1       3.071   5.309  18.956  0.00  0.00    +0.000 C 
ATOM      3  O   UNL     1       2.847   6.347  18.371  0.00  0.00    +0.000 OA
ATOM      4  C   UNL     1       2.265   4.894  20.180  0.00  0.00    +0.000 C 
ATOM      5  O   UNL     1       1.533   5.630  20.805  0.00  0.00    +0.000 OA
ATOM      6  N   UNL     1       2.624   3.619  20.423  0.00  0.00    +0.000 N 
ATOM      7  C   UNL     1       2.155   2.855  21.556  0.00  0.00    +0.000 C 
ATOM      8  C   UNL     1       3.705   3.270  19.636  0.00  0.00    +0.000 C 
ATOM      9  O   UNL     1       4.367   2.269  19.874  0.00  0.00    +0.000 OA
ENDROOT
BRANCH   1  15
ATOM     10  C   UNL     1       6.343   4.703  18.006  0.00  0.00    +0.000 A 
ATOM     11  C   UNL     1       7.293   4.718  16.962  0.00  0.00    +0.000 A 
ATOM     12  C   UNL     1       6.935   4.426  15.650  0.00  0.00    +0.000 A 
ATOM     13  C   UNL     1       5.623   4.096  15.365  0.00  0.00    +0.000 A 
ATOM     14  C   UNL     1       4.678   4.055  16.393  0.00  0.00    +0.000 A 
ATOM     15  C   UNL     1       4.998   4.350  17.738  0.00  0.00    +0.000 A 
BRANCH  10  17
ATOM     16  C   UNL     1       7.884   5.766  19.441  0.00  0.00    +0.000 C 
ATOM     17  O   UNL     1       6.756   4.897  19.297  0.00  0.00    +0.000 OA
ENDBRANCH  10  17
ENDBRANCH   1  15
TORSDOF 2
ENDMDL
MODEL 2
REMARK VINA RESULT:      -7.1      1.545      5.158
REMARK  Name = 
REMARK  4 active torsions:
REMARK  status: ('A' for Active; 'I' for Inactive)
REMARK    1  A    between atoms: C_1  and  O_2
REMARK    2  A    between atoms: O_2  and  C_3
REMARK    3  A    between atoms: C_8  and  N_9
REMARK    4  A    between atoms: N_14  and  C_15
REMARK                            x       y       z     vdW  Elec       q    Type
REMARK                         _______ _______ _______ _____ _____    ______ ____
ROOT
ATOM      1  N   UNL     1       4.858   4.250  18.498  0.00  0.00    +0.000 N 
ATOM      2  C   UNL     1       6.072   4.832  18.752  0.00  0.00    +0.000 C 
ATOM      3  O   UNL     1       6.609   5.189  19.779  0.00  0.00    +0.000 OA
ATOM      4  C   UNL     1       6.778   4.936  17.406  0.00  0.00    +0.000 C 
ATOM      5  O   UNL     1       7.786   5.578  17.204  0.00  0.00    +0.000 OA
ATOM      6  N   UNL     1       5.998   4.257  16.545  0.00  0.00    +0.000 N 
ATOM      7  C   UNL     1       6.254   4.170  15.125  0.00  0.00    +0.000 C 
ATOM      8  C   UNL     1       4.796   3.933  17.144  0.00  0.00    +0.000 C 
ATOM      9  O   UNL     1       3.835   3.562  16.483  0.00  0.00    +0.000 OA
ENDROOT
BRANCH   1  15
ATOM     10  C   UNL     1       2.920   5.132  19.863  0.00  0.00    +0.000 A 
ATOM     11  C   UNL     1       1.928   4.875  20.835  0.00  0.00    +0.000 A 
ATOM     12  C   UNL     1       1.833   3.640  21.465  0.00  0.00    +0.000 A 
ATOM     13  C   UNL     1       2.717   2.634  21.120  0.00  0.00    +0.000 A 
ATOM     14  C   UNL     1       3.687   2.868  20.143  0.00  0.00    +0.000 A 
ATOM     15  C   UNL     1       3.823   4.110  19.482  0.00  0.00    +0.000 A 
BRANCH  10  17
ATOM     16  C   UNL     1       2.160   7.365  19.828  0.00  0.00    +0.000 C 
ATOM     17  O   UNL     1       2.916   6.327  19.195  0.00  0.00    +0.000 OA
ENDBRANCH  10  17
ENDBRANCH   1  15
TORSDOF 2
ENDMDL
MODEL 3
REMARK VINA RESULT:      -7.0      2.206      4.959
REMARK  Name = 
REMARK  4 active torsions:
REMARK  status: ('A' for Active; 'I' for Inactive)
REMARK    1  A    between atoms: C_1  and  O_2
REMARK    2  A    between atoms: O_2  and  C_3
REMARK    3  A    between atoms: C_8  and  N_9
REMARK    4  A    between atoms: N_14  and  C_15
REMARK                            x       y       z     vdW  Elec       q    Type
REMARK                         _______ _______ _______ _____ _____    ______ ____
ROOT
ATOM      1  N   UNL     1       4.950   4.896  17.557  0.00  0.00    +0.000 N 
ATOM      2  C   UNL     1       5.484   5.034  16.302  0.00  0.00    +0.000 C 
ATOM      3  O   UNL     1       5.069   4.743  15.201  0.00  0.00    +0.000 OA
ATOM      4  C   UNL     1       6.818   5.746  16.489  0.00  0.00    +0.000 C 
ATOM      5  O   UNL     1       7.664   5.861  15.629  0.00  0.00    +0.000 OA
ATOM      6  N   UNL     1       6.848   6.105  17.786  0.00  0.00    +0.000 N 
ATOM      7  C   UNL     1       7.982   6.739  18.418  0.00  0.00    +0.000 C 
ATOM      8  C   UNL     1       5.800   5.515  18.468  0.00  0.00    +0.000 C 
ATOM      9  O   UNL     1       5.780   5.475  19.691  0.00  0.00    +0.000 OA
ENDROOT
BRANCH   1  15
ATOM     10  C   UNL     1       2.506   4.696  18.175  0.00  0.00    +0.000 A 
ATOM     11  C   UNL     1       1.399   3.853  18.415  0.00  0.00    +0.000 A 
ATOM     12  C   UNL     1       1.517   2.468  18.362  0.00  0.00    +0.000 A 
ATOM     13  C   UNL     1       2.740   1.905  18.050  0.00  0.00    +0.000 A 
ATOM     14  C   UNL     1       3.837   2.729  17.788  0.00  0.00    +0.000 A 
ATOM     15  C   UNL     1       3.763   4.140  17.836  0.00  0.00    +0.000 A 
BRANCH  10  17
ATOM     16  C   UNL     1       2.413   6.705  19.409  0.00  0.00    +0.000 C 
ATOM     17  O   UNL     1       2.324   6.053  18.138  0.00  0.00    +0.000 OA
ENDBRANCH  10  17
ENDBRANCH   1  15
TORSDOF 2
ENDMDL
MODEL 4
REMARK VINA RESULT:      -7.0      1.190      2.086
REMARK  Name = 
REMARK  4 active torsions:
REMARK  status: ('A' for Active; 'I' for Inactive)
REMARK    1  A    between atoms: C_1  and  O_2
REMARK    2  A    between atoms: O_2  and  C_3
REMARK    3  A    between atoms: C_8  and  N_9
REMARK    4  A    between atoms: N_14  and  C_15
REMARK                            x       y       z     vdW  Elec       q    Type
REMARK                         _______ _______ _______ _____ _____    ______ ____
ROOT
ATOM      1  N   UNL     1       4.148   3.918  18.287  0.00  0.00    +0.000 N 
ATOM      2  C   UNL     1       3.543   2.699  18.450  0.00  0.00    +0.000 C 
ATOM      3  O   UNL     1       3.759   1.608  17.965  0.00  0.00    +0.000 OA
ATOM      4  C   UNL     1       2.457   2.904  19.498  0.00  0.00    +0.000 C 
ATOM      5  O   UNL     1       1.585   2.102  19.755  0.00  0.00    +0.000 OA
ATOM      6  N   UNL     1       2.649   4.153  19.964  0.00  0.00    +0.000 N 
ATOM      7  C   UNL     1       1.781   4.793  20.926  0.00  0.00    +0.000 C 
ATOM      8  C   UNL     1       3.577   4.815  19.184  0.00  0.00    +0.000 C 
ATOM      9  O   UNL     1       3.708   6.031  19.247  0.00  0.00    +0.000 OA
ENDROOT
BRANCH   1  15
ATOM     10  C   UNL     1       6.485   4.507  17.521  0.00  0.00    +0.000 A 
ATOM     11  C   UNL     1       7.366   4.741  16.442  0.00  0.00    +0.000 A 
ATOM     12  C   UNL     1       6.924   4.705  15.125  0.00  0.00    +0.000 A 
ATOM     13  C   UNL     1       5.598   4.415  14.863  0.00  0.00    +0.000 A 
ATOM     14  C   UNL     1       4.722   4.158  15.921  0.00  0.00    +0.000 A 
ATOM     15  C   UNL     1       5.128   4.190  17.275  0.00  0.00    +0.000 A 
BRANCH  10  17
ATOM     16  C   UNL     1       7.470   5.698  19.304  0.00  0.00    +0.000 C 
ATOM     17  O   UNL     1       6.981   4.452  18.796  0.00  0.00    +0.000 OA
ENDBRANCH  10  17
ENDBRANCH   1  15
TORSDOF 2
ENDMDL
MODEL 5
REMARK VINA RESULT:      -6.9      1.821      5.181
REMARK  Name = 
REMARK  4 active torsions:
REMARK  status: ('A' for Active; 'I' for Inactive)
REMARK    1  A    between atoms: C_1  and  O_2
REMARK    2  A    between atoms: O_2  and  C_3
REMARK    3  A    between atoms: C_8  and  N_9
REMARK    4  A    between atoms: N_14  and  C_15
REMARK                            x       y       z     vdW  Elec       q    Type
REMARK                         _______ _______ _______ _____ _____    ______ ____
ROOT
ATOM      1  N   UNL     1       4.947   4.504  18.450  0.00  0.00    +0.000 N 
ATOM      2  C   UNL     1       6.135   5.092  18.796  0.00  0.00    +0.000 C 
ATOM      3  O   UNL     1       6.625   5.378  19.868  0.00  0.00    +0.000 OA
ATOM      4  C   UNL     1       6.887   5.320  17.491  0.00  0.00    +0.000 C 
ATOM      5  O   UNL     1       7.885   6.000  17.379  0.00  0.00    +0.000 OA
ATOM      6  N   UNL     1       6.157   4.694  16.549  0.00  0.00    +0.000 N 
ATOM      7  C   UNL     1       6.468   4.727  15.138  0.00  0.00    +0.000 C 
ATOM      8  C   UNL     1       4.943   4.295  17.074  0.00  0.00    +0.000 C 
ATOM      9  O   UNL     1       4.018   3.956  16.349  0.00  0.00    +0.000 OA
ENDROOT
BRANCH   1  15
ATOM     10  C   UNL     1       3.534   2.994  19.907  0.00  0.00    +0.000 A 
ATOM     11  C   UNL     1       2.471   2.877  20.829  0.00  0.00    +0.000 A 
ATOM     12  C   UNL     1       1.719   3.982  21.213  0.00  0.00    +0.000 A 
ATOM     13  C   UNL     1       2.030   5.225  20.695  0.00  0.00    +0.000 A 
ATOM     14  C   UNL     1       3.093   5.359  19.800  0.00  0.00    +0.000 A 
ATOM     15  C   UNL     1       3.880   4.262  19.379  0.00  0.00    +0.000 A 
BRANCH  10  17
ATOM     16  C   UNL     1       3.847   1.091  18.550  0.00  0.00    +0.000 C 
ATOM     17  O   UNL     1       4.312   1.902  19.633  0.00  0.00    +0.000 OA
ENDBRANCH  10  17
ENDBRANCH   1  15
TORSDOF 2
ENDMDL
MODEL 6
REMARK VINA RESULT:      -6.7      1.848      2.282
REMARK  Name = 
REMARK  4 active torsions:
REMARK  status: ('A' for Active; 'I' for Inactive)
REMARK    1  A    between atoms: C_1  and  O_2
REMARK    2  A    between atoms: O_2  and  C_3
REMARK    3  A    between atoms: C_8  and  N_9
REMARK    4  A    between atoms: N_14  and  C_15
REMARK                            x       y       z     vdW  Elec       q    Type
REMARK                         _______ _______ _______ _____ _____    ______ ____
ROOT
ATOM      1  N   UNL     1       3.388   3.962  18.222  0.00  0.00    +0.000 N 
ATOM      2  C   UNL     1       2.018   3.939  18.229  0.00  0.00    +0.000 C 
ATOM      3  O   UNL     1       1.191   4.248  17.397  0.00  0.00    +0.000 OA
ATOM      4  C   UNL     1       1.613   3.345  19.572  0.00  0.00    +0.000 C 
ATOM      5  O   UNL     1       0.486   3.354  20.019  0.00  0.00    +0.000 OA
ATOM      6  N   UNL     1       2.762   2.923  20.132  0.00  0.00    +0.000 N 
ATOM      7  C   UNL     1       2.851   2.364  21.461  0.00  0.00    +0.000 C 
ATOM      8  C   UNL     1       3.843   3.377  19.400  0.00  0.00    +0.000 C 
ATOM      9  O   UNL     1       4.977   3.351  19.859  0.00  0.00    +0.000 OA
ENDROOT
BRANCH   1  15
ATOM     10  C   UNL     1       4.411   5.980  17.093  0.00  0.00    +0.000 A 
ATOM     11  C   UNL     1       5.209   6.485  16.042  0.00  0.00    +0.000 A 
ATOM     12  C   UNL     1       5.741   5.648  15.068  0.00  0.00    +0.000 A 
ATOM     13  C   UNL     1       5.499   4.288  15.139  0.00  0.00    +0.000 A 
ATOM     14  C   UNL     1       4.731   3.773  16.186  0.00  0.00    +0.000 A 
ATOM     15  C   UNL     1       4.167   4.589  17.194  0.00  0.00    +0.000 A 
BRANCH  10  17
ATOM     16  C   UNL     1       2.911   7.688  17.722  0.00  0.00    +0.000 C 
ATOM     17  O   UNL     1       3.991   6.823  18.086  0.00  0.00    +0.000 OA
ENDBRANCH  10  17
ENDBRANCH   1  15
TORSDOF 2
ENDMDL
MODEL 7
REMARK VINA RESULT:      -6.7      2.170      4.853
REMARK  Name = 
REMARK  4 active torsions:
REMARK  status: ('A' for Active; 'I' for Inactive)
REMARK    1  A    between atoms: C_1  and  O_2
REMARK    2  A    between atoms: O_2  and  C_3
REMARK    3  A    between atoms: C_8  and  N_9
REMARK    4  A    between atoms: N_14  and  C_15
REMARK                            x       y       z     vdW  Elec       q    Type
REMARK                         _______ _______ _______ _____ _____    ______ ____
ROOT
ATOM      1  N   UNL     1       4.860   4.720  17.704  0.00  0.00    +0.000 N 
ATOM      2  C   UNL     1       5.394   4.722  16.442  0.00  0.00    +0.000 C 
ATOM      3  O   UNL     1       4.986   4.298  15.381  0.00  0.00    +0.000 OA
ATOM      4  C   UNL     1       6.715   5.473  16.545  0.00  0.00    +0.000 C 
ATOM      5  O   UNL     1       7.561   5.503  15.677  0.00  0.00    +0.000 OA
ATOM      6  N   UNL     1       6.736   5.981  17.791  0.00  0.00    +0.000 N 
ATOM      7  C   UNL     1       7.858   6.704  18.345  0.00  0.00    +0.000 C 
ATOM      8  C   UNL     1       5.698   5.456  18.537  0.00  0.00    +0.000 C 
ATOM      9  O   UNL     1       5.677   5.557  19.756  0.00  0.00    +0.000 OA
ENDROOT
BRANCH   1  15
ATOM     10  C   UNL     1       3.682   2.777  18.815  0.00  0.00    +0.000 A 
ATOM     11  C   UNL     1       2.460   2.142  19.130  0.00  0.00    +0.000 A 
ATOM     12  C   UNL     1       1.244   2.653  18.692  0.00  0.00    +0.000 A 
ATOM     13  C   UNL     1       1.227   3.818  17.948  0.00  0.00    +0.000 A 
ATOM     14  C   UNL     1       2.427   4.468  17.649  0.00  0.00    +0.000 A 
ATOM     15  C   UNL     1       3.686   3.981  18.070  0.00  0.00    +0.000 A 
BRANCH  10  17
ATOM     16  C   UNL     1       4.743   1.836  20.700  0.00  0.00    +0.000 C 
ATOM     17  O   UNL     1       4.848   2.299  19.350  0.00  0.00    +0.000 OA
ENDBRANCH  10  17
ENDBRANCH   1  15
TORSDOF 2
ENDMDL
MODEL 8
REMARK VINA RESULT:      -6.7      0.906      2.094
REMARK  Name = 
REMARK  4 active torsions:
REMARK  status: ('A' for Active; 'I' for Inactive)
REMARK    1  A    between atoms: C_1  and  O_2
REMARK    2  A    between atoms: O_2  and  C_3
REMARK    3  A    between atoms: C_8  and  N_9
REMARK    4  A    between atoms: N_14  and  C_15
REMARK                            x       y       z     vdW  Elec       q    Type
REMARK                         _______ _______ _______ _____ _____    ______ ____
ROOT
ATOM      1  N   UNL     1       4.105   4.552  18.825  0.00  0.00    +0.000 N 
ATOM      2  C   UNL     1       3.803   3.470  19.611  0.00  0.00    +0.000 C 
ATOM      3  O   UNL     1       4.300   2.368  19.712  0.00  0.00    +0.000 OA
ATOM      4  C   UNL     1       2.643   3.904  20.497  0.00  0.00    +0.000 C 
ATOM      5  O   UNL     1       1.976   3.155  21.178  0.00  0.00    +0.000 OA
ATOM      6  N   UNL     1       2.503   5.224  20.274  0.00  0.00    +0.000 N 
ATOM      7  C   UNL     1       1.455   6.031  20.855  0.00  0.00    +0.000 C 
ATOM      8  C   UNL     1       3.286   5.612  19.203  0.00  0.00    +0.000 C 
ATOM      9  O   UNL     1       3.118   6.690  18.650  0.00  0.00    +0.000 OA
ENDROOT
BRANCH   1  15
ATOM     10  C   UNL     1       6.448   4.650  17.878  0.00  0.00    +0.000 A 
ATOM     11  C   UNL     1       7.280   4.576  16.739  0.00  0.00    +0.000 A 
ATOM     12  C   UNL     1       6.752   4.403  15.464  0.00  0.00    +0.000 A 
ATOM     13  C   UNL     1       5.384   4.282  15.309  0.00  0.00    +0.000 A 
ATOM     14  C   UNL     1       4.551   4.330  16.430  0.00  0.00    +0.000 A 
ATOM     15  C   UNL     1       5.045   4.510  17.742  0.00  0.00    +0.000 A 
BRANCH  10  17
ATOM     16  C   UNL     1       7.899   5.826  19.318  0.00  0.00    +0.000 C 
ATOM     17  O   UNL     1       7.012   4.719  19.123  0.00  0.00    +0.000 OA
ENDBRANCH  10  17
ENDBRANCH   1  15
TORSDOF 2
ENDMDL
MODEL 9
REMARK VINA RESULT:      -6.6      1.704      5.225
REMARK  Name = 
REMARK  4 active torsions:
REMARK  status: ('A' for Active; 'I' for Inactive)
REMARK    1  A    between atoms: C_1  and  O_2
REMARK    2  A    between atoms: O_2  and  C_3
REMARK    3  A    between atoms: C_8  and  N_9
REMARK    4  A    between atoms: N_14  and  C_15
REMARK                            x       y       z     vdW  Elec       q    Type
REMARK                         _______ _______ _______ _____ _____    ______ ____
ROOT
ATOM      1  N   UNL     1       4.688   4.665  18.325  0.00  0.00    +0.000 N 
ATOM      2  C   UNL     1       6.002   4.864  18.663  0.00  0.00    +0.000 C 
ATOM      3  O   UNL     1       6.542   5.159  19.708  0.00  0.00    +0.000 OA
ATOM      4  C   UNL     1       6.808   4.576  17.403  0.00  0.00    +0.000 C 
ATOM      5  O   UNL     1       7.982   4.840  17.260  0.00  0.00    +0.000 OA
ATOM      6  N   UNL     1       5.921   4.074  16.524  0.00  0.00    +0.000 N 
ATOM      7  C   UNL     1       6.247   3.737  15.157  0.00  0.00    +0.000 C 
ATOM      8  C   UNL     1       4.635   4.219  17.008  0.00  0.00    +0.000 C 
ATOM      9  O   UNL     1       3.662   4.088  16.278  0.00  0.00    +0.000 OA
ENDROOT
BRANCH   1  15
ATOM     10  C   UNL     1       2.849   4.032  19.942  0.00  0.00    +0.000 A 
ATOM     11  C   UNL     1       1.793   4.458  20.777  0.00  0.00    +0.000 A 
ATOM     12  C   UNL     1       1.430   5.798  20.860  0.00  0.00    +0.000 A 
ATOM     13  C   UNL     1       2.129   6.736  20.123  0.00  0.00    +0.000 A 
ATOM     14  C   UNL     1       3.190   6.330  19.311  0.00  0.00    +0.000 A 
ATOM     15  C   UNL     1       3.589   4.978  19.193  0.00  0.00    +0.000 A 
BRANCH  10  17
ATOM     16  C   UNL     1       2.552   1.873  19.039  0.00  0.00    +0.000 C 
ATOM     17  O   UNL     1       3.239   2.720  19.965  0.00  0.00    +0.000 OA
ENDBRANCH  10  17
ENDBRANCH   1  15
TORSDOF 2
ENDMDL
