MODEL 1
REMARK VINA RESULT:      -8.6      0.000      0.000
REMARK  Name = 
REMARK  7 active torsions:
REMARK  status: ('A' for Active; 'I' for Inactive)
REMARK    1  A    between atoms: C_1  and  O_2
REMARK    2  A    between atoms: O_2  and  C_3
REMARK    3  A    between atoms: C_8  and  C_9
REMARK    4  A    between atoms: C_11  and  N_12
REMARK    5  A    between atoms: C_14  and  C_15
REMARK    6  A    between atoms: C_15  and  N_16
REMARK    7  A    between atoms: C_19  and  C_20
REMARK                            x       y       z     vdW  Elec       q    Type
REMARK                         _______ _______ _______ _____ _____    ______ ____
ROOT
ATOM      1  N   UNL     1       7.061   6.886  17.606  0.00  0.00    +0.000 N 
ATOM      2  C   UNL     1       6.980   8.213  17.287  0.00  0.00    +0.000 A 
ATOM      3  C   UNL     1       7.984   8.824  17.992  0.00  0.00    +0.000 A 
ATOM      4  N   UNL     1       8.591   7.884  18.789  0.00  0.00    +0.000 NA
ATOM      5  N   UNL     1       7.997   6.716  18.573  0.00  0.00    +0.000 NA
ENDROOT
BRANCH   1  14
ATOM      6  C   UNL     1       3.425   4.905  19.162  0.00  0.00    +0.000 A 
ATOM      7  C   UNL     1       2.890   3.891  18.384  0.00  0.00    +0.000 A 
ATOM      8  C   UNL     1       3.515   3.529  17.190  0.00  0.00    +0.000 A 
ATOM      9  C   UNL     1       4.661   4.164  16.743  0.00  0.00    +0.000 A 
ATOM     10  N   UNL     1       5.122   3.793  15.539  0.00  0.00    +0.000 NA
ATOM     11  C   UNL     1       6.193   4.425  15.026  0.00  0.00    +0.000 A 
ATOM     12  C   UNL     1       6.597   4.059  13.628  0.00  0.00    +0.000 C 
ATOM     13  C   UNL     1       6.860   5.423  15.710  0.00  0.00    +0.000 A 
ATOM     14  C   UNL     1       6.382   5.816  16.967  0.00  0.00    +0.000 A 
ATOM     15  C   UNL     1       5.241   5.189  17.527  0.00  0.00    +0.000 A 
ATOM     16  C   UNL     1       4.584   5.546  18.734  0.00  0.00    +0.000 A 
BRANCH   6  18
ATOM     17  C   UNL     1       2.222   4.426  21.130  0.00  0.00    +0.000 C 
ATOM     18  O   UNL     1       2.870   5.392  20.312  0.00  0.00    +0.000 OA
ENDBRANCH   6  18
ENDBRANCH   1  14
BRANCH   3  19
ATOM     19  C   UNL     1       8.480  10.226  17.911  0.00  0.00    +0.000 C 
BRANCH  19  20
ATOM     20  N   UNL     1       9.678  10.464  18.758  0.00  0.00    +0.000 NA
ATOM     21  C   UNL     1      10.713  11.177  17.993  0.00  0.00    +0.000 C 
ATOM     22  C   UNL     1      11.869  11.717  18.845  0.00  0.00    +0.000 C 
ATOM     23  C   UNL     1      11.417  12.525  20.072  0.00  0.00    +0.000 C 
ATOM     24  C   UNL     1      10.405  11.670  20.845  0.00  0.00    +0.000 C 
ATOM     25  C   UNL     1       9.252  11.193  19.965  0.00  0.00    +0.000 C 
BRANCH  23  26
ATOM     26  C   UNL     1      10.984  13.974  19.839  0.00  0.00    +0.000 A 
ATOM     27  C   UNL     1      11.184  14.656  18.630  0.00  0.00    +0.000 A 
ATOM     28  C   UNL     1      10.913  16.025  18.514  0.00  0.00    +0.000 A 
ATOM     29  C   UNL     1      10.455  16.745  19.611  0.00  0.00    +0.000 A 
ATOM     30  C   UNL     1      10.226  16.088  20.815  0.00  0.00    +0.000 A 
ATOM     31  C   UNL     1      10.475  14.715  20.923  0.00  0.00    +0.000 A 
ENDBRANCH  23  26
ENDBRANCH  19  20
ENDBRANCH   3  19
TORSDOF 5
ENDMDL
MODEL 2
REMARK VINA RESULT:      -8.5      6.461      8.881
REMARK  Name = 
REMARK  7 active torsions:
REMARK  status: ('A' for Active; 'I' for Inactive)
REMARK    1  A    between atoms: C_1  and  O_2
REMARK    2  A    between atoms: O_2  and  C_3
REMARK    3  A    between atoms: C_8  and  C_9
REMARK    4  A    between atoms: C_11  and  N_12
REMARK    5  A    between atoms: C_14  and  C_15
REMARK    6  A    between atoms: C_15  and  N_16
REMARK    7  A    between atoms: C_19  and  C_20
REMARK                            x       y       z     vdW  Elec       q    Type
REMARK                         _______ _______ _______ _____ _____    ______ ____
ROOT
ATOM      1  N   UNL     1       2.603   7.248  18.268  0.00  0.00    +0.000 N 
ATOM      2  C   UNL     1       2.156   7.633  19.501  0.00  0.00    +0.000 A 
ATOM      3  C   UNL     1       1.584   8.865  19.317  0.00  0.00    +0.000 A 
ATOM      4  N   UNL     1       1.775   9.243  18.011  0.00  0.00    +0.000 NA
ATOM      5  N   UNL     1       2.429   8.268  17.391  0.00  0.00    +0.000 NA
ENDROOT
BRANCH   1  14
ATOM      6  C   UNL     1       6.662   6.360  16.750  0.00  0.00    +0.000 A 
ATOM      7  C   UNL     1       6.941   5.032  16.463  0.00  0.00    +0.000 A 
ATOM      8  C   UNL     1       5.952   4.063  16.634  0.00  0.00    +0.000 A 
ATOM      9  C   UNL     1       4.687   4.384  17.098  0.00  0.00    +0.000 A 
ATOM     10  N   UNL     1       3.848   3.357  17.309  0.00  0.00    +0.000 NA
ATOM     11  C   UNL     1       2.630   3.605  17.824  0.00  0.00    +0.000 A 
ATOM     12  C   UNL     1       1.774   2.417  18.153  0.00  0.00    +0.000 C 
ATOM     13  C   UNL     1       2.196   4.884  18.114  0.00  0.00    +0.000 A 
ATOM     14  C   UNL     1       3.069   5.960  17.899  0.00  0.00    +0.000 A 
ATOM     15  C   UNL     1       4.368   5.732  17.381  0.00  0.00    +0.000 A 
ATOM     16  C   UNL     1       5.392   6.701  17.206  0.00  0.00    +0.000 A 
BRANCH   6  18
ATOM     17  C   UNL     1       7.937   7.945  17.938  0.00  0.00    +0.000 C 
ATOM     18  O   UNL     1       7.563   7.385  16.686  0.00  0.00    +0.000 OA
ENDBRANCH   6  18
ENDBRANCH   1  14
BRANCH   3  19
ATOM     19  C   UNL     1       0.787   9.690  20.267  0.00  0.00    +0.000 C 
BRANCH  19  20
ATOM     20  N   UNL     1       0.334  10.976  19.676  0.00  0.00    +0.000 NA
ATOM     21  C   UNL     1      -1.119  10.951  19.445  0.00  0.00    +0.000 C 
ATOM     22  C   UNL     1      -1.729  12.316  19.103  0.00  0.00    +0.000 C 
ATOM     23  C   UNL     1      -1.330  13.440  20.073  0.00  0.00    +0.000 C 
ATOM     24  C   UNL     1       0.200  13.438  20.183  0.00  0.00    +0.000 C 
ATOM     25  C   UNL     1       0.755  12.069  20.569  0.00  0.00    +0.000 C 
BRANCH  23  26
ATOM     26  C   UNL     1      -2.067  13.508  21.411  0.00  0.00    +0.000 A 
ATOM     27  C   UNL     1      -1.495  14.023  22.584  0.00  0.00    +0.000 A 
ATOM     28  C   UNL     1      -2.149  13.922  23.818  0.00  0.00    +0.000 A 
ATOM     29  C   UNL     1      -3.382  13.287  23.908  0.00  0.00    +0.000 A 
ATOM     30  C   UNL     1      -3.983  12.790  22.757  0.00  0.00    +0.000 A 
ATOM     31  C   UNL     1      -3.338  12.912  21.521  0.00  0.00    +0.000 A 
ENDBRANCH  23  26
ENDBRANCH  19  20
ENDBRANCH   3  19
TORSDOF 5
ENDMDL
MODEL 3
REMARK VINA RESULT:      -8.5      6.469      9.257
REMARK  Name = 
REMARK  7 active torsions:
REMARK  status: ('A' for Active; 'I' for Inactive)
REMARK    1  A    between atoms: C_1  and  O_2
REMARK    2  A    between atoms: O_2  and  C_3
REMARK    3  A    between atoms: C_8  and  C_9
REMARK    4  A    between atoms: C_11  and  N_12
REMARK    5  A    between atoms: C_14  and  C_15
REMARK    6  A    between atoms: C_15  and  N_16
REMARK    7  A    between atoms: C_19  and  C_20
REMARK                            x       y       z     vdW  Elec       q    Type
REMARK                         _______ _______ _______ _____ _____    ______ ____
ROOT
ATOM      1  N   UNL     1       2.527   7.261  18.434  0.00  0.00    +0.000 N 
ATOM      2  C   UNL     1       2.121   7.611  19.691  0.00  0.00    +0.000 A 
ATOM      3  C   UNL     1       1.512   8.831  19.555  0.00  0.00    +0.000 A 
ATOM      4  N   UNL     1       1.641   9.239  18.251  0.00  0.00    +0.000 NA
ATOM      5  N   UNL     1       2.293   8.292  17.585  0.00  0.00    +0.000 NA
ENDROOT
BRANCH   1  14
ATOM      6  C   UNL     1       6.566   6.493  16.801  0.00  0.00    +0.000 A 
ATOM      7  C   UNL     1       6.863   5.179  16.473  0.00  0.00    +0.000 A 
ATOM      8  C   UNL     1       5.898   4.186  16.641  0.00  0.00    +0.000 A 
ATOM      9  C   UNL     1       4.639   4.469  17.142  0.00  0.00    +0.000 A 
ATOM     10  N   UNL     1       3.824   3.422  17.344  0.00  0.00    +0.000 NA
ATOM     11  C   UNL     1       2.613   3.632  17.893  0.00  0.00    +0.000 A 
ATOM     12  C   UNL     1       1.789   2.419  18.210  0.00  0.00    +0.000 C 
ATOM     13  C   UNL     1       2.162   4.894  18.227  0.00  0.00    +0.000 A 
ATOM     14  C   UNL     1       3.009   5.992  18.020  0.00  0.00    +0.000 A 
ATOM     15  C   UNL     1       4.300   5.804  17.467  0.00  0.00    +0.000 A 
ATOM     16  C   UNL     1       5.301   6.797  17.295  0.00  0.00    +0.000 A 
BRANCH   6  18
ATOM     17  C   UNL     1       7.974   7.957  17.995  0.00  0.00    +0.000 C 
ATOM     18  O   UNL     1       7.446   7.537  16.744  0.00  0.00    +0.000 OA
ENDBRANCH   6  18
ENDBRANCH   1  14
BRANCH   3  19
ATOM     19  C   UNL     1       0.734   9.617  20.553  0.00  0.00    +0.000 C 
BRANCH  19  20
ATOM     20  N   UNL     1       0.259  10.919  20.018  0.00  0.00    +0.000 NA
ATOM     21  C   UNL     1      -1.078  10.771  19.421  0.00  0.00    +0.000 C 
ATOM     22  C   UNL     1      -1.775  12.098  19.093  0.00  0.00    +0.000 C 
ATOM     23  C   UNL     1      -1.785  13.102  20.256  0.00  0.00    +0.000 C 
ATOM     24  C   UNL     1      -0.342  13.250  20.755  0.00  0.00    +0.000 C 
ATOM     25  C   UNL     1       0.293  11.908  21.109  0.00  0.00    +0.000 C 
BRANCH  23  26
ATOM     26  C   UNL     1      -2.824  12.892  21.359  0.00  0.00    +0.000 A 
ATOM     27  C   UNL     1      -4.208  12.933  21.136  0.00  0.00    +0.000 A 
ATOM     28  C   UNL     1      -5.118  12.890  22.199  0.00  0.00    +0.000 A 
ATOM     29  C   UNL     1      -4.662  12.825  23.510  0.00  0.00    +0.000 A 
ATOM     30  C   UNL     1      -3.296  12.759  23.758  0.00  0.00    +0.000 A 
ATOM     31  C   UNL     1      -2.388  12.778  22.694  0.00  0.00    +0.000 A 
ENDBRANCH  23  26
ENDBRANCH  19  20
ENDBRANCH   3  19
TORSDOF 5
ENDMDL
MODEL 4
REMARK VINA RESULT:      -8.4      6.095      9.961
REMARK  Name = 
REMARK  7 active torsions:
REMARK  status: ('A' for Active; 'I' for Inactive)
REMARK    1  A    between atoms: C_1  and  O_2
REMARK    2  A    between atoms: O_2  and  C_3
REMARK    3  A    between atoms: C_8  and  C_9
REMARK    4  A    between atoms: C_11  and  N_12
REMARK    5  A    between atoms: C_14  and  C_15
REMARK    6  A    between atoms: C_15  and  N_16
REMARK    7  A    between atoms: C_19  and  C_20
REMARK                            x       y       z     vdW  Elec       q    Type
REMARK                         _______ _______ _______ _____ _____    ______ ____
ROOT
ATOM      1  N   UNL     1       0.991   9.471  19.423  0.00  0.00    +0.000 N 
ATOM      2  C   UNL     1       1.677   9.410  18.242  0.00  0.00    +0.000 A 
ATOM      3  C   UNL     1       2.386   8.239  18.287  0.00  0.00    +0.000 A 
ATOM      4  N   UNL     1       2.194   7.661  19.518  0.00  0.00    +0.000 NA
ATOM      5  N   UNL     1       1.373   8.438  20.215  0.00  0.00    +0.000 NA
ENDROOT
BRANCH   1  14
ATOM      6  C   UNL     1      -2.525  10.343  16.884  0.00  0.00    +0.000 A 
ATOM      7  C   UNL     1      -3.448  11.245  17.391  0.00  0.00    +0.000 A 
ATOM      8  C   UNL     1      -3.224  11.844  18.631  0.00  0.00    +0.000 A 
ATOM      9  C   UNL     1      -2.103  11.555  19.390  0.00  0.00    +0.000 A 
ATOM     10  N   UNL     1      -2.040  12.121  20.606  0.00  0.00    +0.000 NA
ATOM     11  C   UNL     1      -1.005  11.821  21.412  0.00  0.00    +0.000 A 
ATOM     12  C   UNL     1      -1.040  12.383  22.804  0.00  0.00    +0.000 C 
ATOM     13  C   UNL     1       0.016  10.976  21.023  0.00  0.00    +0.000 A 
ATOM     14  C   UNL     1      -0.047  10.379  19.756  0.00  0.00    +0.000 A 
ATOM     15  C   UNL     1      -1.135  10.653  18.890  0.00  0.00    +0.000 A 
ATOM     16  C   UNL     1      -1.386  10.051  17.628  0.00  0.00    +0.000 A 
BRANCH   6  18
ATOM     17  C   UNL     1      -3.452  10.282  14.720  0.00  0.00    +0.000 C 
ATOM     18  O   UNL     1      -2.664   9.646  15.717  0.00  0.00    +0.000 OA
ENDBRANCH   6  18
ENDBRANCH   1  14
BRANCH   3  19
ATOM     19  C   UNL     1       3.175   7.568  17.217  0.00  0.00    +0.000 C 
BRANCH  19  20
ATOM     20  N   UNL     1       4.146   6.577  17.750  0.00  0.00    +0.000 NA
ATOM     21  C   UNL     1       3.790   5.220  17.306  0.00  0.00    +0.000 C 
ATOM     22  C   UNL     1       4.875   4.166  17.564  0.00  0.00    +0.000 C 
ATOM     23  C   UNL     1       6.272   4.573  17.071  0.00  0.00    +0.000 C 
ATOM     24  C   UNL     1       6.584   5.959  17.650  0.00  0.00    +0.000 C 
ATOM     25  C   UNL     1       5.498   6.983  17.330  0.00  0.00    +0.000 C 
BRANCH  23  26
ATOM     26  C   UNL     1       6.562   4.426  15.576  0.00  0.00    +0.000 A 
ATOM     27  C   UNL     1       7.568   5.140  14.908  0.00  0.00    +0.000 A 
ATOM     28  C   UNL     1       7.693   5.090  13.515  0.00  0.00    +0.000 A 
ATOM     29  C   UNL     1       6.803   4.338  12.757  0.00  0.00    +0.000 A 
ATOM     30  C   UNL     1       5.812   3.601  13.395  0.00  0.00    +0.000 A 
ATOM     31  C   UNL     1       5.702   3.634  14.790  0.00  0.00    +0.000 A 
ENDBRANCH  23  26
ENDBRANCH  19  20
ENDBRANCH   3  19
TORSDOF 5
ENDMDL
MODEL 5
REMARK VINA RESULT:      -8.3      6.509      8.611
REMARK  Name = 
REMARK  7 active torsions:
REMARK  status: ('A' for Active; 'I' for Inactive)
REMARK    1  A    between atoms: C_1  and  O_2
REMARK    2  A    between atoms: O_2  and  C_3
REMARK    3  A    between atoms: C_8  and  C_9
REMARK    4  A    between atoms: C_11  and  N_12
REMARK    5  A    between atoms: C_14  and  C_15
REMARK    6  A    between atoms: C_15  and  N_16
REMARK    7  A    between atoms: C_19  and  C_20
REMARK                            x       y       z     vdW  Elec       q    Type
REMARK                         _______ _______ _______ _____ _____    ______ ____
ROOT
ATOM      1  N   UNL     1       3.148   7.167  17.877  0.00  0.00    +0.000 N 
ATOM      2  C   UNL     1       2.560   7.410  19.087  0.00  0.00    +0.000 A 
ATOM      3  C   UNL     1       1.886   8.594  18.938  0.00  0.00    +0.000 A 
ATOM      4  N   UNL     1       2.148   9.090  17.685  0.00  0.00    +0.000 NA
ATOM      5  N   UNL     1       2.947   8.232  17.061  0.00  0.00    +0.000 NA
ENDROOT
BRANCH   1  14
ATOM      6  C   UNL     1       1.991   3.120  19.238  0.00  0.00    +0.000 A 
ATOM      7  C   UNL     1       2.703   2.058  18.703  0.00  0.00    +0.000 A 
ATOM      8  C   UNL     1       3.742   2.302  17.804  0.00  0.00    +0.000 A 
ATOM      9  C   UNL     1       4.083   3.586  17.413  0.00  0.00    +0.000 A 
ATOM     10  N   UNL     1       5.038   3.693  16.475  0.00  0.00    +0.000 NA
ATOM     11  C   UNL     1       5.361   4.913  16.010  0.00  0.00    +0.000 A 
ATOM     12  C   UNL     1       6.346   4.973  14.878  0.00  0.00    +0.000 C 
ATOM     13  C   UNL     1       4.770   6.067  16.485  0.00  0.00    +0.000 A 
ATOM     14  C   UNL     1       3.770   5.961  17.462  0.00  0.00    +0.000 A 
ATOM     15  C   UNL     1       3.387   4.690  17.958  0.00  0.00    +0.000 A 
ATOM     16  C   UNL     1       2.329   4.418  18.866  0.00  0.00    +0.000 A 
BRANCH   6  18
ATOM     17  C   UNL     1       1.229   2.874  21.454  0.00  0.00    +0.000 C 
ATOM     18  O   UNL     1       0.915   3.006  20.074  0.00  0.00    +0.000 OA
ENDBRANCH   6  18
ENDBRANCH   1  14
BRANCH   3  19
ATOM     19  C   UNL     1       0.931   9.262  19.866  0.00  0.00    +0.000 C 
BRANCH  19  20
ATOM     20  N   UNL     1       0.444  10.568  19.350  0.00  0.00    +0.000 NA
ATOM     21  C   UNL     1      -0.941  10.443  18.866  0.00  0.00    +0.000 C 
ATOM     22  C   UNL     1      -1.632  11.782  18.575  0.00  0.00    +0.000 C 
ATOM     23  C   UNL     1      -1.523  12.804  19.718  0.00  0.00    +0.000 C 
ATOM     24  C   UNL     1      -0.040  12.923  20.095  0.00  0.00    +0.000 C 
ATOM     25  C   UNL     1       0.591  11.571  20.418  0.00  0.00    +0.000 C 
BRANCH  23  26
ATOM     26  C   UNL     1      -2.472  12.635  20.906  0.00  0.00    +0.000 A 
ATOM     27  C   UNL     1      -3.853  12.870  20.832  0.00  0.00    +0.000 A 
ATOM     28  C   UNL     1      -4.656  12.855  21.978  0.00  0.00    +0.000 A 
ATOM     29  C   UNL     1      -4.092  12.621  23.226  0.00  0.00    +0.000 A 
ATOM     30  C   UNL     1      -2.730  12.361  23.325  0.00  0.00    +0.000 A 
ATOM     31  C   UNL     1      -1.932  12.354  22.176  0.00  0.00    +0.000 A 
ENDBRANCH  23  26
ENDBRANCH  19  20
ENDBRANCH   3  19
TORSDOF 5
ENDMDL
MODEL 6
REMARK VINA RESULT:      -8.2      6.538      9.454
REMARK  Name = 
REMARK  7 active torsions:
REMARK  status: ('A' for Active; 'I' for Inactive)
REMARK    1  A    between atoms: C_1  and  O_2
REMARK    2  A    between atoms: O_2  and  C_3
REMARK    3  A    between atoms: C_8  and  C_9
REMARK    4  A    between atoms: C_11  and  N_12
REMARK    5  A    between atoms: C_14  and  C_15
REMARK    6  A    between atoms: C_15  and  N_16
REMARK    7  A    between atoms: C_19  and  C_20
REMARK                            x       y       z     vdW  Elec       q    Type
REMARK                         _______ _______ _______ _____ _____    ______ ____
ROOT
ATOM      1  N   UNL     1       2.374   7.744  18.833  0.00  0.00    +0.000 N 
ATOM      2  C   UNL     1       1.569   8.488  19.649  0.00  0.00    +0.000 A 
ATOM      3  C   UNL     1       1.163   9.556  18.893  0.00  0.00    +0.000 A 
ATOM      4  N   UNL     1       1.795   9.493  17.676  0.00  0.00    +0.000 NA
ATOM      5  N   UNL     1       2.559   8.406  17.663  0.00  0.00    +0.000 NA
ENDROOT
BRANCH   1  14
ATOM      6  C   UNL     1       6.242   6.154  17.390  0.00  0.00    +0.000 A 
ATOM      7  C   UNL     1       6.555   4.855  17.757  0.00  0.00    +0.000 A 
ATOM      8  C   UNL     1       5.653   4.114  18.522  0.00  0.00    +0.000 A 
ATOM      9  C   UNL     1       4.445   4.642  18.942  0.00  0.00    +0.000 A 
ATOM     10  N   UNL     1       3.699   3.869  19.747  0.00  0.00    +0.000 NA
ATOM     11  C   UNL     1       2.547   4.359  20.241  0.00  0.00    +0.000 A 
ATOM     12  C   UNL     1       1.810   3.504  21.230  0.00  0.00    +0.000 C 
ATOM     13  C   UNL     1       2.084   5.621  19.922  0.00  0.00    +0.000 A 
ATOM     14  C   UNL     1       2.859   6.434  19.084  0.00  0.00    +0.000 A 
ATOM     15  C   UNL     1       4.090   5.959  18.566  0.00  0.00    +0.000 A 
ATOM     16  C   UNL     1       5.026   6.698  17.794  0.00  0.00    +0.000 A 
BRANCH   6  18
ATOM     17  C   UNL     1       7.732   7.976  17.491  0.00  0.00    +0.000 C 
ATOM     18  O   UNL     1       7.067   6.999  16.702  0.00  0.00    +0.000 OA
ENDBRANCH   6  18
ENDBRANCH   1  14
BRANCH   3  19
ATOM     19  C   UNL     1       0.147  10.601  19.199  0.00  0.00    +0.000 C 
BRANCH  19  20
ATOM     20  N   UNL     1       0.275  11.145  20.576  0.00  0.00    +0.000 NA
ATOM     21  C   UNL     1       0.040  12.597  20.578  0.00  0.00    +0.000 C 
ATOM     22  C   UNL     1      -0.129  13.209  21.975  0.00  0.00    +0.000 C 
ATOM     23  C   UNL     1      -1.145  12.471  22.862  0.00  0.00    +0.000 C 
ATOM     24  C   UNL     1      -0.768  10.984  22.861  0.00  0.00    +0.000 C 
ATOM     25  C   UNL     1      -0.655  10.411  21.451  0.00  0.00    +0.000 C 
BRANCH  23  26
ATOM     26  C   UNL     1      -2.628  12.754  22.619  0.00  0.00    +0.000 A 
ATOM     27  C   UNL     1      -3.608  12.659  23.618  0.00  0.00    +0.000 A 
ATOM     28  C   UNL     1      -4.969  12.775  23.316  0.00  0.00    +0.000 A 
ATOM     29  C   UNL     1      -5.382  12.970  22.003  0.00  0.00    +0.000 A 
ATOM     30  C   UNL     1      -4.431  13.091  20.996  0.00  0.00    +0.000 A 
ATOM     31  C   UNL     1      -3.069  12.999  21.304  0.00  0.00    +0.000 A 
ENDBRANCH  23  26
ENDBRANCH  19  20
ENDBRANCH   3  19
TORSDOF 5
ENDMDL
MODEL 7
REMARK VINA RESULT:      -8.1      6.715      9.351
REMARK  Name = 
REMARK  7 active torsions:
REMARK  status: ('A' for Active; 'I' for Inactive)
REMARK    1  A    between atoms: C_1  and  O_2
REMARK    2  A    between atoms: O_2  and  C_3
REMARK    3  A    between atoms: C_8  and  C_9
REMARK    4  A    between atoms: C_11  and  N_12
REMARK    5  A    between atoms: C_14  and  C_15
REMARK    6  A    between atoms: C_15  and  N_16
REMARK    7  A    between atoms: C_19  and  C_20
REMARK                            x       y       z     vdW  Elec       q    Type
REMARK                         _______ _______ _______ _____ _____    ______ ____
ROOT
ATOM      1  N   UNL     1       2.369   7.654  18.652  0.00  0.00    +0.000 N 
ATOM      2  C   UNL     1       1.616   8.457  19.462  0.00  0.00    +0.000 A 
ATOM      3  C   UNL     1       1.333   9.571  18.715  0.00  0.00    +0.000 A 
ATOM      4  N   UNL     1       1.988   9.468  17.513  0.00  0.00    +0.000 NA
ATOM      5  N   UNL     1       2.645   8.314  17.499  0.00  0.00    +0.000 NA
ENDROOT
BRANCH   1  14
ATOM      6  C   UNL     1       5.286   5.337  16.266  0.00  0.00    +0.000 A 
ATOM      7  C   UNL     1       5.517   4.030  16.667  0.00  0.00    +0.000 A 
ATOM      8  C   UNL     1       4.822   3.506  17.758  0.00  0.00    +0.000 A 
ATOM      9  C   UNL     1       3.906   4.259  18.471  0.00  0.00    +0.000 A 
ATOM     10  N   UNL     1       3.366   3.679  19.554  0.00  0.00    +0.000 NA
ATOM     11  C   UNL     1       2.520   4.390  20.323  0.00  0.00    +0.000 A 
ATOM     12  C   UNL     1       2.037   3.740  21.587  0.00  0.00    +0.000 C 
ATOM     13  C   UNL     1       2.159   5.688  20.019  0.00  0.00    +0.000 A 
ATOM     14  C   UNL     1       2.721   6.300  18.890  0.00  0.00    +0.000 A 
ATOM     15  C   UNL     1       3.635   5.589  18.073  0.00  0.00    +0.000 A 
ATOM     16  C   UNL     1       4.358   6.105  16.964  0.00  0.00    +0.000 A 
BRANCH   6  18
ATOM     17  C   UNL     1       6.753   5.150  14.433  0.00  0.00    +0.000 C 
ATOM     18  O   UNL     1       5.949   5.981  15.260  0.00  0.00    +0.000 OA
ENDBRANCH   6  18
ENDBRANCH   1  14
BRANCH   3  19
ATOM     19  C   UNL     1       0.412  10.703  19.015  0.00  0.00    +0.000 C 
BRANCH  19  20
ATOM     20  N   UNL     1       0.483  11.145  20.433  0.00  0.00    +0.000 NA
ATOM     21  C   UNL     1       0.146  12.573  20.542  0.00  0.00    +0.000 C 
ATOM     22  C   UNL     1      -0.084  13.060  21.979  0.00  0.00    +0.000 C 
ATOM     23  C   UNL     1      -1.057  12.187  22.787  0.00  0.00    +0.000 C 
ATOM     24  C   UNL     1      -0.577  10.734  22.679  0.00  0.00    +0.000 C 
ATOM     25  C   UNL     1      -0.406  10.282  21.231  0.00  0.00    +0.000 C 
BRANCH  23  26
ATOM     26  C   UNL     1      -2.553  12.386  22.539  0.00  0.00    +0.000 A 
ATOM     27  C   UNL     1      -3.101  12.631  21.271  0.00  0.00    +0.000 A 
ATOM     28  C   UNL     1      -4.452  12.961  21.113  0.00  0.00    +0.000 A 
ATOM     29  C   UNL     1      -5.281  13.071  22.224  0.00  0.00    +0.000 A 
ATOM     30  C   UNL     1      -4.769  12.810  23.490  0.00  0.00    +0.000 A 
ATOM     31  C   UNL     1      -3.424  12.457  23.643  0.00  0.00    +0.000 A 
ENDBRANCH  23  26
ENDBRANCH  19  20
ENDBRANCH   3  19
TORSDOF 5
ENDMDL
MODEL 8
REMARK VINA RESULT:      -8.0      6.305      7.554
REMARK  Name = 
REMARK  7 active torsions:
REMARK  status: ('A' for Active; 'I' for Inactive)
REMARK    1  A    between atoms: C_1  and  O_2
REMARK    2  A    between atoms: O_2  and  C_3
REMARK    3  A    between atoms: C_8  and  C_9
REMARK    4  A    between atoms: C_11  and  N_12
REMARK    5  A    between atoms: C_14  and  C_15
REMARK    6  A    between atoms: C_15  and  N_16
REMARK    7  A    between atoms: C_19  and  C_20
REMARK                            x       y       z     vdW  Elec       q    Type
REMARK                         _______ _______ _______ _____ _____    ______ ____
ROOT
ATOM      1  N   UNL     1       2.173   7.196  18.543  0.00  0.00    +0.000 N 
ATOM      2  C   UNL     1       1.937   8.278  17.744  0.00  0.00    +0.000 A 
ATOM      3  C   UNL     1       1.736   9.331  18.598  0.00  0.00    +0.000 A 
ATOM      4  N   UNL     1       1.761   8.857  19.886  0.00  0.00    +0.000 NA
ATOM      5  N   UNL     1       1.991   7.549  19.840  0.00  0.00    +0.000 NA
ENDROOT
BRANCH   1  14
ATOM      6  C   UNL     1       6.159   6.434  16.783  0.00  0.00    +0.000 A 
ATOM      7  C   UNL     1       6.456   5.118  16.463  0.00  0.00    +0.000 A 
ATOM      8  C   UNL     1       5.504   4.121  16.679  0.00  0.00    +0.000 A 
ATOM      9  C   UNL     1       4.261   4.402  17.219  0.00  0.00    +0.000 A 
ATOM     10  N   UNL     1       3.463   3.351  17.465  0.00  0.00    +0.000 NA
ATOM     11  C   UNL     1       2.270   3.560  18.052  0.00  0.00    +0.000 A 
ATOM     12  C   UNL     1       1.466   2.346  18.415  0.00  0.00    +0.000 C 
ATOM     13  C   UNL     1       1.820   4.823  18.383  0.00  0.00    +0.000 A 
ATOM     14  C   UNL     1       2.651   5.924  18.131  0.00  0.00    +0.000 A 
ATOM     15  C   UNL     1       3.923   5.738  17.537  0.00  0.00    +0.000 A 
ATOM     16  C   UNL     1       4.909   6.736  17.315  0.00  0.00    +0.000 A 
BRANCH   6  18
ATOM     17  C   UNL     1       7.789   7.761  17.848  0.00  0.00    +0.000 C 
ATOM     18  O   UNL     1       7.028   7.485  16.680  0.00  0.00    +0.000 OA
ENDBRANCH   6  18
ENDBRANCH   1  14
BRANCH   3  19
ATOM     19  C   UNL     1       1.605  10.784  18.297  0.00  0.00    +0.000 C 
BRANCH  19  20
ATOM     20  N   UNL     1       0.823  11.518  19.325  0.00  0.00    +0.000 NA
ATOM     21  C   UNL     1       1.711  12.367  20.135  0.00  0.00    +0.000 C 
ATOM     22  C   UNL     1       0.979  13.373  21.033  0.00  0.00    +0.000 C 
ATOM     23  C   UNL     1      -0.085  14.206  20.300  0.00  0.00    +0.000 C 
ATOM     24  C   UNL     1      -1.006  13.232  19.555  0.00  0.00    +0.000 C 
ATOM     25  C   UNL     1      -0.236  12.282  18.642  0.00  0.00    +0.000 C 
BRANCH  23  26
ATOM     26  C   UNL     1       0.403  15.391  19.464  0.00  0.00    +0.000 A 
ATOM     27  C   UNL     1       1.669  15.976  19.616  0.00  0.00    +0.000 A 
ATOM     28  C   UNL     1       2.012  17.153  18.940  0.00  0.00    +0.000 A 
ATOM     29  C   UNL     1       1.089  17.780  18.112  0.00  0.00    +0.000 A 
ATOM     30  C   UNL     1      -0.165  17.209  17.925  0.00  0.00    +0.000 A 
ATOM     31  C   UNL     1      -0.498  16.020  18.583  0.00  0.00    +0.000 A 
ENDBRANCH  23  26
ENDBRANCH  19  20
ENDBRANCH   3  19
TORSDOF 5
ENDMDL
MODEL 9
REMARK VINA RESULT:      -8.0      6.202      9.087
REMARK  Name = 
REMARK  7 active torsions:
REMARK  status: ('A' for Active; 'I' for Inactive)
REMARK    1  A    between atoms: C_1  and  O_2
REMARK    2  A    between atoms: O_2  and  C_3
REMARK    3  A    between atoms: C_8  and  C_9
REMARK    4  A    between atoms: C_11  and  N_12
REMARK    5  A    between atoms: C_14  and  C_15
REMARK    6  A    between atoms: C_15  and  N_16
REMARK    7  A    between atoms: C_19  and  C_20
REMARK                            x       y       z     vdW  Elec       q    Type
REMARK                         _______ _______ _______ _____ _____    ______ ____
ROOT
ATOM      1  N   UNL     1       2.423   6.798  18.740  0.00  0.00    +0.000 N 
ATOM      2  C   UNL     1       2.205   8.026  18.182  0.00  0.00    +0.000 A 
ATOM      3  C   UNL     1       1.831   8.841  19.219  0.00  0.00    +0.000 A 
ATOM      4  N   UNL     1       1.738   8.080  20.358  0.00  0.00    +0.000 NA
ATOM      5  N   UNL     1       2.065   6.831  20.048  0.00  0.00    +0.000 NA
ENDROOT
BRANCH   1  14
ATOM      6  C   UNL     1       6.448   6.808  16.906  0.00  0.00    +0.000 A 
ATOM      7  C   UNL     1       6.887   5.610  16.365  0.00  0.00    +0.000 A 
ATOM      8  C   UNL     1       6.057   4.489  16.397  0.00  0.00    +0.000 A 
ATOM      9  C   UNL     1       4.797   4.530  16.968  0.00  0.00    +0.000 A 
ATOM     10  N   UNL     1       4.125   3.369  17.021  0.00  0.00    +0.000 NA
ATOM     11  C   UNL     1       2.923   3.337  17.626  0.00  0.00    +0.000 A 
ATOM     12  C   UNL     1       2.266   1.995  17.767  0.00  0.00    +0.000 C 
ATOM     13  C   UNL     1       2.337   4.465  18.168  0.00  0.00    +0.000 A 
ATOM     14  C   UNL     1       3.036   5.679  18.118  0.00  0.00    +0.000 A 
ATOM     15  C   UNL     1       4.314   5.744  17.510  0.00  0.00    +0.000 A 
ATOM     16  C   UNL     1       5.179   6.870  17.473  0.00  0.00    +0.000 A 
BRANCH   6  18
ATOM     17  C   UNL     1       8.108   8.000  18.079  0.00  0.00    +0.000 C 
ATOM     18  O   UNL     1       7.192   7.952  16.993  0.00  0.00    +0.000 OA
ENDBRANCH   6  18
ENDBRANCH   1  14
BRANCH   3  19
ATOM     19  C   UNL     1       1.632  10.317  19.239  0.00  0.00    +0.000 C 
BRANCH  19  20
ATOM     20  N   UNL     1       0.437  10.749  18.468  0.00  0.00    +0.000 NA
ATOM     21  C   UNL     1      -0.734   9.940  18.841  0.00  0.00    +0.000 C 
ATOM     22  C   UNL     1      -2.071  10.482  18.317  0.00  0.00    +0.000 C 
ATOM     23  C   UNL     1      -2.298  11.973  18.610  0.00  0.00    +0.000 C 
ATOM     24  C   UNL     1      -1.064  12.738  18.114  0.00  0.00    +0.000 C 
ATOM     25  C   UNL     1       0.235  12.190  18.697  0.00  0.00    +0.000 C 
BRANCH  23  26
ATOM     26  C   UNL     1      -2.760  12.351  20.019  0.00  0.00    +0.000 A 
ATOM     27  C   UNL     1      -1.941  12.256  21.153  0.00  0.00    +0.000 A 
ATOM     28  C   UNL     1      -2.452  12.462  22.440  0.00  0.00    +0.000 A 
ATOM     29  C   UNL     1      -3.800  12.750  22.620  0.00  0.00    +0.000 A 
ATOM     30  C   UNL     1      -4.629  12.873  21.512  0.00  0.00    +0.000 A 
ATOM     31  C   UNL     1      -4.112  12.690  20.225  0.00  0.00    +0.000 A 
ENDBRANCH  23  26
ENDBRANCH  19  20
ENDBRANCH   3  19
TORSDOF 5
ENDMDL
