MODEL 1
REMARK VINA RESULT:      -9.1      0.000      0.000
REMARK  Name = 
REMARK  6 active torsions:
REMARK  status: ('A' for Active; 'I' for Inactive)
REMARK    1  A    between atoms: N_5  and  C_6
REMARK    2  A    between atoms: N_15  and  C_16
REMARK    3  A    between atoms: C_16  and  C_17
REMARK    4  A    between atoms: C_17  and  C_18
REMARK    5  A    between atoms: C_19  and  C_20
REMARK    6  A    between atoms: C_19  and  C_27
REMARK                            x       y       z     vdW  Elec       q    Type
REMARK                         _______ _______ _______ _____ _____    ______ ____
ROOT
ATOM      1  O   UNL     1       0.336   2.829  18.791  0.00  0.00    +0.000 OA
ATOM      2  C   UNL     1       1.540   2.763  18.573  0.00  0.00    +0.000 C 
ATOM      3  N   UNL     1       2.193   1.586  18.292  0.00  0.00    +0.000 N 
ATOM      4  C   UNL     1       3.599   1.743  18.128  0.00  0.00    +0.000 C 
ATOM      5  N   UNL     1       3.817   3.184  18.118  0.00  0.00    +0.000 N 
ATOM      6  C   UNL     1       2.585   3.887  18.615  0.00  0.00    +0.000 C 
ATOM      7  C   UNL     1       2.042   5.035  17.771  0.00  0.00    +0.000 C 
ATOM      8  C   UNL     1       2.737   6.364  18.040  0.00  0.00    +0.000 C 
ATOM      9  N   UNL     1       2.913   6.710  19.458  0.00  0.00    +0.000 NA
ATOM     10  C   UNL     1       3.390   5.604  20.299  0.00  0.00    +0.000 C 
ATOM     11  C   UNL     1       2.688   4.279  20.093  0.00  0.00    +0.000 C 
ATOM     12  H   UNL     1       1.704   0.710  18.256  0.00  0.00    +0.000 HD
ENDROOT
BRANCH   5  13
ATOM     13  C   UNL     1       4.820   3.731  17.335  0.00  0.00    +0.000 A 
ATOM     14  C   UNL     1       5.951   4.365  17.868  0.00  0.00    +0.000 A 
ATOM     15  C   UNL     1       6.978   4.874  17.052  0.00  0.00    +0.000 A 
ATOM     16  C   UNL     1       6.923   4.749  15.674  0.00  0.00    +0.000 A 
ATOM     17  C   UNL     1       5.806   4.162  15.107  0.00  0.00    +0.000 A 
ATOM     18  C   UNL     1       4.773   3.709  15.936  0.00  0.00    +0.000 A 
ENDBRANCH   5  13
BRANCH   9  19
ATOM     19  C   UNL     1       1.716   7.369  19.991  0.00  0.00    +0.000 C 
BRANCH  19  20
ATOM     20  C   UNL     1       1.682   8.853  19.605  0.00  0.00    +0.000 C 
BRANCH  20  21
ATOM     21  C   UNL     1       0.409   9.255  18.936  0.00  0.00    +0.000 C 
ATOM     22  C   UNL     1       0.017  10.538  18.793  0.00  0.00    +0.000 C 
BRANCH  22  23
ATOM     23  C   UNL     1       0.891  11.651  19.220  0.00  0.00    +0.000 A 
ATOM     24  C   UNL     1       1.892  12.117  18.356  0.00  0.00    +0.000 A 
ATOM     25  C   UNL     1       2.731  13.163  18.749  0.00  0.00    +0.000 A 
ATOM     26  C   UNL     1       2.569  13.734  20.005  0.00  0.00    +0.000 A 
ATOM     27  F   UNL     1       3.369  14.743  20.378  0.00  0.00    +0.000 F 
ATOM     28  C   UNL     1       1.595  13.273  20.882  0.00  0.00    +0.000 A 
ATOM     29  C   UNL     1       0.755  12.227  20.491  0.00  0.00    +0.000 A 
ENDBRANCH  22  23
BRANCH  22  30
ATOM     30  C   UNL     1      -1.317  10.716  18.210  0.00  0.00    +0.000 A 
ATOM     31  C   UNL     1      -2.142  11.755  18.662  0.00  0.00    +0.000 A 
ATOM     32  C   UNL     1      -3.440  11.871  18.172  0.00  0.00    +0.000 A 
ATOM     33  C   UNL     1      -3.903  10.948  17.241  0.00  0.00    +0.000 A 
ATOM     34  F   UNL     1      -5.159  11.050  16.784  0.00  0.00    +0.000 F 
ATOM     35  C   UNL     1      -3.094   9.912  16.784  0.00  0.00    +0.000 A 
ATOM     36  C   UNL     1      -1.794   9.795  17.270  0.00  0.00    +0.000 A 
ENDBRANCH  22  30
ENDBRANCH  20  21
ENDBRANCH  19  20
ENDBRANCH   9  19
TORSDOF 6
ENDMDL
MODEL 2
REMARK VINA RESULT:      -8.8      4.391     10.054
REMARK  Name = 
REMARK  6 active torsions:
REMARK  status: ('A' for Active; 'I' for Inactive)
REMARK    1  A    between atoms: N_5  and  C_6
REMARK    2  A    between atoms: N_15  and  C_16
REMARK    3  A    between atoms: C_16  and  C_17
REMARK    4  A    between atoms: C_17  and  C_18
REMARK    5  A    between atoms: C_19  and  C_20
REMARK    6  A    between atoms: C_19  and  C_27
REMARK                            x       y       z     vdW  Elec       q    Type
REMARK                         _______ _______ _______ _____ _____    ______ ____
ROOT
ATOM      1  O   UNL     1       2.012  13.828  18.058  0.00  0.00    +0.000 OA
ATOM      2  C   UNL     1       1.370  13.890  19.100  0.00  0.00    +0.000 C 
ATOM      3  N   UNL     1       1.288  15.027  19.869  0.00  0.00    +0.000 N 
ATOM      4  C   UNL     1       0.532  14.850  21.063  0.00  0.00    +0.000 C 
ATOM      5  N   UNL     1      -0.073  13.530  20.932  0.00  0.00    +0.000 N 
ATOM      6  C   UNL     1       0.590  12.777  19.813  0.00  0.00    +0.000 C 
ATOM      7  C   UNL     1      -0.314  12.125  18.772  0.00  0.00    +0.000 C 
ATOM      8  C   UNL     1      -0.835  10.758  19.195  0.00  0.00    +0.000 C 
ATOM      9  N   UNL     1       0.172   9.843  19.754  0.00  0.00    +0.000 NA
ATOM     10  C   UNL     1       1.084  10.463  20.725  0.00  0.00    +0.000 C 
ATOM     11  C   UNL     1       1.660  11.802  20.315  0.00  0.00    +0.000 C 
ATOM     12  H   UNL     1       1.763  15.873  19.610  0.00  0.00    +0.000 HD
ENDROOT
BRANCH   5  13
ATOM     13  C   UNL     1      -1.330  13.286  21.460  0.00  0.00    +0.000 A 
ATOM     14  C   UNL     1      -2.505  13.842  20.936  0.00  0.00    +0.000 A 
ATOM     15  C   UNL     1      -3.775  13.544  21.464  0.00  0.00    +0.000 A 
ATOM     16  C   UNL     1      -3.918  12.662  22.521  0.00  0.00    +0.000 A 
ATOM     17  C   UNL     1      -2.781  12.120  23.091  0.00  0.00    +0.000 A 
ATOM     18  C   UNL     1      -1.525  12.470  22.582  0.00  0.00    +0.000 A 
ENDBRANCH   5  13
BRANCH   9  19
ATOM     19  C   UNL     1       0.867   9.112  18.690  0.00  0.00    +0.000 C 
BRANCH  19  20
ATOM     20  C   UNL     1       1.798   8.040  19.270  0.00  0.00    +0.000 C 
BRANCH  20  21
ATOM     21  C   UNL     1       2.717   7.449  18.252  0.00  0.00    +0.000 C 
ATOM     22  C   UNL     1       3.070   6.147  18.236  0.00  0.00    +0.000 C 
BRANCH  22  23
ATOM     23  C   UNL     1       2.479   5.188  19.193  0.00  0.00    +0.000 A 
ATOM     24  C   UNL     1       1.427   4.356  18.781  0.00  0.00    +0.000 A 
ATOM     25  C   UNL     1       0.854   3.451  19.677  0.00  0.00    +0.000 A 
ATOM     26  C   UNL     1       1.329   3.384  20.981  0.00  0.00    +0.000 A 
ATOM     27  F   UNL     1       0.783   2.509  21.837  0.00  0.00    +0.000 F 
ATOM     28  C   UNL     1       2.357   4.214  21.412  0.00  0.00    +0.000 A 
ATOM     29  C   UNL     1       2.932   5.120  20.518  0.00  0.00    +0.000 A 
ENDBRANCH  22  23
BRANCH  22  30
ATOM     30  C   UNL     1       4.071   5.789  17.225  0.00  0.00    +0.000 A 
ATOM     31  C   UNL     1       4.661   6.792  16.444  0.00  0.00    +0.000 A 
ATOM     32  C   UNL     1       5.544   6.446  15.425  0.00  0.00    +0.000 A 
ATOM     33  C   UNL     1       5.826   5.105  15.193  0.00  0.00    +0.000 A 
ATOM     34  F   UNL     1       6.662   4.773  14.200  0.00  0.00    +0.000 F 
ATOM     35  C   UNL     1       5.248   4.100  15.961  0.00  0.00    +0.000 A 
ATOM     36  C   UNL     1       4.366   4.442  16.983  0.00  0.00    +0.000 A 
ENDBRANCH  22  30
ENDBRANCH  20  21
ENDBRANCH  19  20
ENDBRANCH   9  19
TORSDOF 6
ENDMDL
MODEL 3
REMARK VINA RESULT:      -8.8      4.388     10.086
REMARK  Name = 
REMARK  6 active torsions:
REMARK  status: ('A' for Active; 'I' for Inactive)
REMARK    1  A    between atoms: N_5  and  C_6
REMARK    2  A    between atoms: N_15  and  C_16
REMARK    3  A    between atoms: C_16  and  C_17
REMARK    4  A    between atoms: C_17  and  C_18
REMARK    5  A    between atoms: C_19  and  C_20
REMARK    6  A    between atoms: C_19  and  C_27
REMARK                            x       y       z     vdW  Elec       q    Type
REMARK                         _______ _______ _______ _____ _____    ______ ____
ROOT
ATOM      1  O   UNL     1       2.119  13.943  18.163  0.00  0.00    +0.000 OA
ATOM      2  C   UNL     1       1.430  13.961  19.176  0.00  0.00    +0.000 C 
ATOM      3  N   UNL     1       1.279  15.076  19.966  0.00  0.00    +0.000 N 
ATOM      4  C   UNL     1       0.477  14.849  21.120  0.00  0.00    +0.000 C 
ATOM      5  N   UNL     1      -0.082  13.515  20.932  0.00  0.00    +0.000 N 
ATOM      6  C   UNL     1       0.653  12.809  19.827  0.00  0.00    +0.000 C 
ATOM      7  C   UNL     1      -0.183  12.156  18.732  0.00  0.00    +0.000 C 
ATOM      8  C   UNL     1      -0.681  10.764  19.101  0.00  0.00    +0.000 C 
ATOM      9  N   UNL     1       0.328   9.866  19.684  0.00  0.00    +0.000 NA
ATOM     10  C   UNL     1       1.176  10.489  20.708  0.00  0.00    +0.000 C 
ATOM     11  C   UNL     1       1.729  11.853  20.355  0.00  0.00    +0.000 C 
ATOM     12  H   UNL     1       1.740  15.941  19.748  0.00  0.00    +0.000 HD
ENDROOT
BRANCH   5  13
ATOM     13  C   UNL     1      -1.353  13.221  21.398  0.00  0.00    +0.000 A 
ATOM     14  C   UNL     1      -1.591  12.496  22.574  0.00  0.00    +0.000 A 
ATOM     15  C   UNL     1      -2.891  12.248  23.050  0.00  0.00    +0.000 A 
ATOM     16  C   UNL     1      -4.001  12.734  22.379  0.00  0.00    +0.000 A 
ATOM     17  C   UNL     1      -3.811  13.422  21.195  0.00  0.00    +0.000 A 
ATOM     18  C   UNL     1      -2.510  13.613  20.714  0.00  0.00    +0.000 A 
ENDBRANCH   5  13
BRANCH   9  19
ATOM     19  C   UNL     1       1.091   9.181  18.635  0.00  0.00    +0.000 C 
BRANCH  19  20
ATOM     20  C   UNL     1       1.950   8.054  19.221  0.00  0.00    +0.000 C 
BRANCH  20  21
ATOM     21  C   UNL     1       2.884   7.451  18.225  0.00  0.00    +0.000 C 
ATOM     22  C   UNL     1       3.187   6.136  18.190  0.00  0.00    +0.000 C 
BRANCH  22  23
ATOM     23  C   UNL     1       2.522   5.180  19.101  0.00  0.00    +0.000 A 
ATOM     24  C   UNL     1       2.943   5.087  20.436  0.00  0.00    +0.000 A 
ATOM     25  C   UNL     1       2.329   4.183  21.305  0.00  0.00    +0.000 A 
ATOM     26  C   UNL     1       1.302   3.373  20.837  0.00  0.00    +0.000 A 
ATOM     27  F   UNL     1       0.708   2.511  21.674  0.00  0.00    +0.000 F 
ATOM     28  C   UNL     1       0.884   3.439  19.513  0.00  0.00    +0.000 A 
ATOM     29  C   UNL     1       1.497   4.342  18.641  0.00  0.00    +0.000 A 
ENDBRANCH  22  23
BRANCH  22  30
ATOM     30  C   UNL     1       4.211   5.763  17.209  0.00  0.00    +0.000 A 
ATOM     31  C   UNL     1       4.661   6.709  16.278  0.00  0.00    +0.000 A 
ATOM     32  C   UNL     1       5.567   6.331  15.291  0.00  0.00    +0.000 A 
ATOM     33  C   UNL     1       6.012   5.014  15.240  0.00  0.00    +0.000 A 
ATOM     34  F   UNL     1       6.870   4.648  14.279  0.00  0.00    +0.000 F 
ATOM     35  C   UNL     1       5.573   4.066  16.159  0.00  0.00    +0.000 A 
ATOM     36  C   UNL     1       4.668   4.441  17.149  0.00  0.00    +0.000 A 
ENDBRANCH  22  30
ENDBRANCH  20  21
ENDBRANCH  19  20
ENDBRANCH   9  19
TORSDOF 6
ENDMDL
MODEL 4
REMARK VINA RESULT:      -8.7      3.997      9.338
REMARK  Name = 
REMARK  6 active torsions:
REMARK  status: ('A' for Active; 'I' for Inactive)
REMARK    1  A    between atoms: N_5  and  C_6
REMARK    2  A    between atoms: N_15  and  C_16
REMARK    3  A    between atoms: C_16  and  C_17
REMARK    4  A    between atoms: C_17  and  C_18
REMARK    5  A    between atoms: C_19  and  C_20
REMARK    6  A    between atoms: C_19  and  C_27
REMARK                            x       y       z     vdW  Elec       q    Type
REMARK                         _______ _______ _______ _____ _____    ______ ____
ROOT
ATOM      1  O   UNL     1      -0.403   8.999  22.612  0.00  0.00    +0.000 OA
ATOM      2  C   UNL     1      -0.545  10.157  22.239  0.00  0.00    +0.000 C 
ATOM      3  N   UNL     1      -1.147  11.128  23.004  0.00  0.00    +0.000 N 
ATOM      4  C   UNL     1      -1.250  12.386  22.346  0.00  0.00    +0.000 C 
ATOM      5  N   UNL     1      -0.467  12.236  21.125  0.00  0.00    +0.000 N 
ATOM      6  C   UNL     1      -0.172  10.781  20.887  0.00  0.00    +0.000 C 
ATOM      7  C   UNL     1       1.274  10.395  20.598  0.00  0.00    +0.000 C 
ATOM      8  C   UNL     1       1.665  10.568  19.136  0.00  0.00    +0.000 C 
ATOM      9  N   UNL     1       0.706  10.032  18.157  0.00  0.00    +0.000 NA
ATOM     10  C   UNL     1      -0.698  10.353  18.444  0.00  0.00    +0.000 C 
ATOM     11  C   UNL     1      -1.135  10.146  19.878  0.00  0.00    +0.000 C 
ATOM     12  H   UNL     1      -1.509  10.927  23.919  0.00  0.00    +0.000 HD
ENDROOT
BRANCH   5  13
ATOM     13  C   UNL     1       0.233  13.315  20.611  0.00  0.00    +0.000 A 
ATOM     14  C   UNL     1       1.288  13.940  21.290  0.00  0.00    +0.000 A 
ATOM     15  C   UNL     1       2.013  15.007  20.728  0.00  0.00    +0.000 A 
ATOM     16  C   UNL     1       1.724  15.474  19.456  0.00  0.00    +0.000 A 
ATOM     17  C   UNL     1       0.666  14.908  18.767  0.00  0.00    +0.000 A 
ATOM     18  C   UNL     1      -0.073  13.882  19.368  0.00  0.00    +0.000 A 
ENDBRANCH   5  13
BRANCH   9  19
ATOM     19  C   UNL     1       0.939   8.603  17.922  0.00  0.00    +0.000 C 
BRANCH  19  20
ATOM     20  C   UNL     1       2.216   8.126  18.624  0.00  0.00    +0.000 C 
BRANCH  20  21
ATOM     21  C   UNL     1       3.151   7.402  17.713  0.00  0.00    +0.000 C 
ATOM     22  C   UNL     1       3.405   6.080  17.805  0.00  0.00    +0.000 C 
BRANCH  22  23
ATOM     23  C   UNL     1       2.684   5.235  18.779  0.00  0.00    +0.000 A 
ATOM     24  C   UNL     1       3.060   5.259  20.131  0.00  0.00    +0.000 A 
ATOM     25  C   UNL     1       2.392   4.460  21.061  0.00  0.00    +0.000 A 
ATOM     26  C   UNL     1       1.356   3.637  20.638  0.00  0.00    +0.000 A 
ATOM     27  F   UNL     1       0.710   2.877  21.534  0.00  0.00    +0.000 F 
ATOM     28  C   UNL     1       0.982   3.587  19.301  0.00  0.00    +0.000 A 
ATOM     29  C   UNL     1       1.648   4.384  18.368  0.00  0.00    +0.000 A 
ENDBRANCH  22  23
BRANCH  22  30
ATOM     30  C   UNL     1       4.438   5.584  16.890  0.00  0.00    +0.000 A 
ATOM     31  C   UNL     1       5.052   6.464  15.989  0.00  0.00    +0.000 A 
ATOM     32  C   UNL     1       5.968   5.976  15.060  0.00  0.00    +0.000 A 
ATOM     33  C   UNL     1       6.258   4.617  15.037  0.00  0.00    +0.000 A 
ATOM     34  F   UNL     1       7.126   4.147  14.131  0.00  0.00    +0.000 F 
ATOM     35  C   UNL     1       5.657   3.732  15.927  0.00  0.00    +0.000 A 
ATOM     36  C   UNL     1       4.742   4.217  16.859  0.00  0.00    +0.000 A 
ENDBRANCH  22  30
ENDBRANCH  20  21
ENDBRANCH  19  20
ENDBRANCH   9  19
TORSDOF 6
ENDMDL
MODEL 5
REMARK VINA RESULT:      -8.6      1.851      2.379
REMARK  Name = 
REMARK  6 active torsions:
REMARK  status: ('A' for Active; 'I' for Inactive)
REMARK    1  A    between atoms: N_5  and  C_6
REMARK    2  A    between atoms: N_15  and  C_16
REMARK    3  A    between atoms: C_16  and  C_17
REMARK    4  A    between atoms: C_17  and  C_18
REMARK    5  A    between atoms: C_19  and  C_20
REMARK    6  A    between atoms: C_19  and  C_27
REMARK                            x       y       z     vdW  Elec       q    Type
REMARK                         _______ _______ _______ _____ _____    ______ ____
ROOT
ATOM      1  O   UNL     1       0.624   4.251  17.202  0.00  0.00    +0.000 OA
ATOM      2  C   UNL     1       1.809   4.137  17.492  0.00  0.00    +0.000 C 
ATOM      3  N   UNL     1       2.607   3.121  17.021  0.00  0.00    +0.000 N 
ATOM      4  C   UNL     1       3.935   3.159  17.535  0.00  0.00    +0.000 C 
ATOM      5  N   UNL     1       4.026   4.429  18.245  0.00  0.00    +0.000 N 
ATOM      6  C   UNL     1       2.650   4.999  18.444  0.00  0.00    +0.000 C 
ATOM      7  C   UNL     1       2.427   6.454  18.047  0.00  0.00    +0.000 C 
ATOM      8  C   UNL     1       2.841   7.446  19.126  0.00  0.00    +0.000 C 
ATOM      9  N   UNL     1       2.376   7.131  20.485  0.00  0.00    +0.000 NA
ATOM     10  C   UNL     1       2.537   5.723  20.872  0.00  0.00    +0.000 C 
ATOM     11  C   UNL     1       2.090   4.709  19.841  0.00  0.00    +0.000 C 
ATOM     12  H   UNL     1       2.248   2.411  16.410  0.00  0.00    +0.000 HD
ENDROOT
BRANCH   5  13
ATOM     13  C   UNL     1       5.221   5.129  18.267  0.00  0.00    +0.000 A 
ATOM     14  C   UNL     1       6.085   5.138  19.371  0.00  0.00    +0.000 A 
ATOM     15  C   UNL     1       7.315   5.822  19.354  0.00  0.00    +0.000 A 
ATOM     16  C   UNL     1       7.735   6.505  18.224  0.00  0.00    +0.000 A 
ATOM     17  C   UNL     1       6.894   6.552  17.127  0.00  0.00    +0.000 A 
ATOM     18  C   UNL     1       5.654   5.906  17.186  0.00  0.00    +0.000 A 
ENDBRANCH   5  13
BRANCH   9  19
ATOM     19  C   UNL     1       1.019   7.642  20.709  0.00  0.00    +0.000 C 
BRANCH  19  20
ATOM     20  C   UNL     1       0.935   9.143  20.405  0.00  0.00    +0.000 C 
BRANCH  20  21
ATOM     21  C   UNL     1      -0.062   9.471  19.343  0.00  0.00    +0.000 C 
ATOM     22  C   UNL     1      -0.933  10.498  19.431  0.00  0.00    +0.000 C 
BRANCH  22  23
ATOM     23  C   UNL     1      -0.885  11.437  20.572  0.00  0.00    +0.000 A 
ATOM     24  C   UNL     1      -0.230  12.669  20.429  0.00  0.00    +0.000 A 
ATOM     25  C   UNL     1      -0.171  13.563  21.500  0.00  0.00    +0.000 A 
ATOM     26  C   UNL     1      -0.760  13.220  22.711  0.00  0.00    +0.000 A 
ATOM     27  F   UNL     1      -0.709  14.082  23.736  0.00  0.00    +0.000 F 
ATOM     28  C   UNL     1      -1.396  11.997  22.877  0.00  0.00    +0.000 A 
ATOM     29  C   UNL     1      -1.457  11.100  21.807  0.00  0.00    +0.000 A 
ENDBRANCH  22  23
BRANCH  22  30
ATOM     30  C   UNL     1      -1.904  10.582  18.336  0.00  0.00    +0.000 A 
ATOM     31  C   UNL     1      -1.690   9.854  17.158  0.00  0.00    +0.000 A 
ATOM     32  C   UNL     1      -2.565  10.002  16.085  0.00  0.00    +0.000 A 
ATOM     33  C   UNL     1      -3.640  10.875  16.196  0.00  0.00    +0.000 A 
ATOM     34  F   UNL     1      -4.471  11.030  15.156  0.00  0.00    +0.000 F 
ATOM     35  C   UNL     1      -3.865  11.603  17.361  0.00  0.00    +0.000 A 
ATOM     36  C   UNL     1      -2.993  11.456  18.437  0.00  0.00    +0.000 A 
ENDBRANCH  22  30
ENDBRANCH  20  21
ENDBRANCH  19  20
ENDBRANCH   9  19
TORSDOF 6
ENDMDL
MODEL 6
REMARK VINA RESULT:      -8.6      2.010      2.443
REMARK  Name = 
REMARK  6 active torsions:
REMARK  status: ('A' for Active; 'I' for Inactive)
REMARK    1  A    between atoms: N_5  and  C_6
REMARK    2  A    between atoms: N_15  and  C_16
REMARK    3  A    between atoms: C_16  and  C_17
REMARK    4  A    between atoms: C_17  and  C_18
REMARK    5  A    between atoms: C_19  and  C_20
REMARK    6  A    between atoms: C_19  and  C_27
REMARK                            x       y       z     vdW  Elec       q    Type
REMARK                         _______ _______ _______ _____ _____    ______ ____
ROOT
ATOM      1  O   UNL     1       0.067   2.886  18.821  0.00  0.00    +0.000 OA
ATOM      2  C   UNL     1       1.286   2.820  18.716  0.00  0.00    +0.000 C 
ATOM      3  N   UNL     1       1.962   1.645  18.488  0.00  0.00    +0.000 N 
ATOM      4  C   UNL     1       3.377   1.800  18.458  0.00  0.00    +0.000 C 
ATOM      5  N   UNL     1       3.596   3.241  18.478  0.00  0.00    +0.000 N 
ATOM      6  C   UNL     1       2.323   3.943  18.862  0.00  0.00    +0.000 C 
ATOM      7  C   UNL     1       1.863   5.097  17.979  0.00  0.00    +0.000 C 
ATOM      8  C   UNL     1       2.531   6.423  18.320  0.00  0.00    +0.000 C 
ATOM      9  N   UNL     1       2.573   6.760  19.751  0.00  0.00    +0.000 NA
ATOM     10  C   UNL     1       2.969   5.647  20.625  0.00  0.00    +0.000 C 
ATOM     11  C   UNL     1       2.288   4.325  20.346  0.00  0.00    +0.000 C 
ATOM     12  H   UNL     1       1.478   0.769  18.401  0.00  0.00    +0.000 HD
ENDROOT
BRANCH   5  13
ATOM     13  C   UNL     1       4.668   3.792  17.796  0.00  0.00    +0.000 A 
ATOM     14  C   UNL     1       5.732   4.445  18.435  0.00  0.00    +0.000 A 
ATOM     15  C   UNL     1       6.832   4.958  17.723  0.00  0.00    +0.000 A 
ATOM     16  C   UNL     1       6.919   4.817  16.348  0.00  0.00    +0.000 A 
ATOM     17  C   UNL     1       5.873   4.212  15.676  0.00  0.00    +0.000 A 
ATOM     18  C   UNL     1       4.766   3.755  16.399  0.00  0.00    +0.000 A 
ENDBRANCH   5  13
BRANCH   9  19
ATOM     19  C   UNL     1       1.332   7.417  20.174  0.00  0.00    +0.000 C 
BRANCH  19  20
ATOM     20  C   UNL     1       1.416   8.936  19.982  0.00  0.00    +0.000 C 
BRANCH  20  21
ATOM     21  C   UNL     1       0.266   9.668  20.590  0.00  0.00    +0.000 C 
ATOM     22  C   UNL     1       0.166  11.013  20.609  0.00  0.00    +0.000 C 
BRANCH  22  23
ATOM     23  C   UNL     1       1.170  11.858  19.928  0.00  0.00    +0.000 A 
ATOM     24  C   UNL     1       1.475  11.623  18.579  0.00  0.00    +0.000 A 
ATOM     25  C   UNL     1       2.427  12.408  17.926  0.00  0.00    +0.000 A 
ATOM     26  C   UNL     1       3.075  13.421  18.623  0.00  0.00    +0.000 A 
ATOM     27  F   UNL     1       3.982  14.179  17.992  0.00  0.00    +0.000 F 
ATOM     28  C   UNL     1       2.799  13.656  19.965  0.00  0.00    +0.000 A 
ATOM     29  C   UNL     1       1.848  12.871  20.621  0.00  0.00    +0.000 A 
ENDBRANCH  22  23
BRANCH  22  30
ATOM     30  C   UNL     1      -0.983  11.539  21.353  0.00  0.00    +0.000 A 
ATOM     31  C   UNL     1      -1.142  11.217  22.707  0.00  0.00    +0.000 A 
ATOM     32  C   UNL     1      -2.277  11.642  23.391  0.00  0.00    +0.000 A 
ATOM     33  C   UNL     1      -3.244  12.379  22.717  0.00  0.00    +0.000 A 
ATOM     34  F   UNL     1      -4.346  12.771  23.372  0.00  0.00    +0.000 F 
ATOM     35  C   UNL     1      -3.099  12.706  21.373  0.00  0.00    +0.000 A 
ATOM     36  C   UNL     1      -1.962  12.284  20.686  0.00  0.00    +0.000 A 
ENDBRANCH  22  30
ENDBRANCH  20  21
ENDBRANCH  19  20
ENDBRANCH   9  19
TORSDOF 6
ENDMDL
MODEL 7
REMARK VINA RESULT:      -8.5      4.018      9.386
REMARK  Name = 
REMARK  6 active torsions:
REMARK  status: ('A' for Active; 'I' for Inactive)
REMARK    1  A    between atoms: N_5  and  C_6
REMARK    2  A    between atoms: N_15  and  C_16
REMARK    3  A    between atoms: C_16  and  C_17
REMARK    4  A    between atoms: C_17  and  C_18
REMARK    5  A    between atoms: C_19  and  C_20
REMARK    6  A    between atoms: C_19  and  C_27
REMARK                            x       y       z     vdW  Elec       q    Type
REMARK                         _______ _______ _______ _____ _____    ______ ____
ROOT
ATOM      1  O   UNL     1      -0.646   9.208  22.648  0.00  0.00    +0.000 OA
ATOM      2  C   UNL     1      -0.695  10.366  22.251  0.00  0.00    +0.000 C 
ATOM      3  N   UNL     1      -1.274  11.386  22.967  0.00  0.00    +0.000 N 
ATOM      4  C   UNL     1      -1.264  12.636  22.285  0.00  0.00    +0.000 C 
ATOM      5  N   UNL     1      -0.429  12.415  21.111  0.00  0.00    +0.000 N 
ATOM      6  C   UNL     1      -0.214  10.941  20.911  0.00  0.00    +0.000 C 
ATOM      7  C   UNL     1       1.218  10.461  20.704  0.00  0.00    +0.000 C 
ATOM      8  C   UNL     1       1.695  10.582  19.263  0.00  0.00    +0.000 C 
ATOM      9  N   UNL     1       0.758  10.088  18.243  0.00  0.00    +0.000 NA
ATOM     10  C   UNL     1      -0.637  10.500  18.450  0.00  0.00    +0.000 C 
ATOM     11  C   UNL     1      -1.160  10.347  19.862  0.00  0.00    +0.000 C 
ATOM     12  H   UNL     1      -1.696  11.225  23.864  0.00  0.00    +0.000 HD
ENDROOT
BRANCH   5  13
ATOM     13  C   UNL     1       0.364  13.439  20.618  0.00  0.00    +0.000 A 
ATOM     14  C   UNL     1       1.359  14.072  21.376  0.00  0.00    +0.000 A 
ATOM     15  C   UNL     1       2.181  15.080  20.838  0.00  0.00    +0.000 A 
ATOM     16  C   UNL     1       2.052  15.477  19.518  0.00  0.00    +0.000 A 
ATOM     17  C   UNL     1       1.057  14.904  18.748  0.00  0.00    +0.000 A 
ATOM     18  C   UNL     1       0.218  13.939  19.318  0.00  0.00    +0.000 A 
ENDBRANCH   5  13
BRANCH   9  19
ATOM     19  C   UNL     1       0.912   8.644  18.042  0.00  0.00    +0.000 C 
BRANCH  19  20
ATOM     20  C   UNL     1       2.178   8.120  18.731  0.00  0.00    +0.000 C 
BRANCH  20  21
ATOM     21  C   UNL     1       3.110   7.424  17.794  0.00  0.00    +0.000 C 
ATOM     22  C   UNL     1       3.382   6.104  17.860  0.00  0.00    +0.000 C 
BRANCH  22  23
ATOM     23  C   UNL     1       2.684   5.233  18.830  0.00  0.00    +0.000 A 
ATOM     24  C   UNL     1       1.658   4.385  18.387  0.00  0.00    +0.000 A 
ATOM     25  C   UNL     1       0.985   3.562  19.293  0.00  0.00    +0.000 A 
ATOM     26  C   UNL     1       1.337   3.594  20.637  0.00  0.00    +0.000 A 
ATOM     27  F   UNL     1       0.696   2.797  21.504  0.00  0.00    +0.000 F 
ATOM     28  C   UNL     1       2.338   4.440  21.096  0.00  0.00    +0.000 A 
ATOM     29  C   UNL     1       3.012   5.265  20.193  0.00  0.00    +0.000 A 
ENDBRANCH  22  23
BRANCH  22  30
ATOM     30  C   UNL     1       4.408   5.637  16.923  0.00  0.00    +0.000 A 
ATOM     31  C   UNL     1       4.883   4.321  17.010  0.00  0.00    +0.000 A 
ATOM     32  C   UNL     1       5.919   3.903  16.179  0.00  0.00    +0.000 A 
ATOM     33  C   UNL     1       6.473   4.802  15.274  0.00  0.00    +0.000 A 
ATOM     34  F   UNL     1       7.483   4.403  14.488  0.00  0.00    +0.000 F 
ATOM     35  C   UNL     1       6.011   6.110  15.177  0.00  0.00    +0.000 A 
ATOM     36  C   UNL     1       4.972   6.531  16.005  0.00  0.00    +0.000 A 
ENDBRANCH  22  30
ENDBRANCH  20  21
ENDBRANCH  19  20
ENDBRANCH   9  19
TORSDOF 6
ENDMDL
MODEL 8
REMARK VINA RESULT:      -8.5      0.726      1.317
REMARK  Name = 
REMARK  6 active torsions:
REMARK  status: ('A' for Active; 'I' for Inactive)
REMARK    1  A    between atoms: N_5  and  C_6
REMARK    2  A    between atoms: N_15  and  C_16
REMARK    3  A    between atoms: C_16  and  C_17
REMARK    4  A    between atoms: C_17  and  C_18
REMARK    5  A    between atoms: C_19  and  C_20
REMARK    6  A    between atoms: C_19  and  C_27
REMARK                            x       y       z     vdW  Elec       q    Type
REMARK                         _______ _______ _______ _____ _____    ______ ____
ROOT
ATOM      1  O   UNL     1       0.432   3.217  19.273  0.00  0.00    +0.000 OA
ATOM      2  C   UNL     1       1.643   3.137  19.104  0.00  0.00    +0.000 C 
ATOM      3  N   UNL     1       2.332   1.947  19.136  0.00  0.00    +0.000 N 
ATOM      4  C   UNL     1       3.738   2.101  18.969  0.00  0.00    +0.000 C 
ATOM      5  N   UNL     1       3.922   3.502  18.609  0.00  0.00    +0.000 N 
ATOM      6  C   UNL     1       2.659   4.268  18.890  0.00  0.00    +0.000 C 
ATOM      7  C   UNL     1       2.114   5.156  17.777  0.00  0.00    +0.000 C 
ATOM      8  C   UNL     1       2.768   6.530  17.725  0.00  0.00    +0.000 C 
ATOM      9  N   UNL     1       2.895   7.219  19.018  0.00  0.00    +0.000 NA
ATOM     10  C   UNL     1       3.374   6.369  20.116  0.00  0.00    +0.000 C 
ATOM     11  C   UNL     1       2.710   5.013  20.228  0.00  0.00    +0.000 C 
ATOM     12  H   UNL     1       1.866   1.074  19.306  0.00  0.00    +0.000 HD
ENDROOT
BRANCH   5  13
ATOM     13  C   UNL     1       4.933   3.869  17.737  0.00  0.00    +0.000 A 
ATOM     14  C   UNL     1       6.107   4.514  18.151  0.00  0.00    +0.000 A 
ATOM     15  C   UNL     1       7.140   4.838  17.252  0.00  0.00    +0.000 A 
ATOM     16  C   UNL     1       7.047   4.510  15.910  0.00  0.00    +0.000 A 
ATOM     17  C   UNL     1       5.889   3.906  15.455  0.00  0.00    +0.000 A 
ATOM     18  C   UNL     1       4.854   3.640  16.358  0.00  0.00    +0.000 A 
ENDBRANCH   5  13
BRANCH   9  19
ATOM     19  C   UNL     1       1.668   7.953  19.346  0.00  0.00    +0.000 C 
BRANCH  19  20
ATOM     20  C   UNL     1       1.581   9.267  18.560  0.00  0.00    +0.000 C 
BRANCH  20  21
ATOM     21  C   UNL     1       0.187   9.615  18.153  0.00  0.00    +0.000 C 
ATOM     22  C   UNL     1      -0.400  10.795  18.444  0.00  0.00    +0.000 C 
BRANCH  22  23
ATOM     23  C   UNL     1       0.355  11.872  19.119  0.00  0.00    +0.000 A 
ATOM     24  C   UNL     1       0.433  11.893  20.519  0.00  0.00    +0.000 A 
ATOM     25  C   UNL     1       1.136  12.908  21.170  0.00  0.00    +0.000 A 
ATOM     26  C   UNL     1       1.754  13.902  20.420  0.00  0.00    +0.000 A 
ATOM     27  F   UNL     1       2.436  14.872  21.045  0.00  0.00    +0.000 F 
ATOM     28  C   UNL     1       1.672  13.908  19.033  0.00  0.00    +0.000 A 
ATOM     29  C   UNL     1       0.968  12.893  18.379  0.00  0.00    +0.000 A 
ENDBRANCH  22  23
BRANCH  22  30
ATOM     30  C   UNL     1      -1.810  10.897  18.055  0.00  0.00    +0.000 A 
ATOM     31  C   UNL     1      -2.238  10.352  16.837  0.00  0.00    +0.000 A 
ATOM     32  C   UNL     1      -3.557  10.525  16.427  0.00  0.00    +0.000 A 
ATOM     33  C   UNL     1      -4.434  11.243  17.232  0.00  0.00    +0.000 A 
ATOM     34  F   UNL     1      -5.698  11.424  16.827  0.00  0.00    +0.000 F 
ATOM     35  C   UNL     1      -4.022  11.788  18.444  0.00  0.00    +0.000 A 
ATOM     36  C   UNL     1      -2.704  11.614  18.859  0.00  0.00    +0.000 A 
ENDBRANCH  22  30
ENDBRANCH  20  21
ENDBRANCH  19  20
ENDBRANCH   9  19
TORSDOF 6
ENDMDL
MODEL 9
REMARK VINA RESULT:      -8.4      1.065      1.693
REMARK  Name = 
REMARK  6 active torsions:
REMARK  status: ('A' for Active; 'I' for Inactive)
REMARK    1  A    between atoms: N_5  and  C_6
REMARK    2  A    between atoms: N_15  and  C_16
REMARK    3  A    between atoms: C_16  and  C_17
REMARK    4  A    between atoms: C_17  and  C_18
REMARK    5  A    between atoms: C_19  and  C_20
REMARK    6  A    between atoms: C_19  and  C_27
REMARK                            x       y       z     vdW  Elec       q    Type
REMARK                         _______ _______ _______ _____ _____    ______ ____
ROOT
ATOM      1  O   UNL     1       0.516   3.788  17.576  0.00  0.00    +0.000 OA
ATOM      2  C   UNL     1       1.677   3.638  17.939  0.00  0.00    +0.000 C 
ATOM      3  N   UNL     1       2.319   2.422  17.931  0.00  0.00    +0.000 N 
ATOM      4  C   UNL     1       3.645   2.477  18.448  0.00  0.00    +0.000 C 
ATOM      5  N   UNL     1       3.922   3.899  18.616  0.00  0.00    +0.000 N 
ATOM      6  C   UNL     1       2.642   4.680  18.520  0.00  0.00    +0.000 C 
ATOM      7  C   UNL     1       2.621   5.882  17.582  0.00  0.00    +0.000 C 
ATOM      8  C   UNL     1       3.183   7.150  18.212  0.00  0.00    +0.000 C 
ATOM      9  N   UNL     1       2.695   7.453  19.566  0.00  0.00    +0.000 NA
ATOM     10  C   UNL     1       2.662   6.298  20.473  0.00  0.00    +0.000 C 
ATOM     11  C   UNL     1       2.065   5.033  19.895  0.00  0.00    +0.000 C 
ATOM     12  H   UNL     1       1.856   1.585  17.627  0.00  0.00    +0.000 HD
ENDROOT
BRANCH   5  13
ATOM     13  C   UNL     1       5.203   4.385  18.419  0.00  0.00    +0.000 A 
ATOM     14  C   UNL     1       5.906   4.232  17.215  0.00  0.00    +0.000 A 
ATOM     15  C   UNL     1       7.190   4.774  17.023  0.00  0.00    +0.000 A 
ATOM     16  C   UNL     1       7.811   5.508  18.020  0.00  0.00    +0.000 A 
ATOM     17  C   UNL     1       7.167   5.651  19.236  0.00  0.00    +0.000 A 
ATOM     18  C   UNL     1       5.912   5.060  19.421  0.00  0.00    +0.000 A 
ENDBRANCH   5  13
BRANCH   9  19
ATOM     19  C   UNL     1       1.427   8.188  19.516  0.00  0.00    +0.000 C 
BRANCH  19  20
ATOM     20  C   UNL     1       1.427   9.218  18.380  0.00  0.00    +0.000 C 
BRANCH  20  21
ATOM     21  C   UNL     1       0.054   9.614  17.948  0.00  0.00    +0.000 C 
ATOM     22  C   UNL     1      -0.573  10.725  18.389  0.00  0.00    +0.000 C 
BRANCH  22  23
ATOM     23  C   UNL     1       0.118  11.684  19.276  0.00  0.00    +0.000 A 
ATOM     24  C   UNL     1       0.949  12.668  18.720  0.00  0.00    +0.000 A 
ATOM     25  C   UNL     1       1.614  13.577  19.546  0.00  0.00    +0.000 A 
ATOM     26  C   UNL     1       1.451  13.495  20.924  0.00  0.00    +0.000 A 
ATOM     27  F   UNL     1       2.084  14.373  21.715  0.00  0.00    +0.000 F 
ATOM     28  C   UNL     1       0.647  12.516  21.493  0.00  0.00    +0.000 A 
ATOM     29  C   UNL     1      -0.019  11.606  20.669  0.00  0.00    +0.000 A 
ENDBRANCH  22  23
BRANCH  22  30
ATOM     30  C   UNL     1      -1.959  10.876  17.934  0.00  0.00    +0.000 A 
ATOM     31  C   UNL     1      -2.348  10.341  16.698  0.00  0.00    +0.000 A 
ATOM     32  C   UNL     1      -3.639  10.561  16.226  0.00  0.00    +0.000 A 
ATOM     33  C   UNL     1      -4.526  11.312  16.987  0.00  0.00    +0.000 A 
ATOM     34  F   UNL     1      -5.763  11.537  16.523  0.00  0.00    +0.000 F 
ATOM     35  C   UNL     1      -4.153  11.847  18.216  0.00  0.00    +0.000 A 
ATOM     36  C   UNL     1      -2.863  11.628  18.693  0.00  0.00    +0.000 A 
ENDBRANCH  22  30
ENDBRANCH  20  21
ENDBRANCH  19  20
ENDBRANCH   9  19
TORSDOF 6
ENDMDL
