MODEL 1
REMARK VINA RESULT:      -8.4      0.000      0.000
REMARK  Name = 
REMARK  8 active torsions:
REMARK  status: ('A' for Active; 'I' for Inactive)
REMARK    1  A    between atoms: C_1  and  O_2
REMARK    2  A    between atoms: O_2  and  C_3
REMARK    3  A    between atoms: C_6  and  N_7
REMARK    4  A    between atoms: C_9  and  C_10
REMARK    5  A    between atoms: C_15  and  C_16
REMARK    6  A    between atoms: C_16  and  C_18
REMARK    7  A    between atoms: C_18  and  C_19
REMARK    8  A    between atoms: C_22  and  N_23
REMARK                            x       y       z     vdW  Elec       q    Type
REMARK                         _______ _______ _______ _____ _____    ______ ____
ROOT
ATOM      1  N   UNL     1      -0.757  12.021  18.387  0.00  0.00    +0.000 N 
ATOM      2  N   UNL     1      -1.710  12.112  17.420  0.00  0.00    +0.000 NA
ATOM      3  C   UNL     1      -2.085  10.847  17.172  0.00  0.00    +0.000 A 
ATOM      4  C   UNL     1      -1.464   9.962  18.089  0.00  0.00    +0.000 A 
ATOM      5  C   UNL     1      -0.694  10.750  18.931  0.00  0.00    +0.000 A 
ENDROOT
BRANCH   1   9
ATOM      6  C   UNL     1       1.578  15.446  19.141  0.00  0.00    +0.000 A 
ATOM      7  C   UNL     1       0.230  15.414  19.512  0.00  0.00    +0.000 A 
ATOM      8  C   UNL     1      -0.545  14.276  19.279  0.00  0.00    +0.000 A 
ATOM      9  C   UNL     1       0.039  13.158  18.676  0.00  0.00    +0.000 A 
ATOM     10  C   UNL     1       1.389  13.190  18.304  0.00  0.00    +0.000 A 
ATOM     11  C   UNL     1       2.154  14.331  18.534  0.00  0.00    +0.000 A 
BRANCH   6  13
ATOM     12  C   UNL     1       1.946  17.239  20.626  0.00  0.00    +0.000 C 
ATOM     13  O   UNL     1       2.220  16.631  19.369  0.00  0.00    +0.000 OA
ENDBRANCH   6  13
ENDBRANCH   1   9
BRANCH   3  14
ATOM     14  C   UNL     1      -3.091  10.466  16.110  0.00  0.00    +0.000 C 
ATOM     15  F   UNL     1      -3.221   9.126  15.927  0.00  0.00    +0.000 F 
ATOM     16  F   UNL     1      -4.332  10.945  16.400  0.00  0.00    +0.000 F 
ATOM     17  F   UNL     1      -2.751  10.994  14.902  0.00  0.00    +0.000 F 
ENDBRANCH   3  14
BRANCH   5  18
ATOM     18  C   UNL     1      -0.034  10.405  20.184  0.00  0.00    +0.000 C 
ATOM     19  O   UNL     1      -0.606  10.341  21.269  0.00  0.00    +0.000 OA
BRANCH  18  20
ATOM     20  C   UNL     1       1.428  10.018  20.133  0.00  0.00    +0.000 C 
BRANCH  20  21
ATOM     21  C   UNL     1       1.682   8.587  19.752  0.00  0.00    +0.000 A 
ATOM     22  C   UNL     1       2.123   8.231  18.468  0.00  0.00    +0.000 A 
ATOM     23  C   UNL     1       2.467   6.906  18.186  0.00  0.00    +0.000 A 
ATOM     24  C   UNL     1       2.329   5.908  19.163  0.00  0.00    +0.000 A 
ATOM     25  C   UNL     1       1.842   6.245  20.424  0.00  0.00    +0.000 A 
ATOM     26  C   UNL     1       1.546   7.576  20.710  0.00  0.00    +0.000 A 
ATOM     27  F   UNL     1       1.151   7.896  21.950  0.00  0.00    +0.000 F 
BRANCH  24  28
ATOM     28  N   UNL     1       2.721   4.569  18.872  0.00  0.00    +0.000 N 
ATOM     29  C   UNL     1       3.817   4.007  19.523  0.00  0.00    +0.000 A 
ATOM     30  C   UNL     1       4.221   2.753  19.275  0.00  0.00    +0.000 A 
ATOM     31  C   UNL     1       3.544   1.974  18.272  0.00  0.00    +0.000 A 
ATOM     32  C   UNL     1       2.481   2.468  17.627  0.00  0.00    +0.000 A 
ATOM     33  C   UNL     1       1.980   3.842  17.925  0.00  0.00    +0.000 A 
ATOM     34  O   UNL     1       1.001   4.253  17.304  0.00  0.00    +0.000 OA
ENDBRANCH  24  28
ENDBRANCH  20  21
ENDBRANCH  18  20
ENDBRANCH   5  18
TORSDOF 7
ENDMDL
MODEL 2
REMARK VINA RESULT:      -8.3      0.582      1.215
REMARK  Name = 
REMARK  8 active torsions:
REMARK  status: ('A' for Active; 'I' for Inactive)
REMARK    1  A    between atoms: C_1  and  O_2
REMARK    2  A    between atoms: O_2  and  C_3
REMARK    3  A    between atoms: C_6  and  N_7
REMARK    4  A    between atoms: C_9  and  C_10
REMARK    5  A    between atoms: C_15  and  C_16
REMARK    6  A    between atoms: C_16  and  C_18
REMARK    7  A    between atoms: C_18  and  C_19
REMARK    8  A    between atoms: C_22  and  N_23
REMARK                            x       y       z     vdW  Elec       q    Type
REMARK                         _______ _______ _______ _____ _____    ______ ____
ROOT
ATOM      1  N   UNL     1      -1.133  12.008  18.510  0.00  0.00    +0.000 N 
ATOM      2  N   UNL     1      -2.099  12.051  17.553  0.00  0.00    +0.000 NA
ATOM      3  C   UNL     1      -2.191  10.795  17.085  0.00  0.00    +0.000 A 
ATOM      4  C   UNL     1      -1.375   9.926  17.852  0.00  0.00    +0.000 A 
ATOM      5  C   UNL     1      -0.783  10.708  18.831  0.00  0.00    +0.000 A 
ENDROOT
BRANCH   1   9
ATOM      6  C   UNL     1       0.513  15.564  20.058  0.00  0.00    +0.000 A 
ATOM      7  C   UNL     1       1.168  14.868  19.037  0.00  0.00    +0.000 A 
ATOM      8  C   UNL     1       0.620  13.697  18.509  0.00  0.00    +0.000 A 
ATOM      9  C   UNL     1      -0.600  13.226  19.004  0.00  0.00    +0.000 A 
ATOM     10  C   UNL     1      -1.256  13.922  20.026  0.00  0.00    +0.000 A 
ATOM     11  C   UNL     1      -0.700  15.086  20.552  0.00  0.00    +0.000 A 
BRANCH   6  13
ATOM     12  C   UNL     1       1.161  16.818  21.946  0.00  0.00    +0.000 C 
ATOM     13  O   UNL     1       1.171  16.665  20.532  0.00  0.00    +0.000 OA
ENDBRANCH   6  13
ENDBRANCH   1   9
BRANCH   3  14
ATOM     14  C   UNL     1      -3.106  10.390  15.954  0.00  0.00    +0.000 C 
ATOM     15  F   UNL     1      -4.384  10.831  16.091  0.00  0.00    +0.000 F 
ATOM     16  F   UNL     1      -2.658  10.853  14.755  0.00  0.00    +0.000 F 
ATOM     17  F   UNL     1      -3.171   9.034  15.838  0.00  0.00    +0.000 F 
ENDBRANCH   3  14
BRANCH   5  18
ATOM     18  C   UNL     1      -0.042  10.308  20.022  0.00  0.00    +0.000 C 
ATOM     19  O   UNL     1      -0.548  10.167  21.132  0.00  0.00    +0.000 OA
BRANCH  18  20
ATOM     20  C   UNL     1       1.422   9.964  19.864  0.00  0.00    +0.000 C 
BRANCH  20  21
ATOM     21  C   UNL     1       1.693   8.521  19.545  0.00  0.00    +0.000 A 
ATOM     22  C   UNL     1       2.109   8.111  18.268  0.00  0.00    +0.000 A 
ATOM     23  C   UNL     1       2.470   6.780  18.041  0.00  0.00    +0.000 A 
ATOM     24  C   UNL     1       2.376   5.828  19.068  0.00  0.00    +0.000 A 
ATOM     25  C   UNL     1       1.915   6.217  20.324  0.00  0.00    +0.000 A 
ATOM     26  C   UNL     1       1.601   7.555  20.553  0.00  0.00    +0.000 A 
ATOM     27  F   UNL     1       1.231   7.928  21.786  0.00  0.00    +0.000 F 
BRANCH  24  28
ATOM     28  N   UNL     1       2.785   4.484  18.831  0.00  0.00    +0.000 N 
ATOM     29  C   UNL     1       3.914   3.977  19.470  0.00  0.00    +0.000 A 
ATOM     30  C   UNL     1       4.335   2.720  19.271  0.00  0.00    +0.000 A 
ATOM     31  C   UNL     1       3.641   1.877  18.334  0.00  0.00    +0.000 A 
ATOM     32  C   UNL     1       2.545   2.318  17.704  0.00  0.00    +0.000 A 
ATOM     33  C   UNL     1       2.027   3.695  17.949  0.00  0.00    +0.000 A 
ATOM     34  O   UNL     1       1.018   4.056  17.344  0.00  0.00    +0.000 OA
ENDBRANCH  24  28
ENDBRANCH  20  21
ENDBRANCH  18  20
ENDBRANCH   5  18
TORSDOF 7
ENDMDL
MODEL 3
REMARK VINA RESULT:      -8.2      1.296      1.759
REMARK  Name = 
REMARK  8 active torsions:
REMARK  status: ('A' for Active; 'I' for Inactive)
REMARK    1  A    between atoms: C_1  and  O_2
REMARK    2  A    between atoms: O_2  and  C_3
REMARK    3  A    between atoms: C_6  and  N_7
REMARK    4  A    between atoms: C_9  and  C_10
REMARK    5  A    between atoms: C_15  and  C_16
REMARK    6  A    between atoms: C_16  and  C_18
REMARK    7  A    between atoms: C_18  and  C_19
REMARK    8  A    between atoms: C_22  and  N_23
REMARK                            x       y       z     vdW  Elec       q    Type
REMARK                         _______ _______ _______ _____ _____    ______ ____
ROOT
ATOM      1  N   UNL     1      -0.840  12.202  18.385  0.00  0.00    +0.000 N 
ATOM      2  N   UNL     1      -1.692  12.219  17.324  0.00  0.00    +0.000 NA
ATOM      3  C   UNL     1      -2.210  10.981  17.265  0.00  0.00    +0.000 A 
ATOM      4  C   UNL     1      -1.787  10.219  18.382  0.00  0.00    +0.000 A 
ATOM      5  C   UNL     1      -0.990  11.056  19.147  0.00  0.00    +0.000 A 
ENDROOT
BRANCH   1   9
ATOM      6  C   UNL     1       1.903  15.342  18.983  0.00  0.00    +0.000 A 
ATOM      7  C   UNL     1       2.331  14.122  18.451  0.00  0.00    +0.000 A 
ATOM      8  C   UNL     1       1.425  13.082  18.236  0.00  0.00    +0.000 A 
ATOM      9  C   UNL     1       0.075  13.272  18.549  0.00  0.00    +0.000 A 
ATOM     10  C   UNL     1      -0.354  14.494  19.081  0.00  0.00    +0.000 A 
ATOM     11  C   UNL     1       0.558  15.525  19.299  0.00  0.00    +0.000 A 
BRANCH   6  13
ATOM     12  C   UNL     1       4.021  16.158  18.344  0.00  0.00    +0.000 C 
ATOM     13  O   UNL     1       2.890  16.264  19.199  0.00  0.00    +0.000 OA
ENDBRANCH   6  13
ENDBRANCH   1   9
BRANCH   3  14
ATOM     14  C   UNL     1      -3.169  10.528  16.190  0.00  0.00    +0.000 C 
ATOM     15  F   UNL     1      -3.316   9.179  16.112  0.00  0.00    +0.000 F 
ATOM     16  F   UNL     1      -4.414  11.047  16.375  0.00  0.00    +0.000 F 
ATOM     17  F   UNL     1      -2.761  10.947  14.960  0.00  0.00    +0.000 F 
ENDBRANCH   3  14
BRANCH   5  18
ATOM     18  C   UNL     1      -0.483  10.878  20.503  0.00  0.00    +0.000 C 
ATOM     19  O   UNL     1      -1.179  10.946  21.512  0.00  0.00    +0.000 OA
BRANCH  18  20
ATOM     20  C   UNL     1       0.973  10.505  20.673  0.00  0.00    +0.000 C 
BRANCH  20  21
ATOM     21  C   UNL     1       1.387   9.259  19.941  0.00  0.00    +0.000 A 
ATOM     22  C   UNL     1       1.668   9.269  18.566  0.00  0.00    +0.000 A 
ATOM     23  C   UNL     1       2.169   8.122  17.944  0.00  0.00    +0.000 A 
ATOM     24  C   UNL     1       2.351   6.935  18.671  0.00  0.00    +0.000 A 
ATOM     25  C   UNL     1       2.024   6.904  20.025  0.00  0.00    +0.000 A 
ATOM     26  C   UNL     1       1.570   8.065  20.647  0.00  0.00    +0.000 A 
ATOM     27  F   UNL     1       1.332   8.039  21.965  0.00  0.00    +0.000 F 
BRANCH  24  28
ATOM     28  N   UNL     1       2.898   5.786  18.031  0.00  0.00    +0.000 N 
ATOM     29  C   UNL     1       2.117   4.645  17.859  0.00  0.00    +0.000 A 
ATOM     30  C   UNL     1       2.595   3.542  17.268  0.00  0.00    +0.000 A 
ATOM     31  C   UNL     1       3.968   3.503  16.840  0.00  0.00    +0.000 A 
ATOM     32  C   UNL     1       4.755   4.577  16.976  0.00  0.00    +0.000 A 
ATOM     33  C   UNL     1       4.229   5.835  17.583  0.00  0.00    +0.000 A 
ATOM     34  O   UNL     1       4.991   6.795  17.689  0.00  0.00    +0.000 OA
ENDBRANCH  24  28
ENDBRANCH  20  21
ENDBRANCH  18  20
ENDBRANCH   5  18
TORSDOF 7
ENDMDL
MODEL 4
REMARK VINA RESULT:      -8.2      1.166      1.578
REMARK  Name = 
REMARK  8 active torsions:
REMARK  status: ('A' for Active; 'I' for Inactive)
REMARK    1  A    between atoms: C_1  and  O_2
REMARK    2  A    between atoms: O_2  and  C_3
REMARK    3  A    between atoms: C_6  and  N_7
REMARK    4  A    between atoms: C_9  and  C_10
REMARK    5  A    between atoms: C_15  and  C_16
REMARK    6  A    between atoms: C_16  and  C_18
REMARK    7  A    between atoms: C_18  and  C_19
REMARK    8  A    between atoms: C_22  and  N_23
REMARK                            x       y       z     vdW  Elec       q    Type
REMARK                         _______ _______ _______ _____ _____    ______ ____
ROOT
ATOM      1  N   UNL     1      -0.804  11.926  18.416  0.00  0.00    +0.000 N 
ATOM      2  N   UNL     1      -1.733  12.053  17.430  0.00  0.00    +0.000 NA
ATOM      3  C   UNL     1      -2.171  10.806  17.192  0.00  0.00    +0.000 A 
ATOM      4  C   UNL     1      -1.616   9.903  18.133  0.00  0.00    +0.000 A 
ATOM      5  C   UNL     1      -0.820  10.661  18.978  0.00  0.00    +0.000 A 
ENDROOT
BRANCH   1   9
ATOM      6  C   UNL     1       1.698  15.231  19.165  0.00  0.00    +0.000 A 
ATOM      7  C   UNL     1       0.349  15.268  19.533  0.00  0.00    +0.000 A 
ATOM      8  C   UNL     1      -0.481  14.169  19.302  0.00  0.00    +0.000 A 
ATOM      9  C   UNL     1       0.048  13.022  18.703  0.00  0.00    +0.000 A 
ATOM     10  C   UNL     1       1.398  12.985  18.334  0.00  0.00    +0.000 A 
ATOM     11  C   UNL     1       2.219  14.087  18.563  0.00  0.00    +0.000 A 
BRANCH   6  13
ATOM     12  C   UNL     1       3.334  16.327  20.461  0.00  0.00    +0.000 C 
ATOM     13  O   UNL     1       2.398  16.384  19.391  0.00  0.00    +0.000 OA
ENDBRANCH   6  13
ENDBRANCH   1   9
BRANCH   3  14
ATOM     14  C   UNL     1      -3.177  10.464  16.118  0.00  0.00    +0.000 C 
ATOM     15  F   UNL     1      -3.083   9.189  15.658  0.00  0.00    +0.000 F 
ATOM     16  F   UNL     1      -4.455  10.630  16.555  0.00  0.00    +0.000 F 
ATOM     17  F   UNL     1      -3.035  11.280  15.037  0.00  0.00    +0.000 F 
ENDBRANCH   3  14
BRANCH   5  18
ATOM     18  C   UNL     1      -0.202  10.300  20.249  0.00  0.00    +0.000 C 
ATOM     19  O   UNL     1      -0.826  10.125  21.293  0.00  0.00    +0.000 OA
BRANCH  18  20
ATOM     20  C   UNL     1       1.288  10.042  20.265  0.00  0.00    +0.000 C 
BRANCH  20  21
ATOM     21  C   UNL     1       1.682   8.638  19.899  0.00  0.00    +0.000 A 
ATOM     22  C   UNL     1       1.617   7.586  20.826  0.00  0.00    +0.000 A 
ATOM     23  C   UNL     1       1.872   6.274  20.418  0.00  0.00    +0.000 A 
ATOM     24  C   UNL     1       2.245   5.997  19.093  0.00  0.00    +0.000 A 
ATOM     25  C   UNL     1       2.363   7.043  18.180  0.00  0.00    +0.000 A 
ATOM     26  C   UNL     1       2.061   8.342  18.585  0.00  0.00    +0.000 A 
ATOM     27  F   UNL     1       2.106   9.327  17.677  0.00  0.00    +0.000 F 
BRANCH  24  28
ATOM     28  N   UNL     1       2.464   4.650  18.683  0.00  0.00    +0.000 N 
ATOM     29  C   UNL     1       1.411   3.739  18.693  0.00  0.00    +0.000 A 
ATOM     30  C   UNL     1       1.575   2.462  18.320  0.00  0.00    +0.000 A 
ATOM     31  C   UNL     1       2.884   1.994  17.946  0.00  0.00    +0.000 A 
ATOM     32  C   UNL     1       3.924   2.835  17.913  0.00  0.00    +0.000 A 
ATOM     33  C   UNL     1       3.754   4.273  18.273  0.00  0.00    +0.000 A 
ATOM     34  O   UNL     1       4.741   5.007  18.229  0.00  0.00    +0.000 OA
ENDBRANCH  24  28
ENDBRANCH  20  21
ENDBRANCH  18  20
ENDBRANCH   5  18
TORSDOF 7
ENDMDL
MODEL 5
REMARK VINA RESULT:      -8.2      1.260      1.980
REMARK  Name = 
REMARK  8 active torsions:
REMARK  status: ('A' for Active; 'I' for Inactive)
REMARK    1  A    between atoms: C_1  and  O_2
REMARK    2  A    between atoms: O_2  and  C_3
REMARK    3  A    between atoms: C_6  and  N_7
REMARK    4  A    between atoms: C_9  and  C_10
REMARK    5  A    between atoms: C_15  and  C_16
REMARK    6  A    between atoms: C_16  and  C_18
REMARK    7  A    between atoms: C_18  and  C_19
REMARK    8  A    between atoms: C_22  and  N_23
REMARK                            x       y       z     vdW  Elec       q    Type
REMARK                         _______ _______ _______ _____ _____    ______ ____
ROOT
ATOM      1  N   UNL     1      -0.714  11.932  18.469  0.00  0.00    +0.000 N 
ATOM      2  N   UNL     1      -1.624  12.094  17.471  0.00  0.00    +0.000 NA
ATOM      3  C   UNL     1      -2.155  10.877  17.274  0.00  0.00    +0.000 A 
ATOM      4  C   UNL     1      -1.677   9.969  18.251  0.00  0.00    +0.000 A 
ATOM      5  C   UNL     1      -0.831  10.694  19.076  0.00  0.00    +0.000 A 
ENDROOT
BRANCH   1   9
ATOM      6  C   UNL     1       2.092  14.954  19.327  0.00  0.00    +0.000 A 
ATOM      7  C   UNL     1       2.447  13.869  18.520  0.00  0.00    +0.000 A 
ATOM      8  C   UNL     1       1.517  12.871  18.220  0.00  0.00    +0.000 A 
ATOM      9  C   UNL     1       0.217  12.969  18.726  0.00  0.00    +0.000 A 
ATOM     10  C   UNL     1      -0.138  14.056  19.533  0.00  0.00    +0.000 A 
ATOM     11  C   UNL     1       0.797  15.044  19.834  0.00  0.00    +0.000 A 
BRANCH   6  13
ATOM     12  C   UNL     1       4.329  15.251  20.011  0.00  0.00    +0.000 C 
ATOM     13  O   UNL     1       3.101  15.837  19.597  0.00  0.00    +0.000 OA
ENDBRANCH   6  13
ENDBRANCH   1   9
BRANCH   3  14
ATOM     14  C   UNL     1      -3.177  10.574  16.202  0.00  0.00    +0.000 C 
ATOM     15  F   UNL     1      -3.111  11.401  15.126  0.00  0.00    +0.000 F 
ATOM     16  F   UNL     1      -3.047   9.304  15.729  0.00  0.00    +0.000 F 
ATOM     17  F   UNL     1      -4.444  10.670  16.692  0.00  0.00    +0.000 F 
ENDBRANCH   3  14
BRANCH   5  18
ATOM     18  C   UNL     1      -0.251  10.332  20.364  0.00  0.00    +0.000 C 
ATOM     19  O   UNL     1      -0.905  10.163  21.391  0.00  0.00    +0.000 OA
BRANCH  18  20
ATOM     20  C   UNL     1       1.237  10.067  20.424  0.00  0.00    +0.000 C 
BRANCH  20  21
ATOM     21  C   UNL     1       1.640   8.679  20.011  0.00  0.00    +0.000 A 
ATOM     22  C   UNL     1       1.605   7.601  20.909  0.00  0.00    +0.000 A 
ATOM     23  C   UNL     1       1.867   6.304  20.459  0.00  0.00    +0.000 A 
ATOM     24  C   UNL     1       2.217   6.068  19.121  0.00  0.00    +0.000 A 
ATOM     25  C   UNL     1       2.304   7.140  18.235  0.00  0.00    +0.000 A 
ATOM     26  C   UNL     1       1.995   8.423  18.682  0.00  0.00    +0.000 A 
ATOM     27  F   UNL     1       2.010   9.433  17.801  0.00  0.00    +0.000 F 
BRANCH  24  28
ATOM     28  N   UNL     1       2.443   4.736  18.669  0.00  0.00    +0.000 N 
ATOM     29  C   UNL     1       1.412   3.800  18.714  0.00  0.00    +0.000 A 
ATOM     30  C   UNL     1       1.585   2.536  18.304  0.00  0.00    +0.000 A 
ATOM     31  C   UNL     1       2.881   2.107  17.850  0.00  0.00    +0.000 A 
ATOM     32  C   UNL     1       3.900   2.972  17.781  0.00  0.00    +0.000 A 
ATOM     33  C   UNL     1       3.717   4.397  18.182  0.00  0.00    +0.000 A 
ATOM     34  O   UNL     1       4.684   5.155  18.103  0.00  0.00    +0.000 OA
ENDBRANCH  24  28
ENDBRANCH  20  21
ENDBRANCH  18  20
ENDBRANCH   5  18
TORSDOF 7
ENDMDL
MODEL 6
REMARK VINA RESULT:      -8.2      2.224      2.864
REMARK  Name = 
REMARK  8 active torsions:
REMARK  status: ('A' for Active; 'I' for Inactive)
REMARK    1  A    between atoms: C_1  and  O_2
REMARK    2  A    between atoms: O_2  and  C_3
REMARK    3  A    between atoms: C_6  and  N_7
REMARK    4  A    between atoms: C_9  and  C_10
REMARK    5  A    between atoms: C_15  and  C_16
REMARK    6  A    between atoms: C_16  and  C_18
REMARK    7  A    between atoms: C_18  and  C_19
REMARK    8  A    between atoms: C_22  and  N_23
REMARK                            x       y       z     vdW  Elec       q    Type
REMARK                         _______ _______ _______ _____ _____    ______ ____
ROOT
ATOM      1  N   UNL     1      -2.174  11.811  19.255  0.00  0.00    +0.000 N 
ATOM      2  N   UNL     1      -3.084  11.743  18.245  0.00  0.00    +0.000 NA
ATOM      3  C   UNL     1      -2.599  10.827  17.392  0.00  0.00    +0.000 A 
ATOM      4  C   UNL     1      -1.445  10.211  17.937  0.00  0.00    +0.000 A 
ATOM      5  C   UNL     1      -1.249  10.784  19.184  0.00  0.00    +0.000 A 
ENDROOT
BRANCH   1   9
ATOM      6  C   UNL     1      -2.323  14.941  22.070  0.00  0.00    +0.000 A 
ATOM      7  C   UNL     1      -1.368  14.954  21.049  0.00  0.00    +0.000 A 
ATOM      8  C   UNL     1      -1.323  13.927  20.103  0.00  0.00    +0.000 A 
ATOM      9  C   UNL     1      -2.251  12.883  20.179  0.00  0.00    +0.000 A 
ATOM     10  C   UNL     1      -3.206  12.870  21.201  0.00  0.00    +0.000 A 
ATOM     11  C   UNL     1      -3.241  13.895  22.145  0.00  0.00    +0.000 A 
BRANCH   6  13
ATOM     12  C   UNL     1      -3.477  16.458  23.458  0.00  0.00    +0.000 C 
ATOM     13  O   UNL     1      -2.234  15.969  22.967  0.00  0.00    +0.000 OA
ENDBRANCH   6  13
ENDBRANCH   1   9
BRANCH   3  14
ATOM     14  C   UNL     1      -3.262  10.473  16.081  0.00  0.00    +0.000 C 
ATOM     15  F   UNL     1      -3.096   9.176  15.710  0.00  0.00    +0.000 F 
ATOM     16  F   UNL     1      -4.604  10.700  16.120  0.00  0.00    +0.000 F 
ATOM     17  F   UNL     1      -2.776  11.235  15.064  0.00  0.00    +0.000 F 
ENDBRANCH   3  14
BRANCH   5  18
ATOM     18  C   UNL     1      -0.364  10.375  20.268  0.00  0.00    +0.000 C 
ATOM     19  O   UNL     1      -0.751  10.044  21.385  0.00  0.00    +0.000 OA
BRANCH  18  20
ATOM     20  C   UNL     1       1.117  10.271  19.974  0.00  0.00    +0.000 C 
BRANCH  20  21
ATOM     21  C   UNL     1       1.604   8.875  19.709  0.00  0.00    +0.000 A 
ATOM     22  C   UNL     1       1.584   7.883  20.702  0.00  0.00    +0.000 A 
ATOM     23  C   UNL     1       1.927   6.566  20.386  0.00  0.00    +0.000 A 
ATOM     24  C   UNL     1       2.344   6.226  19.089  0.00  0.00    +0.000 A 
ATOM     25  C   UNL     1       2.416   7.217  18.111  0.00  0.00    +0.000 A 
ATOM     26  C   UNL     1       2.027   8.517  18.424  0.00  0.00    +0.000 A 
ATOM     27  F   UNL     1       2.030   9.442  17.453  0.00  0.00    +0.000 F 
BRANCH  24  28
ATOM     28  N   UNL     1       2.654   4.872  18.773  0.00  0.00    +0.000 N 
ATOM     29  C   UNL     1       1.651   4.014  18.328  0.00  0.00    +0.000 A 
ATOM     30  C   UNL     1       1.899   2.732  18.024  0.00  0.00    +0.000 A 
ATOM     31  C   UNL     1       3.224   2.202  18.209  0.00  0.00    +0.000 A 
ATOM     32  C   UNL     1       4.222   2.991  18.627  0.00  0.00    +0.000 A 
ATOM     33  C   UNL     1       3.981   4.434  18.919  0.00  0.00    +0.000 A 
ATOM     34  O   UNL     1       4.929   5.118  19.303  0.00  0.00    +0.000 OA
ENDBRANCH  24  28
ENDBRANCH  20  21
ENDBRANCH  18  20
ENDBRANCH   5  18
TORSDOF 7
ENDMDL
MODEL 7
REMARK VINA RESULT:      -8.1      0.933      1.478
REMARK  Name = 
REMARK  8 active torsions:
REMARK  status: ('A' for Active; 'I' for Inactive)
REMARK    1  A    between atoms: C_1  and  O_2
REMARK    2  A    between atoms: O_2  and  C_3
REMARK    3  A    between atoms: C_6  and  N_7
REMARK    4  A    between atoms: C_9  and  C_10
REMARK    5  A    between atoms: C_15  and  C_16
REMARK    6  A    between atoms: C_16  and  C_18
REMARK    7  A    between atoms: C_18  and  C_19
REMARK    8  A    between atoms: C_22  and  N_23
REMARK                            x       y       z     vdW  Elec       q    Type
REMARK                         _______ _______ _______ _____ _____    ______ ____
ROOT
ATOM      1  N   UNL     1      -1.007  12.089  18.529  0.00  0.00    +0.000 N 
ATOM      2  N   UNL     1      -1.942  12.137  17.542  0.00  0.00    +0.000 NA
ATOM      3  C   UNL     1      -2.135  10.860  17.174  0.00  0.00    +0.000 A 
ATOM      4  C   UNL     1      -1.420   9.989  18.032  0.00  0.00    +0.000 A 
ATOM      5  C   UNL     1      -0.783  10.794  18.964  0.00  0.00    +0.000 A 
ENDROOT
BRANCH   1   9
ATOM      6  C   UNL     1       0.911  15.603  19.841  0.00  0.00    +0.000 A 
ATOM      7  C   UNL     1       1.540  14.755  18.924  0.00  0.00    +0.000 A 
ATOM      8  C   UNL     1       0.903  13.597  18.473  0.00  0.00    +0.000 A 
ATOM      9  C   UNL     1      -0.379  13.292  18.941  0.00  0.00    +0.000 A 
ATOM     10  C   UNL     1      -1.009  14.141  19.858  0.00  0.00    +0.000 A 
ATOM     11  C   UNL     1      -0.365  15.291  20.308  0.00  0.00    +0.000 A 
BRANCH   6  13
ATOM     12  C   UNL     1       1.678  17.777  19.350  0.00  0.00    +0.000 C 
ATOM     13  O   UNL     1       1.653  16.676  20.250  0.00  0.00    +0.000 OA
ENDBRANCH   6  13
ENDBRANCH   1   9
BRANCH   3  14
ATOM     14  C   UNL     1      -3.056  10.445  16.051  0.00  0.00    +0.000 C 
ATOM     15  F   UNL     1      -3.384   9.126  16.063  0.00  0.00    +0.000 F 
ATOM     16  F   UNL     1      -4.227  11.140  16.078  0.00  0.00    +0.000 F 
ATOM     17  F   UNL     1      -2.493  10.696  14.837  0.00  0.00    +0.000 F 
ENDBRANCH   3  14
BRANCH   5  18
ATOM     18  C   UNL     1      -0.109  10.430  20.204  0.00  0.00    +0.000 C 
ATOM     19  O   UNL     1      -0.675  10.322  21.289  0.00  0.00    +0.000 OA
BRANCH  18  20
ATOM     20  C   UNL     1       1.361  10.081  20.138  0.00  0.00    +0.000 C 
BRANCH  20  21
ATOM     21  C   UNL     1       1.649   8.668  19.714  0.00  0.00    +0.000 A 
ATOM     22  C   UNL     1       2.090   8.361  18.417  0.00  0.00    +0.000 A 
ATOM     23  C   UNL     1       2.466   7.053  18.096  0.00  0.00    +0.000 A 
ATOM     24  C   UNL     1       2.360   6.025  19.045  0.00  0.00    +0.000 A 
ATOM     25  C   UNL     1       1.874   6.314  20.319  0.00  0.00    +0.000 A 
ATOM     26  C   UNL     1       1.546   7.628  20.644  0.00  0.00    +0.000 A 
ATOM     27  F   UNL     1       1.151   7.903  21.895  0.00  0.00    +0.000 F 
BRANCH  24  28
ATOM     28  N   UNL     1       2.783   4.705  18.714  0.00  0.00    +0.000 N 
ATOM     29  C   UNL     1       1.880   3.803  18.156  0.00  0.00    +0.000 A 
ATOM     30  C   UNL     1       2.235   2.552  17.834  0.00  0.00    +0.000 A 
ATOM     31  C   UNL     1       3.572   2.098  18.116  0.00  0.00    +0.000 A 
ATOM     32  C   UNL     1       4.477   2.931  18.643  0.00  0.00    +0.000 A 
ATOM     33  C   UNL     1       4.119   4.345  18.960  0.00  0.00    +0.000 A 
ATOM     34  O   UNL     1       4.985   5.071  19.445  0.00  0.00    +0.000 OA
ENDBRANCH  24  28
ENDBRANCH  20  21
ENDBRANCH  18  20
ENDBRANCH   5  18
TORSDOF 7
ENDMDL
MODEL 8
REMARK VINA RESULT:      -8.0      3.324      9.454
REMARK  Name = 
REMARK  8 active torsions:
REMARK  status: ('A' for Active; 'I' for Inactive)
REMARK    1  A    between atoms: C_1  and  O_2
REMARK    2  A    between atoms: O_2  and  C_3
REMARK    3  A    between atoms: C_6  and  N_7
REMARK    4  A    between atoms: C_9  and  C_10
REMARK    5  A    between atoms: C_15  and  C_16
REMARK    6  A    between atoms: C_16  and  C_18
REMARK    7  A    between atoms: C_18  and  C_19
REMARK    8  A    between atoms: C_22  and  N_23
REMARK                            x       y       z     vdW  Elec       q    Type
REMARK                         _______ _______ _______ _____ _____    ______ ____
ROOT
ATOM      1  N   UNL     1       3.756   5.186  18.353  0.00  0.00    +0.000 N 
ATOM      2  N   UNL     1       3.406   4.042  19.003  0.00  0.00    +0.000 NA
ATOM      3  C   UNL     1       2.613   4.437  20.012  0.00  0.00    +0.000 A 
ATOM      4  C   UNL     1       2.347   5.825  19.914  0.00  0.00    +0.000 A 
ATOM      5  C   UNL     1       3.007   6.269  18.778  0.00  0.00    +0.000 A 
ENDROOT
BRANCH   1   9
ATOM      6  C   UNL     1       6.852   5.164  15.497  0.00  0.00    +0.000 A 
ATOM      7  C   UNL     1       7.036   5.789  16.734  0.00  0.00    +0.000 A 
ATOM      8  C   UNL     1       6.020   5.786  17.691  0.00  0.00    +0.000 A 
ATOM      9  C   UNL     1       4.810   5.144  17.407  0.00  0.00    +0.000 A 
ATOM     10  C   UNL     1       4.626   4.519  16.168  0.00  0.00    +0.000 A 
ATOM     11  C   UNL     1       5.642   4.531  15.216  0.00  0.00    +0.000 A 
BRANCH   6  13
ATOM     12  C   UNL     1       7.564   5.099  13.250  0.00  0.00    +0.000 C 
ATOM     13  O   UNL     1       7.896   5.280  14.622  0.00  0.00    +0.000 OA
ENDBRANCH   6  13
ENDBRANCH   1   9
BRANCH   3  14
ATOM     14  C   UNL     1       2.038   3.491  21.041  0.00  0.00    +0.000 C 
ATOM     15  F   UNL     1       0.686   3.362  20.980  0.00  0.00    +0.000 F 
ATOM     16  F   UNL     1       2.558   2.239  20.918  0.00  0.00    +0.000 F 
ATOM     17  F   UNL     1       2.334   3.904  22.305  0.00  0.00    +0.000 F 
ENDBRANCH   3  14
BRANCH   5  18
ATOM     18  C   UNL     1       2.895   7.540  18.073  0.00  0.00    +0.000 C 
ATOM     19  O   UNL     1       3.820   8.077  17.470  0.00  0.00    +0.000 OA
BRANCH  18  20
ATOM     20  C   UNL     1       1.534   8.199  18.008  0.00  0.00    +0.000 C 
BRANCH  20  21
ATOM     21  C   UNL     1       1.454   9.534  18.693  0.00  0.00    +0.000 A 
ATOM     22  C   UNL     1       1.848  10.719  18.052  0.00  0.00    +0.000 A 
ATOM     23  C   UNL     1       1.644  11.954  18.673  0.00  0.00    +0.000 A 
ATOM     24  C   UNL     1       1.090  12.025  19.961  0.00  0.00    +0.000 A 
ATOM     25  C   UNL     1       0.744  10.849  20.624  0.00  0.00    +0.000 A 
ATOM     26  C   UNL     1       0.909   9.625  19.978  0.00  0.00    +0.000 A 
ATOM     27  F   UNL     1       0.502   8.509  20.599  0.00  0.00    +0.000 F 
BRANCH  24  28
ATOM     28  N   UNL     1       0.853  13.293  20.565  0.00  0.00    +0.000 N 
ATOM     29  C   UNL     1      -0.403  13.888  20.466  0.00  0.00    +0.000 A 
ATOM     30  C   UNL     1      -0.667  15.081  21.015  0.00  0.00    +0.000 A 
ATOM     31  C   UNL     1       0.383  15.804  21.683  0.00  0.00    +0.000 A 
ATOM     32  C   UNL     1       1.604  15.269  21.811  0.00  0.00    +0.000 A 
ATOM     33  C   UNL     1       1.906  13.918  21.254  0.00  0.00    +0.000 A 
ATOM     34  O   UNL     1       3.043  13.470  21.395  0.00  0.00    +0.000 OA
ENDBRANCH  24  28
ENDBRANCH  20  21
ENDBRANCH  18  20
ENDBRANCH   5  18
TORSDOF 7
ENDMDL
MODEL 9
REMARK VINA RESULT:      -8.0      1.822      2.359
REMARK  Name = 
REMARK  8 active torsions:
REMARK  status: ('A' for Active; 'I' for Inactive)
REMARK    1  A    between atoms: C_1  and  O_2
REMARK    2  A    between atoms: O_2  and  C_3
REMARK    3  A    between atoms: C_6  and  N_7
REMARK    4  A    between atoms: C_9  and  C_10
REMARK    5  A    between atoms: C_15  and  C_16
REMARK    6  A    between atoms: C_16  and  C_18
REMARK    7  A    between atoms: C_18  and  C_19
REMARK    8  A    between atoms: C_22  and  N_23
REMARK                            x       y       z     vdW  Elec       q    Type
REMARK                         _______ _______ _______ _____ _____    ______ ____
ROOT
ATOM      1  N   UNL     1      -1.745  11.822  19.078  0.00  0.00    +0.000 N 
ATOM      2  N   UNL     1      -2.678  11.848  18.087  0.00  0.00    +0.000 NA
ATOM      3  C   UNL     1      -2.438  10.755  17.345  0.00  0.00    +0.000 A 
ATOM      4  C   UNL     1      -1.436   9.959  17.955  0.00  0.00    +0.000 A 
ATOM      5  C   UNL     1      -1.078  10.611  19.124  0.00  0.00    +0.000 A 
ENDROOT
BRANCH   1   9
ATOM      6  C   UNL     1      -1.260  15.319  21.376  0.00  0.00    +0.000 A 
ATOM      7  C   UNL     1      -2.080  14.282  21.832  0.00  0.00    +0.000 A 
ATOM      8  C   UNL     1      -2.233  13.114  21.082  0.00  0.00    +0.000 A 
ATOM      9  C   UNL     1      -1.550  12.982  19.869  0.00  0.00    +0.000 A 
ATOM     10  C   UNL     1      -0.729  14.020  19.413  0.00  0.00    +0.000 A 
ATOM     11  C   UNL     1      -0.587  15.185  20.163  0.00  0.00    +0.000 A 
BRANCH   6  13
ATOM     12  C   UNL     1      -2.499  17.019  22.440  0.00  0.00    +0.000 C 
ATOM     13  O   UNL     1      -1.232  16.433  22.168  0.00  0.00    +0.000 OA
ENDBRANCH   6  13
ENDBRANCH   1   9
BRANCH   3  14
ATOM     14  C   UNL     1      -3.204  10.413  16.089  0.00  0.00    +0.000 C 
ATOM     15  F   UNL     1      -2.965   9.161  15.618  0.00  0.00    +0.000 F 
ATOM     16  F   UNL     1      -4.549  10.511  16.278  0.00  0.00    +0.000 F 
ATOM     17  F   UNL     1      -2.899  11.274  15.079  0.00  0.00    +0.000 F 
ENDBRANCH   3  14
BRANCH   5  18
ATOM     18  C   UNL     1      -0.274  10.138  20.245  0.00  0.00    +0.000 C 
ATOM     19  O   UNL     1      -0.739   9.788  21.327  0.00  0.00    +0.000 OA
BRANCH  18  20
ATOM     20  C   UNL     1       1.217   9.989  20.037  0.00  0.00    +0.000 C 
BRANCH  20  21
ATOM     21  C   UNL     1       1.672   8.580  19.775  0.00  0.00    +0.000 A 
ATOM     22  C   UNL     1       1.597   7.583  20.760  0.00  0.00    +0.000 A 
ATOM     23  C   UNL     1       1.913   6.259  20.444  0.00  0.00    +0.000 A 
ATOM     24  C   UNL     1       2.356   5.917  19.157  0.00  0.00    +0.000 A 
ATOM     25  C   UNL     1       2.483   6.910  18.188  0.00  0.00    +0.000 A 
ATOM     26  C   UNL     1       2.121   8.220  18.499  0.00  0.00    +0.000 A 
ATOM     27  F   UNL     1       2.176   9.149  17.536  0.00  0.00    +0.000 F 
BRANCH  24  28
ATOM     28  N   UNL     1       2.637   4.556  18.840  0.00  0.00    +0.000 N 
ATOM     29  C   UNL     1       1.624   3.730  18.358  0.00  0.00    +0.000 A 
ATOM     30  C   UNL     1       1.845   2.444  18.053  0.00  0.00    +0.000 A 
ATOM     31  C   UNL     1       3.148   1.875  18.274  0.00  0.00    +0.000 A 
ATOM     32  C   UNL     1       4.155   2.632  18.727  0.00  0.00    +0.000 A 
ATOM     33  C   UNL     1       3.946   4.079  19.023  0.00  0.00    +0.000 A 
ATOM     34  O   UNL     1       4.901   4.733  19.440  0.00  0.00    +0.000 OA
ENDBRANCH  24  28
ENDBRANCH  20  21
ENDBRANCH  18  20
ENDBRANCH   5  18
TORSDOF 7
ENDMDL
