MODEL 1
REMARK VINA RESULT:      -6.8      0.000      0.000
REMARK  Name = 
REMARK  6 active torsions:
REMARK  status: ('A' for Active; 'I' for Inactive)
REMARK    1  A    between atoms: C_1  and  N_2
REMARK    2  A    between atoms: C_3  and  C_4
REMARK    3  A    between atoms: C_4  and  O_6
REMARK    4  A    between atoms: C_9  and  C_10
REMARK    5  A    between atoms: C_13  and  C_14
REMARK    6  A    between atoms: C_19  and  O_20
REMARK                            x       y       z     vdW  Elec       q    Type
REMARK                         _______ _______ _______ _____ _____    ______ ____
ROOT
ATOM      1  C   UNL     1       3.627   4.932  19.431  0.00  0.00    +0.000 A 
ATOM      2  C   UNL     1       2.769   4.428  20.391  0.00  0.00    +0.000 A 
ATOM      3  S   UNL     1       1.580   5.576  20.793  0.00  0.00    +0.000 S 
ATOM      4  C   UNL     1       2.338   6.735  19.758  0.00  0.00    +0.000 A 
ATOM      5  N   UNL     1       3.348   6.247  19.052  0.00  0.00    +0.000 NA
ENDROOT
BRANCH   1  11
ATOM      6  C   UNL     1       6.754   5.515  19.026  0.00  0.00    +0.000 C 
ATOM      7  N   UNL     1       5.653   5.168  18.116  0.00  0.00    +0.000 NA
ATOM      8  C   UNL     1       6.169   4.550  16.856  0.00  0.00    +0.000 C 
ATOM      9  C   UNL     1       4.996   3.877  16.157  0.00  0.00    +0.000 C 
ATOM     10  S   UNL     1       4.127   3.040  17.492  0.00  0.00    +0.000 S 
ATOM     11  C   UNL     1       4.756   4.181  18.771  0.00  0.00    +0.000 C 
BRANCH   8  12
ATOM     12  C   UNL     1       6.692   5.632  15.917  0.00  0.00    +0.000 C 
ATOM     13  O   UNL     1       7.711   5.535  15.252  0.00  0.00    +0.000 OA
BRANCH  12  14
ATOM     14  O   UNL     1       5.860   6.703  15.842  0.00  0.00    +0.000 OA
ATOM     15  H   UNL     1       6.341   7.430  15.381  0.00  0.00    +0.000 HD
ENDBRANCH  12  14
ENDBRANCH   8  12
ENDBRANCH   1  11
BRANCH   4  16
ATOM     16  C   UNL     1       1.794   8.106  19.626  0.00  0.00    +0.000 A 
ATOM     17  C   UNL     1       1.138   8.678  20.731  0.00  0.00    +0.000 A 
ATOM     18  C   UNL     1       0.642   9.987  20.682  0.00  0.00    +0.000 A 
ATOM     19  C   UNL     1       0.780  10.743  19.524  0.00  0.00    +0.000 A 
ATOM     20  C   UNL     1       1.402  10.192  18.406  0.00  0.00    +0.000 A 
ATOM     21  C   UNL     1       1.893   8.884  18.457  0.00  0.00    +0.000 A 
BRANCH  21  22
ATOM     22  O   UNL     1       2.457   8.361  17.321  0.00  0.00    +0.000 OA
ATOM     23  H   UNL     1       3.402   8.195  17.480  0.00  0.00    +0.000 HD
ENDBRANCH  21  22
ENDBRANCH   4  16
TORSDOF 5
ENDMDL
MODEL 2
REMARK VINA RESULT:      -6.6      2.805      3.834
REMARK  Name = 
REMARK  6 active torsions:
REMARK  status: ('A' for Active; 'I' for Inactive)
REMARK    1  A    between atoms: C_1  and  N_2
REMARK    2  A    between atoms: C_3  and  C_4
REMARK    3  A    between atoms: C_4  and  O_6
REMARK    4  A    between atoms: C_9  and  C_10
REMARK    5  A    between atoms: C_13  and  C_14
REMARK    6  A    between atoms: C_19  and  O_20
REMARK                            x       y       z     vdW  Elec       q    Type
REMARK                         _______ _______ _______ _____ _____    ______ ____
ROOT
ATOM      1  C   UNL     1       2.668   6.699  19.416  0.00  0.00    +0.000 A 
ATOM      2  C   UNL     1       2.845   7.183  18.132  0.00  0.00    +0.000 A 
ATOM      3  S   UNL     1       2.097   8.699  17.958  0.00  0.00    +0.000 S 
ATOM      4  C   UNL     1       1.468   8.584  19.563  0.00  0.00    +0.000 A 
ATOM      5  N   UNL     1       1.903   7.529  20.237  0.00  0.00    +0.000 NA
ENDROOT
BRANCH   1  11
ATOM      6  C   UNL     1       4.963   4.687  18.428  0.00  0.00    +0.000 C 
ATOM      7  N   UNL     1       3.558   4.519  18.827  0.00  0.00    +0.000 NA
ATOM      8  C   UNL     1       3.288   3.117  19.270  0.00  0.00    +0.000 C 
ATOM      9  C   UNL     1       1.962   3.115  20.018  0.00  0.00    +0.000 C 
ATOM     10  S   UNL     1       2.061   4.576  21.064  0.00  0.00    +0.000 S 
ATOM     11  C   UNL     1       3.251   5.421  19.967  0.00  0.00    +0.000 C 
BRANCH   8  12
ATOM     12  C   UNL     1       3.121   2.206  18.058  0.00  0.00    +0.000 C 
ATOM     13  O   UNL     1       2.301   2.381  17.171  0.00  0.00    +0.000 OA
BRANCH  12  14
ATOM     14  O   UNL     1       4.037   1.203  18.031  0.00  0.00    +0.000 OA
ATOM     15  H   UNL     1       3.864   0.656  17.228  0.00  0.00    +0.000 HD
ENDBRANCH  12  14
ENDBRANCH   8  12
ENDBRANCH   1  11
BRANCH   4  16
ATOM     16  C   UNL     1       0.614   9.656  20.124  0.00  0.00    +0.000 A 
ATOM     17  C   UNL     1      -0.277  10.325  19.266  0.00  0.00    +0.000 A 
ATOM     18  C   UNL     1      -1.141  11.316  19.746  0.00  0.00    +0.000 A 
ATOM     19  C   UNL     1      -1.121  11.668  21.091  0.00  0.00    +0.000 A 
ATOM     20  C   UNL     1      -0.230  11.041  21.959  0.00  0.00    +0.000 A 
ATOM     21  C   UNL     1       0.634  10.054  21.475  0.00  0.00    +0.000 A 
BRANCH  21  22
ATOM     22  O   UNL     1       1.529   9.494  22.351  0.00  0.00    +0.000 OA
ATOM     23  H   UNL     1       1.068   9.267  23.177  0.00  0.00    +0.000 HD
ENDBRANCH  21  22
ENDBRANCH   4  16
TORSDOF 5
ENDMDL
MODEL 3
REMARK VINA RESULT:      -6.4      3.290      7.089
REMARK  Name = 
REMARK  6 active torsions:
REMARK  status: ('A' for Active; 'I' for Inactive)
REMARK    1  A    between atoms: C_1  and  N_2
REMARK    2  A    between atoms: C_3  and  C_4
REMARK    3  A    between atoms: C_4  and  O_6
REMARK    4  A    between atoms: C_9  and  C_10
REMARK    5  A    between atoms: C_13  and  C_14
REMARK    6  A    between atoms: C_19  and  O_20
REMARK                            x       y       z     vdW  Elec       q    Type
REMARK                         _______ _______ _______ _____ _____    ______ ____
ROOT
ATOM      1  C   UNL     1       4.117   4.213  17.607  0.00  0.00    +0.000 A 
ATOM      2  C   UNL     1       5.278   4.359  18.347  0.00  0.00    +0.000 A 
ATOM      3  S   UNL     1       6.622   4.532  17.320  0.00  0.00    +0.000 S 
ATOM      4  C   UNL     1       5.612   4.282  15.940  0.00  0.00    +0.000 A 
ATOM      5  N   UNL     1       4.320   4.205  16.226  0.00  0.00    +0.000 NA
ENDROOT
BRANCH   1  11
ATOM      6  C   UNL     1       2.666   5.397  20.211  0.00  0.00    +0.000 C 
ATOM      7  N   UNL     1       2.814   4.047  19.648  0.00  0.00    +0.000 NA
ATOM      8  C   UNL     1       1.731   3.138  20.134  0.00  0.00    +0.000 C 
ATOM      9  C   UNL     1       1.717   1.911  19.233  0.00  0.00    +0.000 C 
ATOM     10  S   UNL     1       1.887   2.596  17.578  0.00  0.00    +0.000 S 
ATOM     11  C   UNL     1       2.720   4.111  18.166  0.00  0.00    +0.000 C 
BRANCH   8  12
ATOM     12  C   UNL     1       2.046   2.655  21.546  0.00  0.00    +0.000 C 
ATOM     13  O   UNL     1       3.166   2.380  21.947  0.00  0.00    +0.000 OA
BRANCH  12  14
ATOM     14  O   UNL     1       0.947   2.626  22.344  0.00  0.00    +0.000 OA
ATOM     15  H   UNL     1       1.153   3.136  23.163  0.00  0.00    +0.000 HD
ENDBRANCH  12  14
ENDBRANCH   8  12
ENDBRANCH   1  11
BRANCH   4  16
ATOM     16  C   UNL     1       6.180   4.278  14.572  0.00  0.00    +0.000 A 
ATOM     17  C   UNL     1       5.617   3.419  13.613  0.00  0.00    +0.000 A 
ATOM     18  C   UNL     1       6.081   3.402  12.292  0.00  0.00    +0.000 A 
ATOM     19  C   UNL     1       7.127   4.234  11.909  0.00  0.00    +0.000 A 
ATOM     20  C   UNL     1       7.722   5.076  12.846  0.00  0.00    +0.000 A 
ATOM     21  C   UNL     1       7.258   5.088  14.165  0.00  0.00    +0.000 A 
BRANCH  21  22
ATOM     22  O   UNL     1       7.900   5.896  15.068  0.00  0.00    +0.000 OA
ATOM     23  H   UNL     1       8.839   5.644  15.112  0.00  0.00    +0.000 HD
ENDBRANCH  21  22
ENDBRANCH   4  16
TORSDOF 5
ENDMDL
MODEL 4
REMARK VINA RESULT:      -6.4      1.128      1.635
REMARK  Name = 
REMARK  6 active torsions:
REMARK  status: ('A' for Active; 'I' for Inactive)
REMARK    1  A    between atoms: C_1  and  N_2
REMARK    2  A    between atoms: C_3  and  C_4
REMARK    3  A    between atoms: C_4  and  O_6
REMARK    4  A    between atoms: C_9  and  C_10
REMARK    5  A    between atoms: C_13  and  C_14
REMARK    6  A    between atoms: C_19  and  O_20
REMARK                            x       y       z     vdW  Elec       q    Type
REMARK                         _______ _______ _______ _____ _____    ______ ____
ROOT
ATOM      1  C   UNL     1       3.762   4.870  19.407  0.00  0.00    +0.000 A 
ATOM      2  C   UNL     1       2.872   4.335  20.322  0.00  0.00    +0.000 A 
ATOM      3  S   UNL     1       1.634   5.447  20.670  0.00  0.00    +0.000 S 
ATOM      4  C   UNL     1       2.408   6.634  19.681  0.00  0.00    +0.000 A 
ATOM      5  N   UNL     1       3.465   6.179  19.022  0.00  0.00    +0.000 NA
ENDROOT
BRANCH   1  11
ATOM      6  C   UNL     1       6.917   5.440  19.337  0.00  0.00    +0.000 C 
ATOM      7  N   UNL     1       5.903   5.176  18.306  0.00  0.00    +0.000 NA
ATOM      8  C   UNL     1       6.530   4.647  17.057  0.00  0.00    +0.000 C 
ATOM      9  C   UNL     1       5.423   4.043  16.204  0.00  0.00    +0.000 C 
ATOM     10  S   UNL     1       4.428   3.120  17.386  0.00  0.00    +0.000 S 
ATOM     11  C   UNL     1       4.943   4.154  18.800  0.00  0.00    +0.000 C 
BRANCH   8  12
ATOM     12  C   UNL     1       7.144   5.788  16.254  0.00  0.00    +0.000 C 
ATOM     13  O   UNL     1       7.233   6.940  16.649  0.00  0.00    +0.000 OA
BRANCH  12  14
ATOM     14  O   UNL     1       7.652   5.373  15.064  0.00  0.00    +0.000 OA
ATOM     15  H   UNL     1       8.351   6.014  14.792  0.00  0.00    +0.000 HD
ENDBRANCH  12  14
ENDBRANCH   8  12
ENDBRANCH   1  11
BRANCH   4  16
ATOM     16  C   UNL     1       1.833   7.990  19.530  0.00  0.00    +0.000 A 
ATOM     17  C   UNL     1       1.712   8.529  18.236  0.00  0.00    +0.000 A 
ATOM     18  C   UNL     1       1.136   9.787  18.025  0.00  0.00    +0.000 A 
ATOM     19  C   UNL     1       0.683  10.537  19.105  0.00  0.00    +0.000 A 
ATOM     20  C   UNL     1       0.815  10.040  20.399  0.00  0.00    +0.000 A 
ATOM     21  C   UNL     1       1.394   8.784  20.607  0.00  0.00    +0.000 A 
BRANCH  21  22
ATOM     22  O   UNL     1       1.549   8.350  21.898  0.00  0.00    +0.000 OA
ATOM     23  H   UNL     1       0.753   8.577  22.410  0.00  0.00    +0.000 HD
ENDBRANCH  21  22
ENDBRANCH   4  16
TORSDOF 5
ENDMDL
MODEL 5
REMARK VINA RESULT:      -6.2      2.217      2.941
REMARK  Name = 
REMARK  6 active torsions:
REMARK  status: ('A' for Active; 'I' for Inactive)
REMARK    1  A    between atoms: C_1  and  N_2
REMARK    2  A    between atoms: C_3  and  C_4
REMARK    3  A    between atoms: C_4  and  O_6
REMARK    4  A    between atoms: C_9  and  C_10
REMARK    5  A    between atoms: C_13  and  C_14
REMARK    6  A    between atoms: C_19  and  O_20
REMARK                            x       y       z     vdW  Elec       q    Type
REMARK                         _______ _______ _______ _____ _____    ______ ____
ROOT
ATOM      1  C   UNL     1       2.782   6.993  18.722  0.00  0.00    +0.000 A 
ATOM      2  C   UNL     1       2.790   7.815  17.609  0.00  0.00    +0.000 A 
ATOM      3  S   UNL     1       1.983   9.274  17.939  0.00  0.00    +0.000 S 
ATOM      4  C   UNL     1       1.554   8.693  19.510  0.00  0.00    +0.000 A 
ATOM      5  N   UNL     1       2.098   7.524  19.817  0.00  0.00    +0.000 NA
ENDROOT
BRANCH   1  11
ATOM      6  C   UNL     1       5.815   6.000  18.397  0.00  0.00    +0.000 C 
ATOM      7  N   UNL     1       4.534   5.585  17.806  0.00  0.00    +0.000 NA
ATOM      8  C   UNL     1       4.601   4.176  17.310  0.00  0.00    +0.000 C 
ATOM      9  C   UNL     1       3.174   3.698  17.080  0.00  0.00    +0.000 C 
ATOM     10  S   UNL     1       2.288   4.290  18.530  0.00  0.00    +0.000 S 
ATOM     11  C   UNL     1       3.464   5.652  18.836  0.00  0.00    +0.000 C 
BRANCH   8  12
ATOM     12  C   UNL     1       5.314   4.128  15.963  0.00  0.00    +0.000 C 
ATOM     13  O   UNL     1       5.283   5.024  15.133  0.00  0.00    +0.000 OA
BRANCH  12  14
ATOM     14  O   UNL     1       6.053   3.000  15.805  0.00  0.00    +0.000 OA
ATOM     15  H   UNL     1       5.673   2.303  16.392  0.00  0.00    +0.000 HD
ENDBRANCH  12  14
ENDBRANCH   8  12
ENDBRANCH   1  11
BRANCH   4  16
ATOM     16  C   UNL     1       0.743   9.521  20.432  0.00  0.00    +0.000 A 
ATOM     17  C   UNL     1      -0.179  10.431  19.884  0.00  0.00    +0.000 A 
ATOM     18  C   UNL     1      -1.005  11.208  20.704  0.00  0.00    +0.000 A 
ATOM     19  C   UNL     1      -0.916  11.102  22.087  0.00  0.00    +0.000 A 
ATOM     20  C   UNL     1       0.008  10.228  22.657  0.00  0.00    +0.000 A 
ATOM     21  C   UNL     1       0.834   9.456  21.835  0.00  0.00    +0.000 A 
BRANCH  21  22
ATOM     22  O   UNL     1       1.762   8.642  22.434  0.00  0.00    +0.000 OA
ATOM     23  H   UNL     1       1.541   7.714  22.247  0.00  0.00    +0.000 HD
ENDBRANCH  21  22
ENDBRANCH   4  16
TORSDOF 5
ENDMDL
MODEL 6
REMARK VINA RESULT:      -6.2      1.768      2.349
REMARK  Name = 
REMARK  6 active torsions:
REMARK  status: ('A' for Active; 'I' for Inactive)
REMARK    1  A    between atoms: C_1  and  N_2
REMARK    2  A    between atoms: C_3  and  C_4
REMARK    3  A    between atoms: C_4  and  O_6
REMARK    4  A    between atoms: C_9  and  C_10
REMARK    5  A    between atoms: C_13  and  C_14
REMARK    6  A    between atoms: C_19  and  O_20
REMARK                            x       y       z     vdW  Elec       q    Type
REMARK                         _______ _______ _______ _____ _____    ______ ____
ROOT
ATOM      1  C   UNL     1       3.155   6.572  18.543  0.00  0.00    +0.000 A 
ATOM      2  C   UNL     1       3.142   7.486  17.506  0.00  0.00    +0.000 A 
ATOM      3  S   UNL     1       2.297   8.891  17.957  0.00  0.00    +0.000 S 
ATOM      4  C   UNL     1       1.882   8.165  19.470  0.00  0.00    +0.000 A 
ATOM      5  N   UNL     1       2.455   6.988  19.678  0.00  0.00    +0.000 NA
ENDROOT
BRANCH   1  11
ATOM      6  C   UNL     1       6.077   5.616  19.458  0.00  0.00    +0.000 C 
ATOM      7  N   UNL     1       5.301   5.486  18.216  0.00  0.00    +0.000 NA
ATOM      8  C   UNL     1       5.783   4.332  17.398  0.00  0.00    +0.000 C 
ATOM      9  C   UNL     1       4.716   4.026  16.356  0.00  0.00    +0.000 C 
ATOM     10  S   UNL     1       3.176   4.123  17.281  0.00  0.00    +0.000 S 
ATOM     11  C   UNL     1       3.872   5.244  18.544  0.00  0.00    +0.000 C 
BRANCH   8  12
ATOM     12  C   UNL     1       7.051   4.717  16.643  0.00  0.00    +0.000 C 
ATOM     13  O   UNL     1       7.096   5.544  15.746  0.00  0.00    +0.000 OA
BRANCH  12  14
ATOM     14  O   UNL     1       8.154   4.087  17.124  0.00  0.00    +0.000 OA
ATOM     15  H   UNL     1       8.115   4.115  18.110  0.00  0.00    +0.000 HD
ENDBRANCH  12  14
ENDBRANCH   8  12
ENDBRANCH   1  11
BRANCH   4  16
ATOM     16  C   UNL     1       1.048   8.889  20.457  0.00  0.00    +0.000 A 
ATOM     17  C   UNL     1       1.262   8.644  21.826  0.00  0.00    +0.000 A 
ATOM     18  C   UNL     1       0.536   9.330  22.807  0.00  0.00    +0.000 A 
ATOM     19  C   UNL     1      -0.426  10.263  22.439  0.00  0.00    +0.000 A 
ATOM     20  C   UNL     1      -0.678  10.506  21.091  0.00  0.00    +0.000 A 
ATOM     21  C   UNL     1       0.046   9.817  20.113  0.00  0.00    +0.000 A 
BRANCH  21  22
ATOM     22  O   UNL     1      -0.263  10.049  18.797  0.00  0.00    +0.000 OA
ATOM     23  H   UNL     1      -0.963  10.722  18.748  0.00  0.00    +0.000 HD
ENDBRANCH  21  22
ENDBRANCH   4  16
TORSDOF 5
ENDMDL
MODEL 7
REMARK VINA RESULT:      -6.2      1.837      2.175
REMARK  Name = 
REMARK  6 active torsions:
REMARK  status: ('A' for Active; 'I' for Inactive)
REMARK    1  A    between atoms: C_1  and  N_2
REMARK    2  A    between atoms: C_3  and  C_4
REMARK    3  A    between atoms: C_4  and  O_6
REMARK    4  A    between atoms: C_9  and  C_10
REMARK    5  A    between atoms: C_13  and  C_14
REMARK    6  A    between atoms: C_19  and  O_20
REMARK                            x       y       z     vdW  Elec       q    Type
REMARK                         _______ _______ _______ _____ _____    ______ ____
ROOT
ATOM      1  C   UNL     1       3.170   6.312  18.590  0.00  0.00    +0.000 A 
ATOM      2  C   UNL     1       2.832   5.747  19.807  0.00  0.00    +0.000 A 
ATOM      3  S   UNL     1       1.762   6.757  20.658  0.00  0.00    +0.000 S 
ATOM      4  C   UNL     1       1.896   7.957  19.421  0.00  0.00    +0.000 A 
ATOM      5  N   UNL     1       2.598   7.567  18.366  0.00  0.00    +0.000 NA
ENDROOT
BRANCH   1  11
ATOM      6  C   UNL     1       4.722   3.515  18.360  0.00  0.00    +0.000 C 
ATOM      7  N   UNL     1       5.121   4.922  18.205  0.00  0.00    +0.000 NA
ATOM      8  C   UNL     1       6.352   5.043  17.365  0.00  0.00    +0.000 C 
ATOM      9  C   UNL     1       6.474   6.498  16.932  0.00  0.00    +0.000 C 
ATOM     10  S   UNL     1       4.797   6.945  16.459  0.00  0.00    +0.000 S 
ATOM     11  C   UNL     1       4.034   5.677  17.529  0.00  0.00    +0.000 C 
BRANCH   8  12
ATOM     12  C   UNL     1       7.588   4.715  18.195  0.00  0.00    +0.000 C 
ATOM     13  O   UNL     1       8.524   4.036  17.801  0.00  0.00    +0.000 OA
BRANCH  12  14
ATOM     14  O   UNL     1       7.574   5.320  19.411  0.00  0.00    +0.000 OA
ATOM     15  H   UNL     1       6.838   5.978  19.415  0.00  0.00    +0.000 HD
ENDBRANCH  12  14
ENDBRANCH   8  12
ENDBRANCH   1  11
BRANCH   4  16
ATOM     16  C   UNL     1       1.174   9.245  19.530  0.00  0.00    +0.000 A 
ATOM     17  C   UNL     1       0.362   9.468  20.656  0.00  0.00    +0.000 A 
ATOM     18  C   UNL     1      -0.310  10.683  20.838  0.00  0.00    +0.000 A 
ATOM     19  C   UNL     1      -0.195  11.693  19.889  0.00  0.00    +0.000 A 
ATOM     20  C   UNL     1       0.581  11.489  18.750  0.00  0.00    +0.000 A 
ATOM     21  C   UNL     1       1.248  10.274  18.570  0.00  0.00    +0.000 A 
BRANCH  21  22
ATOM     22  O   UNL     1       1.963  10.094  17.414  0.00  0.00    +0.000 OA
ATOM     23  H   UNL     1       1.372  10.214  16.650  0.00  0.00    +0.000 HD
ENDBRANCH  21  22
ENDBRANCH   4  16
TORSDOF 5
ENDMDL
MODEL 8
REMARK VINA RESULT:      -6.2      2.719      3.601
REMARK  Name = 
REMARK  6 active torsions:
REMARK  status: ('A' for Active; 'I' for Inactive)
REMARK    1  A    between atoms: C_1  and  N_2
REMARK    2  A    between atoms: C_3  and  C_4
REMARK    3  A    between atoms: C_4  and  O_6
REMARK    4  A    between atoms: C_9  and  C_10
REMARK    5  A    between atoms: C_13  and  C_14
REMARK    6  A    between atoms: C_19  and  O_20
REMARK                            x       y       z     vdW  Elec       q    Type
REMARK                         _______ _______ _______ _____ _____    ______ ____
ROOT
ATOM      1  C   UNL     1       2.816   6.451  19.373  0.00  0.00    +0.000 A 
ATOM      2  C   UNL     1       3.132   6.911  18.107  0.00  0.00    +0.000 A 
ATOM      3  S   UNL     1       2.448   8.444  17.841  0.00  0.00    +0.000 S 
ATOM      4  C   UNL     1       1.660   8.370  19.378  0.00  0.00    +0.000 A 
ATOM      5  N   UNL     1       1.998   7.314  20.104  0.00  0.00    +0.000 NA
ENDROOT
BRANCH   1  11
ATOM      6  C   UNL     1       5.042   4.289  18.562  0.00  0.00    +0.000 C 
ATOM      7  N   UNL     1       3.614   4.208  18.903  0.00  0.00    +0.000 NA
ATOM      8  C   UNL     1       3.252   2.840  19.382  0.00  0.00    +0.000 C 
ATOM      9  C   UNL     1       1.896   2.934  20.069  0.00  0.00    +0.000 C 
ATOM     10  S   UNL     1       2.026   4.427  21.066  0.00  0.00    +0.000 S 
ATOM     11  C   UNL     1       3.307   5.168  19.995  0.00  0.00    +0.000 C 
BRANCH   8  12
ATOM     12  C   UNL     1       3.090   1.894  18.197  0.00  0.00    +0.000 C 
ATOM     13  O   UNL     1       2.351   2.097  17.247  0.00  0.00    +0.000 OA
BRANCH  12  14
ATOM     14  O   UNL     1       3.916   0.818  18.273  0.00  0.00    +0.000 OA
ATOM     15  H   UNL     1       3.370   0.032  18.515  0.00  0.00    +0.000 HD
ENDBRANCH  12  14
ENDBRANCH   8  12
ENDBRANCH   1  11
BRANCH   4  16
ATOM     16  C   UNL     1       0.785   9.473  19.838  0.00  0.00    +0.000 A 
ATOM     17  C   UNL     1       0.799   9.817  21.202  0.00  0.00    +0.000 A 
ATOM     18  C   UNL     1       0.028  10.879  21.690  0.00  0.00    +0.000 A 
ATOM     19  C   UNL     1      -0.782  11.608  20.826  0.00  0.00    +0.000 A 
ATOM     20  C   UNL     1      -0.836  11.271  19.475  0.00  0.00    +0.000 A 
ATOM     21  C   UNL     1      -0.067  10.208  18.992  0.00  0.00    +0.000 A 
BRANCH  21  22
ATOM     22  O   UNL     1      -0.183   9.878  17.666  0.00  0.00    +0.000 OA
ATOM     23  H   UNL     1       0.239   9.015  17.513  0.00  0.00    +0.000 HD
ENDBRANCH  21  22
ENDBRANCH   4  16
TORSDOF 5
ENDMDL
MODEL 9
REMARK VINA RESULT:      -6.2      3.490      6.958
REMARK  Name = 
REMARK  6 active torsions:
REMARK  status: ('A' for Active; 'I' for Inactive)
REMARK    1  A    between atoms: C_1  and  N_2
REMARK    2  A    between atoms: C_3  and  C_4
REMARK    3  A    between atoms: C_4  and  O_6
REMARK    4  A    between atoms: C_9  and  C_10
REMARK    5  A    between atoms: C_13  and  C_14
REMARK    6  A    between atoms: C_19  and  O_20
REMARK                            x       y       z     vdW  Elec       q    Type
REMARK                         _______ _______ _______ _____ _____    ______ ____
ROOT
ATOM      1  C   UNL     1       5.198   5.129  17.873  0.00  0.00    +0.000 A 
ATOM      2  C   UNL     1       6.409   5.761  18.091  0.00  0.00    +0.000 A 
ATOM      3  S   UNL     1       7.325   5.806  16.660  0.00  0.00    +0.000 S 
ATOM      4  C   UNL     1       6.118   4.872  15.847  0.00  0.00    +0.000 A 
ATOM      5  N   UNL     1       5.030   4.652  16.571  0.00  0.00    +0.000 NA
ENDROOT
BRANCH   1  11
ATOM      6  C   UNL     1       4.264   2.733  19.791  0.00  0.00    +0.000 C 
ATOM      7  N   UNL     1       3.580   3.573  18.796  0.00  0.00    +0.000 NA
ATOM      8  C   UNL     1       2.106   3.610  19.045  0.00  0.00    +0.000 C 
ATOM      9  C   UNL     1       1.532   4.773  18.249  0.00  0.00    +0.000 C 
ATOM     10  S   UNL     1       2.708   6.106  18.532  0.00  0.00    +0.000 S 
ATOM     11  C   UNL     1       4.090   4.966  18.884  0.00  0.00    +0.000 C 
BRANCH   8  12
ATOM     12  C   UNL     1       1.453   2.338  18.518  0.00  0.00    +0.000 C 
ATOM     13  O   UNL     1       0.316   1.983  18.787  0.00  0.00    +0.000 OA
BRANCH  12  14
ATOM     14  O   UNL     1       2.252   1.663  17.651  0.00  0.00    +0.000 OA
ATOM     15  H   UNL     1       3.003   2.255  17.406  0.00  0.00    +0.000 HD
ENDBRANCH  12  14
ENDBRANCH   8  12
ENDBRANCH   1  11
BRANCH   4  16
ATOM     16  C   UNL     1       6.289   4.478  14.429  0.00  0.00    +0.000 A 
ATOM     17  C   UNL     1       5.353   3.595  13.860  0.00  0.00    +0.000 A 
ATOM     18  C   UNL     1       5.435   3.221  12.514  0.00  0.00    +0.000 A 
ATOM     19  C   UNL     1       6.462   3.710  11.714  0.00  0.00    +0.000 A 
ATOM     20  C   UNL     1       7.418   4.564  12.259  0.00  0.00    +0.000 A 
ATOM     21  C   UNL     1       7.336   4.933  13.605  0.00  0.00    +0.000 A 
BRANCH  21  22
ATOM     22  O   UNL     1       8.322   5.738  14.116  0.00  0.00    +0.000 OA
ATOM     23  H   UNL     1       8.210   6.640  13.768  0.00  0.00    +0.000 HD
ENDBRANCH  21  22
ENDBRANCH   4  16
TORSDOF 5
ENDMDL
