MODEL 1
REMARK VINA RESULT:      -7.0      0.000      0.000
REMARK  Name = 
REMARK  11 active torsions:
REMARK  status: ('A' for Active; 'I' for Inactive)
REMARK    1  A    between atoms: C_1  and  O_2
REMARK    2  A    between atoms: O_2  and  C_3
REMARK    3  A    between atoms: C_7  and  N_8
REMARK    4  A    between atoms: N_8  and  C_9
REMARK    5  A    between atoms: C_9  and  N_11
REMARK    6  A    between atoms: N_11  and  C_12
REMARK    7  A    between atoms: N_11  and  C_20
REMARK    8  A    between atoms: C_12  and  C_13
REMARK    9  A    between atoms: C_13  and  C_14
REMARK   10  A    between atoms: C_14  and  N_15
REMARK   11  A    between atoms: C_20  and  C_21
REMARK                            x       y       z     vdW  Elec       q    Type
REMARK                         _______ _______ _______ _____ _____    ______ ____
ROOT
ATOM      1  N   UNL     1       4.977   4.748  16.670  0.00  0.00    +0.000 N 
ENDROOT
BRANCH   1   2
ATOM      2  C   UNL     1       4.859   5.931  17.452  0.00  0.00    +0.000 C 
ATOM      3  S   UNL     1       6.001   7.168  17.396  0.00  0.00    +0.000 S 
BRANCH   2   4
ATOM      4  N   UNL     1       3.663   5.967  18.181  0.00  0.00    +0.000 N 
ATOM      5  H   UNL     1       3.220   5.076  18.337  0.00  0.00    +0.000 HD
BRANCH   4  10
ATOM      6  C   UNL     1       1.592   8.341  20.208  0.00  0.00    +0.000 A 
ATOM      7  C   UNL     1       1.266   9.282  19.234  0.00  0.00    +0.000 A 
ATOM      8  C   UNL     1       1.718   9.110  17.928  0.00  0.00    +0.000 A 
ATOM      9  C   UNL     1       2.511   8.003  17.605  0.00  0.00    +0.000 A 
ATOM     10  C   UNL     1       2.841   7.050  18.576  0.00  0.00    +0.000 A 
ATOM     11  C   UNL     1       2.318   7.200  19.857  0.00  0.00    +0.000 A 
BRANCH   6  13
ATOM     12  C   UNL     1      -0.275   8.748  21.554  0.00  0.00    +0.000 C 
ATOM     13  O   UNL     1       1.144   8.585  21.478  0.00  0.00    +0.000 OA
ENDBRANCH   6  13
ENDBRANCH   4  10
ENDBRANCH   2   4
ENDBRANCH   1   2
BRANCH   1  14
ATOM     14  C   UNL     1       3.939   3.695  16.597  0.00  0.00    +0.000 C 
BRANCH  14  15
ATOM     15  C   UNL     1       3.865   2.583  17.661  0.00  0.00    +0.000 C 
BRANCH  15  16
ATOM     16  C   UNL     1       2.498   2.381  18.331  0.00  0.00    +0.000 C 
BRANCH  16  17
ATOM     17  N   UNL     1       2.226   3.428  19.335  0.00  0.00    +0.000 NA
ATOM     18  C   UNL     1       3.209   3.533  20.418  0.00  0.00    +0.000 C 
ATOM     19  C   UNL     1       2.687   2.661  21.539  0.00  0.00    +0.000 C 
ATOM     20  C   UNL     1       1.181   2.783  21.422  0.00  0.00    +0.000 C 
ATOM     21  C   UNL     1       0.922   3.248  19.992  0.00  0.00    +0.000 C 
ENDBRANCH  16  17
ENDBRANCH  15  16
ENDBRANCH  14  15
ENDBRANCH   1  14
BRANCH   1  22
ATOM     22  C   UNL     1       6.329   4.261  16.314  0.00  0.00    +0.000 C 
BRANCH  22  23
ATOM     23  C   UNL     1       6.620   4.359  14.850  0.00  0.00    +0.000 A 
ATOM     24  C   UNL     1       6.106   3.777  13.707  0.00  0.00    +0.000 A 
ATOM     25  C   UNL     1       6.844   4.302  12.614  0.00  0.00    +0.000 A 
ATOM     26  C   UNL     1       7.753   5.178  13.157  0.00  0.00    +0.000 A 
ATOM     27  O   UNL     1       7.630   5.217  14.509  0.00  0.00    +0.000 OA
ENDBRANCH  22  23
ENDBRANCH   1  22
TORSDOF 10
ENDMDL
MODEL 2
REMARK VINA RESULT:      -6.6      1.095      1.713
REMARK  Name = 
REMARK  11 active torsions:
REMARK  status: ('A' for Active; 'I' for Inactive)
REMARK    1  A    between atoms: C_1  and  O_2
REMARK    2  A    between atoms: O_2  and  C_3
REMARK    3  A    between atoms: C_7  and  N_8
REMARK    4  A    between atoms: N_8  and  C_9
REMARK    5  A    between atoms: C_9  and  N_11
REMARK    6  A    between atoms: N_11  and  C_12
REMARK    7  A    between atoms: N_11  and  C_20
REMARK    8  A    between atoms: C_12  and  C_13
REMARK    9  A    between atoms: C_13  and  C_14
REMARK   10  A    between atoms: C_14  and  N_15
REMARK   11  A    between atoms: C_20  and  C_21
REMARK                            x       y       z     vdW  Elec       q    Type
REMARK                         _______ _______ _______ _____ _____    ______ ____
ROOT
ATOM      1  N   UNL     1       5.176   4.885  16.422  0.00  0.00    +0.000 N 
ENDROOT
BRANCH   1   2
ATOM      2  C   UNL     1       4.896   6.052  17.188  0.00  0.00    +0.000 C 
ATOM      3  S   UNL     1       6.060   7.231  17.495  0.00  0.00    +0.000 S 
BRANCH   2   4
ATOM      4  N   UNL     1       3.549   6.129  17.565  0.00  0.00    +0.000 N 
ATOM      5  H   UNL     1       2.936   5.455  17.133  0.00  0.00    +0.000 HD
BRANCH   4  10
ATOM      6  C   UNL     1       1.710   9.250  18.519  0.00  0.00    +0.000 A 
ATOM      7  C   UNL     1       1.371   8.946  19.835  0.00  0.00    +0.000 A 
ATOM      8  C   UNL     1       1.767   7.732  20.390  0.00  0.00    +0.000 A 
ATOM      9  C   UNL     1       2.488   6.815  19.616  0.00  0.00    +0.000 A 
ATOM     10  C   UNL     1       2.837   7.111  18.293  0.00  0.00    +0.000 A 
ATOM     11  C   UNL     1       2.497   8.361  17.782  0.00  0.00    +0.000 A 
BRANCH   6  13
ATOM     12  C   UNL     1       0.524  11.210  18.981  0.00  0.00    +0.000 C 
ATOM     13  O   UNL     1       1.263  10.445  18.024  0.00  0.00    +0.000 OA
ENDBRANCH   6  13
ENDBRANCH   4  10
ENDBRANCH   2   4
ENDBRANCH   1   2
BRANCH   1  14
ATOM     14  C   UNL     1       4.290   3.701  16.363  0.00  0.00    +0.000 C 
BRANCH  14  15
ATOM     15  C   UNL     1       3.946   2.906  17.637  0.00  0.00    +0.000 C 
BRANCH  15  16
ATOM     16  C   UNL     1       2.465   2.551  17.831  0.00  0.00    +0.000 C 
BRANCH  16  17
ATOM     17  N   UNL     1       2.197   2.073  19.202  0.00  0.00    +0.000 NA
ATOM     18  C   UNL     1       0.845   2.336  19.707  0.00  0.00    +0.000 C 
ATOM     19  C   UNL     1       0.926   3.656  20.442  0.00  0.00    +0.000 C 
ATOM     20  C   UNL     1       2.325   3.662  21.024  0.00  0.00    +0.000 C 
ATOM     21  C   UNL     1       3.116   2.660  20.189  0.00  0.00    +0.000 C 
ENDBRANCH  16  17
ENDBRANCH  15  16
ENDBRANCH  14  15
ENDBRANCH   1  14
BRANCH   1  22
ATOM     22  C   UNL     1       6.583   4.580  16.075  0.00  0.00    +0.000 C 
BRANCH  22  23
ATOM     23  C   UNL     1       6.831   4.565  14.600  0.00  0.00    +0.000 A 
ATOM     24  C   UNL     1       6.311   3.868  13.525  0.00  0.00    +0.000 A 
ATOM     25  C   UNL     1       6.999   4.327  12.371  0.00  0.00    +0.000 A 
ATOM     26  C   UNL     1       7.884   5.280  12.811  0.00  0.00    +0.000 A 
ATOM     27  O   UNL     1       7.796   5.430  14.159  0.00  0.00    +0.000 OA
ENDBRANCH  22  23
ENDBRANCH   1  22
TORSDOF 10
ENDMDL
MODEL 3
REMARK VINA RESULT:      -6.5      0.862      1.170
REMARK  Name = 
REMARK  11 active torsions:
REMARK  status: ('A' for Active; 'I' for Inactive)
REMARK    1  A    between atoms: C_1  and  O_2
REMARK    2  A    between atoms: O_2  and  C_3
REMARK    3  A    between atoms: C_7  and  N_8
REMARK    4  A    between atoms: N_8  and  C_9
REMARK    5  A    between atoms: C_9  and  N_11
REMARK    6  A    between atoms: N_11  and  C_12
REMARK    7  A    between atoms: N_11  and  C_20
REMARK    8  A    between atoms: C_12  and  C_13
REMARK    9  A    between atoms: C_13  and  C_14
REMARK   10  A    between atoms: C_14  and  N_15
REMARK   11  A    between atoms: C_20  and  C_21
REMARK                            x       y       z     vdW  Elec       q    Type
REMARK                         _______ _______ _______ _____ _____    ______ ____
ROOT
ATOM      1  N   UNL     1       4.796   4.487  16.963  0.00  0.00    +0.000 N 
ENDROOT
BRANCH   1   2
ATOM      2  C   UNL     1       4.639   5.604  17.832  0.00  0.00    +0.000 C 
ATOM      3  S   UNL     1       5.727   5.943  19.072  0.00  0.00    +0.000 S 
BRANCH   2   4
ATOM      4  N   UNL     1       3.546   6.404  17.474  0.00  0.00    +0.000 N 
ATOM      5  H   UNL     1       3.355   6.466  16.486  0.00  0.00    +0.000 HD
BRANCH   4  10
ATOM      6  C   UNL     1       1.653   8.059  20.251  0.00  0.00    +0.000 A 
ATOM      7  C   UNL     1       1.278   9.244  19.624  0.00  0.00    +0.000 A 
ATOM      8  C   UNL     1       1.638   9.471  18.298  0.00  0.00    +0.000 A 
ATOM      9  C   UNL     1       2.390   8.513  17.608  0.00  0.00    +0.000 A 
ATOM     10  C   UNL     1       2.769   7.317  18.227  0.00  0.00    +0.000 A 
ATOM     11  C   UNL     1       2.337   7.077  19.528  0.00  0.00    +0.000 A 
BRANCH   6  13
ATOM     12  C   UNL     1       1.127   9.160  22.244  0.00  0.00    +0.000 C 
ATOM     13  O   UNL     1       1.296   7.913  21.564  0.00  0.00    +0.000 OA
ENDBRANCH   6  13
ENDBRANCH   4  10
ENDBRANCH   2   4
ENDBRANCH   1   2
BRANCH   1  14
ATOM     14  C   UNL     1       3.780   3.426  16.785  0.00  0.00    +0.000 C 
BRANCH  14  15
ATOM     15  C   UNL     1       3.705   2.231  17.754  0.00  0.00    +0.000 C 
BRANCH  15  16
ATOM     16  C   UNL     1       3.908   2.555  19.241  0.00  0.00    +0.000 C 
BRANCH  16  17
ATOM     17  N   UNL     1       2.736   2.159  20.047  0.00  0.00    +0.000 NA
ATOM     18  C   UNL     1       1.444   2.231  19.357  0.00  0.00    +0.000 C 
ATOM     19  C   UNL     1       0.886   3.605  19.661  0.00  0.00    +0.000 C 
ATOM     20  C   UNL     1       1.390   3.900  21.059  0.00  0.00    +0.000 C 
ATOM     21  C   UNL     1       2.589   2.978  21.261  0.00  0.00    +0.000 C 
ENDBRANCH  16  17
ENDBRANCH  15  16
ENDBRANCH  14  15
ENDBRANCH   1  14
BRANCH   1  22
ATOM     22  C   UNL     1       6.165   4.051  16.603  0.00  0.00    +0.000 C 
BRANCH  22  23
ATOM     23  C   UNL     1       6.478   4.248  15.154  0.00  0.00    +0.000 A 
ATOM     24  C   UNL     1       6.008   3.716  13.968  0.00  0.00    +0.000 A 
ATOM     25  C   UNL     1       6.746   4.333  12.923  0.00  0.00    +0.000 A 
ATOM     26  C   UNL     1       7.610   5.208  13.535  0.00  0.00    +0.000 A 
ATOM     27  O   UNL     1       7.461   5.161  14.885  0.00  0.00    +0.000 OA
ENDBRANCH  22  23
ENDBRANCH   1  22
TORSDOF 10
ENDMDL
MODEL 4
REMARK VINA RESULT:      -6.5      2.558      7.212
REMARK  Name = 
REMARK  11 active torsions:
REMARK  status: ('A' for Active; 'I' for Inactive)
REMARK    1  A    between atoms: C_1  and  O_2
REMARK    2  A    between atoms: O_2  and  C_3
REMARK    3  A    between atoms: C_7  and  N_8
REMARK    4  A    between atoms: N_8  and  C_9
REMARK    5  A    between atoms: C_9  and  N_11
REMARK    6  A    between atoms: N_11  and  C_12
REMARK    7  A    between atoms: N_11  and  C_20
REMARK    8  A    between atoms: C_12  and  C_13
REMARK    9  A    between atoms: C_13  and  C_14
REMARK   10  A    between atoms: C_14  and  N_15
REMARK   11  A    between atoms: C_20  and  C_21
REMARK                            x       y       z     vdW  Elec       q    Type
REMARK                         _______ _______ _______ _____ _____    ______ ____
ROOT
ATOM      1  N   UNL     1       1.909   6.201  20.274  0.00  0.00    +0.000 N 
ENDROOT
BRANCH   1   2
ATOM      2  C   UNL     1       2.906   6.582  19.333  0.00  0.00    +0.000 C 
ATOM      3  S   UNL     1       2.641   7.769  18.167  0.00  0.00    +0.000 S 
BRANCH   2   4
ATOM      4  N   UNL     1       4.124   5.925  19.554  0.00  0.00    +0.000 N 
ATOM      5  H   UNL     1       4.447   5.914  20.509  0.00  0.00    +0.000 HD
BRANCH   4  10
ATOM      6  C   UNL     1       5.815   4.466  16.547  0.00  0.00    +0.000 A 
ATOM      7  C   UNL     1       7.148   4.572  16.936  0.00  0.00    +0.000 A 
ATOM      8  C   UNL     1       7.466   5.103  18.183  0.00  0.00    +0.000 A 
ATOM      9  C   UNL     1       6.444   5.545  19.032  0.00  0.00    +0.000 A 
ATOM     10  C   UNL     1       5.101   5.440  18.652  0.00  0.00    +0.000 A 
ATOM     11  C   UNL     1       4.801   4.838  17.434  0.00  0.00    +0.000 A 
BRANCH   6  13
ATOM     12  C   UNL     1       6.595   4.292  14.350  0.00  0.00    +0.000 C 
ATOM     13  O   UNL     1       5.573   3.966  15.296  0.00  0.00    +0.000 OA
ENDBRANCH   6  13
ENDBRANCH   4  10
ENDBRANCH   2   4
ENDBRANCH   1   2
BRANCH   1  14
ATOM     14  C   UNL     1       1.015   7.155  20.967  0.00  0.00    +0.000 C 
BRANCH  14  15
ATOM     15  C   UNL     1       1.569   8.453  21.583  0.00  0.00    +0.000 C 
BRANCH  15  16
ATOM     16  C   UNL     1       0.531   9.409  22.189  0.00  0.00    +0.000 C 
BRANCH  16  17
ATOM     17  N   UNL     1       0.708  10.788  21.692  0.00  0.00    +0.000 NA
ATOM     18  C   UNL     1      -0.362  11.727  22.045  0.00  0.00    +0.000 C 
ATOM     19  C   UNL     1      -1.341  11.694  20.891  0.00  0.00    +0.000 C 
ATOM     20  C   UNL     1      -0.464  11.449  19.679  0.00  0.00    +0.000 C 
ATOM     21  C   UNL     1       0.825  10.844  20.226  0.00  0.00    +0.000 C 
ENDBRANCH  16  17
ENDBRANCH  15  16
ENDBRANCH  14  15
ENDBRANCH   1  14
BRANCH   1  22
ATOM     22  C   UNL     1       2.062   4.916  20.994  0.00  0.00    +0.000 C 
BRANCH  22  23
ATOM     23  C   UNL     1       1.833   3.724  20.119  0.00  0.00    +0.000 A 
ATOM     24  C   UNL     1       0.730   3.144  19.522  0.00  0.00    +0.000 A 
ATOM     25  C   UNL     1       1.200   2.006  18.816  0.00  0.00    +0.000 A 
ATOM     26  C   UNL     1       2.558   1.969  19.018  0.00  0.00    +0.000 A 
ATOM     27  O   UNL     1       2.952   3.001  19.809  0.00  0.00    +0.000 OA
ENDBRANCH  22  23
ENDBRANCH   1  22
TORSDOF 10
ENDMDL
MODEL 5
REMARK VINA RESULT:      -6.4      2.356      5.212
REMARK  Name = 
REMARK  11 active torsions:
REMARK  status: ('A' for Active; 'I' for Inactive)
REMARK    1  A    between atoms: C_1  and  O_2
REMARK    2  A    between atoms: O_2  and  C_3
REMARK    3  A    between atoms: C_7  and  N_8
REMARK    4  A    between atoms: N_8  and  C_9
REMARK    5  A    between atoms: C_9  and  N_11
REMARK    6  A    between atoms: N_11  and  C_12
REMARK    7  A    between atoms: N_11  and  C_20
REMARK    8  A    between atoms: C_12  and  C_13
REMARK    9  A    between atoms: C_13  and  C_14
REMARK   10  A    between atoms: C_14  and  N_15
REMARK   11  A    between atoms: C_20  and  C_21
REMARK                            x       y       z     vdW  Elec       q    Type
REMARK                         _______ _______ _______ _____ _____    ______ ____
ROOT
ATOM      1  N   UNL     1       4.637   4.693  17.437  0.00  0.00    +0.000 N 
ENDROOT
BRANCH   1   2
ATOM      2  C   UNL     1       3.388   5.196  17.897  0.00  0.00    +0.000 C 
ATOM      3  S   UNL     1       2.214   4.205  18.589  0.00  0.00    +0.000 S 
BRANCH   2   4
ATOM      4  N   UNL     1       3.302   6.590  17.782  0.00  0.00    +0.000 N 
ATOM      5  H   UNL     1       4.031   7.028  17.240  0.00  0.00    +0.000 HD
BRANCH   4  10
ATOM      6  C   UNL     1       1.387   8.434  20.420  0.00  0.00    +0.000 A 
ATOM      7  C   UNL     1       0.926   9.520  19.679  0.00  0.00    +0.000 A 
ATOM      8  C   UNL     1       1.237   9.617  18.326  0.00  0.00    +0.000 A 
ATOM      9  C   UNL     1       2.027   8.633  17.721  0.00  0.00    +0.000 A 
ATOM     10  C   UNL     1       2.493   7.536  18.455  0.00  0.00    +0.000 A 
ATOM     11  C   UNL     1       2.108   7.418  19.788  0.00  0.00    +0.000 A 
BRANCH   6  13
ATOM     12  C   UNL     1      -0.071   9.212  22.073  0.00  0.00    +0.000 C 
ATOM     13  O   UNL     1       1.073   8.415  21.752  0.00  0.00    +0.000 OA
ENDBRANCH   6  13
ENDBRANCH   4  10
ENDBRANCH   2   4
ENDBRANCH   1   2
BRANCH   1  14
ATOM     14  C   UNL     1       4.795   3.835  16.242  0.00  0.00    +0.000 C 
BRANCH  14  15
ATOM     15  C   UNL     1       5.077   4.451  14.858  0.00  0.00    +0.000 C 
BRANCH  15  16
ATOM     16  C   UNL     1       6.287   3.884  14.102  0.00  0.00    +0.000 C 
BRANCH  16  17
ATOM     17  N   UNL     1       6.130   4.029  12.641  0.00  0.00    +0.000 NA
ATOM     18  C   UNL     1       5.037   3.253  12.045  0.00  0.00    +0.000 C 
ATOM     19  C   UNL     1       5.650   1.940  11.606  0.00  0.00    +0.000 C 
ATOM     20  C   UNL     1       7.062   2.316  11.204  0.00  0.00    +0.000 C 
ATOM     21  C   UNL     1       7.344   3.641  11.905  0.00  0.00    +0.000 C 
ENDBRANCH  16  17
ENDBRANCH  15  16
ENDBRANCH  14  15
ENDBRANCH   1  14
BRANCH   1  22
ATOM     22  C   UNL     1       5.752   4.560  18.403  0.00  0.00    +0.000 C 
BRANCH  22  23
ATOM     23  C   UNL     1       6.709   5.709  18.353  0.00  0.00    +0.000 A 
ATOM     24  C   UNL     1       7.853   6.062  19.043  0.00  0.00    +0.000 A 
ATOM     25  C   UNL     1       8.287   7.302  18.504  0.00  0.00    +0.000 A 
ATOM     26  C   UNL     1       7.389   7.621  17.515  0.00  0.00    +0.000 A 
ATOM     27  O   UNL     1       6.426   6.667  17.417  0.00  0.00    +0.000 OA
ENDBRANCH  22  23
ENDBRANCH   1  22
TORSDOF 10
ENDMDL
MODEL 6
REMARK VINA RESULT:      -6.4      0.953      1.256
REMARK  Name = 
REMARK  11 active torsions:
REMARK  status: ('A' for Active; 'I' for Inactive)
REMARK    1  A    between atoms: C_1  and  O_2
REMARK    2  A    between atoms: O_2  and  C_3
REMARK    3  A    between atoms: C_7  and  N_8
REMARK    4  A    between atoms: N_8  and  C_9
REMARK    5  A    between atoms: C_9  and  N_11
REMARK    6  A    between atoms: N_11  and  C_12
REMARK    7  A    between atoms: N_11  and  C_20
REMARK    8  A    between atoms: C_12  and  C_13
REMARK    9  A    between atoms: C_13  and  C_14
REMARK   10  A    between atoms: C_14  and  N_15
REMARK   11  A    between atoms: C_20  and  C_21
REMARK                            x       y       z     vdW  Elec       q    Type
REMARK                         _______ _______ _______ _____ _____    ______ ____
ROOT
ATOM      1  N   UNL     1       5.841   5.303  16.710  0.00  0.00    +0.000 N 
ENDROOT
BRANCH   1   2
ATOM      2  C   UNL     1       5.524   6.647  17.053  0.00  0.00    +0.000 C 
ATOM      3  S   UNL     1       6.703   7.767  17.496  0.00  0.00    +0.000 S 
BRANCH   2   4
ATOM      4  N   UNL     1       4.161   6.929  16.893  0.00  0.00    +0.000 N 
ATOM      5  H   UNL     1       3.789   6.773  15.969  0.00  0.00    +0.000 HD
BRANCH   4  10
ATOM      6  C   UNL     1       1.935   7.809  19.774  0.00  0.00    +0.000 A 
ATOM      7  C   UNL     1       1.445   9.039  19.343  0.00  0.00    +0.000 A 
ATOM      8  C   UNL     1       1.841   9.549  18.109  0.00  0.00    +0.000 A 
ATOM      9  C   UNL     1       2.743   8.830  17.316  0.00  0.00    +0.000 A 
ATOM     10  C   UNL     1       3.238   7.590  17.738  0.00  0.00    +0.000 A 
ATOM     11  C   UNL     1       2.773   7.064  18.940  0.00  0.00    +0.000 A 
BRANCH   6  13
ATOM     12  C   UNL     1       0.892   8.402  21.779  0.00  0.00    +0.000 C 
ATOM     13  O   UNL     1       1.532   7.380  21.010  0.00  0.00    +0.000 OA
ENDBRANCH   6  13
ENDBRANCH   4  10
ENDBRANCH   2   4
ENDBRANCH   1   2
BRANCH   1  14
ATOM     14  C   UNL     1       5.246   4.118  17.368  0.00  0.00    +0.000 C 
BRANCH  14  15
ATOM     15  C   UNL     1       3.909   3.529  16.880  0.00  0.00    +0.000 C 
BRANCH  15  16
ATOM     16  C   UNL     1       2.697   3.760  17.794  0.00  0.00    +0.000 C 
BRANCH  16  17
ATOM     17  N   UNL     1       2.736   2.878  18.978  0.00  0.00    +0.000 NA
ATOM     18  C   UNL     1       1.481   2.186  19.288  0.00  0.00    +0.000 C 
ATOM     19  C   UNL     1       0.748   3.073  20.272  0.00  0.00    +0.000 C 
ATOM     20  C   UNL     1       1.860   3.721  21.072  0.00  0.00    +0.000 C 
ATOM     21  C   UNL     1       3.108   3.603  20.203  0.00  0.00    +0.000 C 
ENDBRANCH  16  17
ENDBRANCH  15  16
ENDBRANCH  14  15
ENDBRANCH   1  14
BRANCH   1  22
ATOM     22  C   UNL     1       7.141   5.019  16.060  0.00  0.00    +0.000 C 
BRANCH  22  23
ATOM     23  C   UNL     1       7.011   4.711  14.602  0.00  0.00    +0.000 A 
ATOM     24  C   UNL     1       6.196   3.894  13.841  0.00  0.00    +0.000 A 
ATOM     25  C   UNL     1       6.602   4.058  12.491  0.00  0.00    +0.000 A 
ATOM     26  C   UNL     1       7.628   4.970  12.511  0.00  0.00    +0.000 A 
ATOM     27  O   UNL     1       7.888   5.369  13.783  0.00  0.00    +0.000 OA
ENDBRANCH  22  23
ENDBRANCH   1  22
TORSDOF 10
ENDMDL
MODEL 7
REMARK VINA RESULT:      -6.3      2.861      7.134
REMARK  Name = 
REMARK  11 active torsions:
REMARK  status: ('A' for Active; 'I' for Inactive)
REMARK    1  A    between atoms: C_1  and  O_2
REMARK    2  A    between atoms: O_2  and  C_3
REMARK    3  A    between atoms: C_7  and  N_8
REMARK    4  A    between atoms: N_8  and  C_9
REMARK    5  A    between atoms: C_9  and  N_11
REMARK    6  A    between atoms: N_11  and  C_12
REMARK    7  A    between atoms: N_11  and  C_20
REMARK    8  A    between atoms: C_12  and  C_13
REMARK    9  A    between atoms: C_13  and  C_14
REMARK   10  A    between atoms: C_14  and  N_15
REMARK   11  A    between atoms: C_20  and  C_21
REMARK                            x       y       z     vdW  Elec       q    Type
REMARK                         _______ _______ _______ _____ _____    ______ ____
ROOT
ATOM      1  N   UNL     1       1.868   8.272  18.754  0.00  0.00    +0.000 N 
ENDROOT
BRANCH   1   2
ATOM      2  C   UNL     1       1.852   7.771  20.087  0.00  0.00    +0.000 C 
ATOM      3  S   UNL     1       0.921   8.472  21.303  0.00  0.00    +0.000 S 
BRANCH   2   4
ATOM      4  N   UNL     1       2.619   6.607  20.225  0.00  0.00    +0.000 N 
ATOM      5  H   UNL     1       3.617   6.733  20.171  0.00  0.00    +0.000 HD
BRANCH   4  10
ATOM      6  C   UNL     1       1.666   3.152  19.134  0.00  0.00    +0.000 A 
ATOM      7  C   UNL     1       1.592   2.513  20.370  0.00  0.00    +0.000 A 
ATOM      8  C   UNL     1       1.838   3.231  21.537  0.00  0.00    +0.000 A 
ATOM      9  C   UNL     1       2.177   4.587  21.462  0.00  0.00    +0.000 A 
ATOM     10  C   UNL     1       2.251   5.240  20.226  0.00  0.00    +0.000 A 
ATOM     11  C   UNL     1       1.928   4.524  19.077  0.00  0.00    +0.000 A 
BRANCH   6  13
ATOM     12  C   UNL     1       2.643   2.060  17.313  0.00  0.00    +0.000 C 
ATOM     13  O   UNL     1       1.445   2.383  18.025  0.00  0.00    +0.000 OA
ENDBRANCH   6  13
ENDBRANCH   4  10
ENDBRANCH   2   4
ENDBRANCH   1   2
BRANCH   1  14
ATOM     14  C   UNL     1       2.470   7.556  17.607  0.00  0.00    +0.000 C 
BRANCH  14  15
ATOM     15  C   UNL     1       3.994   7.559  17.386  0.00  0.00    +0.000 C 
BRANCH  15  16
ATOM     16  C   UNL     1       4.648   6.185  17.176  0.00  0.00    +0.000 C 
BRANCH  16  17
ATOM     17  N   UNL     1       6.038   6.314  16.695  0.00  0.00    +0.000 NA
ATOM     18  C   UNL     1       6.857   5.102  16.805  0.00  0.00    +0.000 C 
ATOM     19  C   UNL     1       7.565   5.199  18.138  0.00  0.00    +0.000 C 
ATOM     20  C   UNL     1       7.793   6.685  18.321  0.00  0.00    +0.000 C 
ATOM     21  C   UNL     1       6.781   7.366  17.405  0.00  0.00    +0.000 C 
ENDBRANCH  16  17
ENDBRANCH  15  16
ENDBRANCH  14  15
ENDBRANCH   1  14
BRANCH   1  22
ATOM     22  C   UNL     1       1.760   9.733  18.540  0.00  0.00    +0.000 C 
BRANCH  22  23
ATOM     23  C   UNL     1       0.349  10.196  18.364  0.00  0.00    +0.000 A 
ATOM     24  C   UNL     1      -0.767   9.713  17.706  0.00  0.00    +0.000 A 
ATOM     25  C   UNL     1      -1.809  10.651  17.929  0.00  0.00    +0.000 A 
ATOM     26  C   UNL     1      -1.268  11.639  18.715  0.00  0.00    +0.000 A 
ATOM     27  O   UNL     1       0.038  11.377  18.981  0.00  0.00    +0.000 OA
ENDBRANCH  22  23
ENDBRANCH   1  22
TORSDOF 10
ENDMDL
MODEL 8
REMARK VINA RESULT:      -6.3      1.561      6.478
REMARK  Name = 
REMARK  11 active torsions:
REMARK  status: ('A' for Active; 'I' for Inactive)
REMARK    1  A    between atoms: C_1  and  O_2
REMARK    2  A    between atoms: O_2  and  C_3
REMARK    3  A    between atoms: C_7  and  N_8
REMARK    4  A    between atoms: N_8  and  C_9
REMARK    5  A    between atoms: C_9  and  N_11
REMARK    6  A    between atoms: N_11  and  C_12
REMARK    7  A    between atoms: N_11  and  C_20
REMARK    8  A    between atoms: C_12  and  C_13
REMARK    9  A    between atoms: C_13  and  C_14
REMARK   10  A    between atoms: C_14  and  N_15
REMARK   11  A    between atoms: C_20  and  C_21
REMARK                            x       y       z     vdW  Elec       q    Type
REMARK                         _______ _______ _______ _____ _____    ______ ____
ROOT
ATOM      1  N   UNL     1       4.327   5.216  17.515  0.00  0.00    +0.000 N 
ENDROOT
BRANCH   1   2
ATOM      2  C   UNL     1       5.712   4.904  17.614  0.00  0.00    +0.000 C 
ATOM      3  S   UNL     1       6.692   5.521  18.838  0.00  0.00    +0.000 S 
BRANCH   2   4
ATOM      4  N   UNL     1       6.119   3.980  16.642  0.00  0.00    +0.000 N 
ATOM      5  H   UNL     1       6.421   3.084  16.992  0.00  0.00    +0.000 HD
BRANCH   4  10
ATOM      6  C   UNL     1       5.961   3.678  12.912  0.00  0.00    +0.000 A 
ATOM      7  C   UNL     1       6.964   4.573  12.547  0.00  0.00    +0.000 A 
ATOM      8  C   UNL     1       7.684   5.245  13.532  0.00  0.00    +0.000 A 
ATOM      9  C   UNL     1       7.384   5.031  14.882  0.00  0.00    +0.000 A 
ATOM     10  C   UNL     1       6.380   4.131  15.259  0.00  0.00    +0.000 A 
ATOM     11  C   UNL     1       5.723   3.414  14.263  0.00  0.00    +0.000 A 
BRANCH   6  13
ATOM     12  C   UNL     1       5.903   1.888  11.410  0.00  0.00    +0.000 C 
ATOM     13  O   UNL     1       5.270   3.075  11.896  0.00  0.00    +0.000 OA
ENDBRANCH   6  13
ENDBRANCH   4  10
ENDBRANCH   2   4
ENDBRANCH   1   2
BRANCH   1  14
ATOM     14  C   UNL     1       3.277   4.228  17.181  0.00  0.00    +0.000 C 
BRANCH  14  15
ATOM     15  C   UNL     1       3.329   2.797  17.749  0.00  0.00    +0.000 C 
BRANCH  15  16
ATOM     16  C   UNL     1       3.702   2.673  19.233  0.00  0.00    +0.000 C 
BRANCH  16  17
ATOM     17  N   UNL     1       2.582   2.136  20.031  0.00  0.00    +0.000 NA
ATOM     18  C   UNL     1       1.245   2.369  19.475  0.00  0.00    +0.000 C 
ATOM     19  C   UNL     1       0.754   3.658  20.098  0.00  0.00    +0.000 C 
ATOM     20  C   UNL     1       1.370   3.649  21.482  0.00  0.00    +0.000 C 
ATOM     21  C   UNL     1       2.551   2.688  21.395  0.00  0.00    +0.000 C 
ENDBRANCH  16  17
ENDBRANCH  15  16
ENDBRANCH  14  15
ENDBRANCH   1  14
BRANCH   1  22
ATOM     22  C   UNL     1       3.929   6.612  17.224  0.00  0.00    +0.000 C 
BRANCH  22  23
ATOM     23  C   UNL     1       3.056   7.205  18.283  0.00  0.00    +0.000 A 
ATOM     24  C   UNL     1       2.683   6.841  19.563  0.00  0.00    +0.000 A 
ATOM     25  C   UNL     1       1.808   7.854  20.036  0.00  0.00    +0.000 A 
ATOM     26  C   UNL     1       1.711   8.775  19.022  0.00  0.00    +0.000 A 
ATOM     27  O   UNL     1       2.457   8.391  17.954  0.00  0.00    +0.000 OA
ENDBRANCH  22  23
ENDBRANCH   1  22
TORSDOF 10
ENDMDL
MODEL 9
REMARK VINA RESULT:      -6.3      3.080      5.529
REMARK  Name = 
REMARK  11 active torsions:
REMARK  status: ('A' for Active; 'I' for Inactive)
REMARK    1  A    between atoms: C_1  and  O_2
REMARK    2  A    between atoms: O_2  and  C_3
REMARK    3  A    between atoms: C_7  and  N_8
REMARK    4  A    between atoms: N_8  and  C_9
REMARK    5  A    between atoms: C_9  and  N_11
REMARK    6  A    between atoms: N_11  and  C_12
REMARK    7  A    between atoms: N_11  and  C_20
REMARK    8  A    between atoms: C_12  and  C_13
REMARK    9  A    between atoms: C_13  and  C_14
REMARK   10  A    between atoms: C_14  and  N_15
REMARK   11  A    between atoms: C_20  and  C_21
REMARK                            x       y       z     vdW  Elec       q    Type
REMARK                         _______ _______ _______ _____ _____    ______ ____
ROOT
ATOM      1  N   UNL     1       2.488   7.099  19.099  0.00  0.00    +0.000 N 
ENDROOT
BRANCH   1   2
ATOM      2  C   UNL     1       1.752   8.222  19.574  0.00  0.00    +0.000 C 
ATOM      3  S   UNL     1       1.224   8.345  21.169  0.00  0.00    +0.000 S 
BRANCH   2   4
ATOM      4  N   UNL     1       1.608   9.214  18.596  0.00  0.00    +0.000 N 
ATOM      5  H   UNL     1       2.265   9.173  17.833  0.00  0.00    +0.000 HD
BRANCH   4  10
ATOM      6  C   UNL     1       0.559  12.809  18.680  0.00  0.00    +0.000 A 
ATOM      7  C   UNL     1      -0.807  12.675  18.446  0.00  0.00    +0.000 A 
ATOM      8  C   UNL     1      -1.361  11.408  18.282  0.00  0.00    +0.000 A 
ATOM      9  C   UNL     1      -0.538  10.277  18.336  0.00  0.00    +0.000 A 
ATOM     10  C   UNL     1       0.835  10.400  18.574  0.00  0.00    +0.000 A 
ATOM     11  C   UNL     1       1.357  11.670  18.810  0.00  0.00    +0.000 A 
BRANCH   6  13
ATOM     12  C   UNL     1       2.448  14.129  19.070  0.00  0.00    +0.000 C 
ATOM     13  O   UNL     1       1.045  14.083  18.800  0.00  0.00    +0.000 OA
ENDBRANCH   6  13
ENDBRANCH   4  10
ENDBRANCH   2   4
ENDBRANCH   1   2
BRANCH   1  14
ATOM     14  C   UNL     1       2.941   6.939  17.699  0.00  0.00    +0.000 C 
BRANCH  14  15
ATOM     15  C   UNL     1       4.419   7.151  17.318  0.00  0.00    +0.000 C 
BRANCH  15  16
ATOM     16  C   UNL     1       5.013   6.134  16.332  0.00  0.00    +0.000 C 
BRANCH  16  17
ATOM     17  N   UNL     1       6.488   6.199  16.310  0.00  0.00    +0.000 NA
ATOM     18  C   UNL     1       7.176   4.906  16.376  0.00  0.00    +0.000 C 
ATOM     19  C   UNL     1       7.450   4.654  17.843  0.00  0.00    +0.000 C 
ATOM     20  C   UNL     1       7.682   6.039  18.412  0.00  0.00    +0.000 C 
ATOM     21  C   UNL     1       7.030   6.998  17.421  0.00  0.00    +0.000 C 
ENDBRANCH  16  17
ENDBRANCH  15  16
ENDBRANCH  14  15
ENDBRANCH   1  14
BRANCH   1  22
ATOM     22  C   UNL     1       2.382   5.816  19.830  0.00  0.00    +0.000 C 
BRANCH  22  23
ATOM     23  C   UNL     1       2.527   4.622  18.940  0.00  0.00    +0.000 A 
ATOM     24  C   UNL     1       1.697   3.943  18.069  0.00  0.00    +0.000 A 
ATOM     25  C   UNL     1       2.458   2.870  17.534  0.00  0.00    +0.000 A 
ATOM     26  C   UNL     1       3.704   2.969  18.103  0.00  0.00    +0.000 A 
ATOM     27  O   UNL     1       3.756   4.022  18.960  0.00  0.00    +0.000 OA
ENDBRANCH  22  23
ENDBRANCH   1  22
TORSDOF 10
ENDMDL
