MODEL 1
REMARK VINA RESULT:      -6.5      0.000      0.000
REMARK  Name = 
REMARK  8 active torsions:
REMARK  status: ('A' for Active; 'I' for Inactive)
REMARK    1  A    between atoms: C_1  and  O_2
REMARK    2  A    between atoms: O_2  and  C_3
REMARK    3  A    between atoms: C_3  and  C_4
REMARK    4  A    between atoms: C_4  and  C_5
REMARK    5  A    between atoms: C_5  and  N_6
REMARK    6  A    between atoms: C_11  and  C_12
REMARK    7  A    between atoms: N_14  and  C_15
REMARK    8  A    between atoms: N_14  and  C_16
REMARK                            x       y       z     vdW  Elec       q    Type
REMARK                         _______ _______ _______ _____ _____    ______ ____
ROOT
ATOM      1  N   UNL     1       2.175   6.455  20.421  0.00  0.00    +0.000 N 
ATOM      2  C   UNL     1       2.059   7.579  19.620  0.00  0.00    +0.000 A 
ATOM      3  C   UNL     1       2.537   7.652  18.303  0.00  0.00    +0.000 A 
ATOM      4  N   UNL     1       2.374   8.724  17.490  0.00  0.00    +0.000 NA
ATOM      5  C   UNL     1       1.672   9.738  18.038  0.00  0.00    +0.000 A 
ATOM      6  C   UNL     1       1.157   9.682  19.329  0.00  0.00    +0.000 A 
ATOM      7  N   UNL     1       1.372   8.617  20.152  0.00  0.00    +0.000 NA
ATOM      8  H   UNL     1       2.106   6.715  21.401  0.00  0.00    +0.000 HD
ENDROOT
BRANCH   6   9
ATOM      9  C   UNL     1       0.362  10.857  19.791  0.00  0.00    +0.000 C 
ATOM     10  O   UNL     1       0.956  11.665  20.511  0.00  0.00    +0.000 OA
ATOM     11  N   UNL     1      -0.962  11.075  19.394  0.00  0.00    +0.000 N 
ATOM     12  C   UNL     1      -1.728  10.284  18.439  0.00  0.00    +0.000 C 
ATOM     13  C   UNL     1      -1.627  12.281  19.867  0.00  0.00    +0.000 C 
ENDBRANCH   6   9
BRANCH   1  14
ATOM     14  C   UNL     1       3.040   5.350  20.032  0.00  0.00    +0.000 C 
BRANCH  14  15
ATOM     15  C   UNL     1       2.333   4.024  19.703  0.00  0.00    +0.000 C 
ATOM     16  C   UNL     1       0.919   3.797  20.325  0.00  0.00    +0.000 C 
ATOM     17  C   UNL     1       1.568   2.911  21.401  0.00  0.00    +0.000 C 
ATOM     18  C   UNL     1       2.800   2.764  20.489  0.00  0.00    +0.000 C 
BRANCH  15  19
ATOM     19  C   UNL     1       2.310   3.823  18.177  0.00  0.00    +0.000 C 
BRANCH  19  21
ATOM     20  C   UNL     1       4.414   3.646  17.115  0.00  0.00    +0.000 C 
ATOM     21  O   UNL     1       3.386   2.957  17.815  0.00  0.00    +0.000 OA
ENDBRANCH  19  21
ENDBRANCH  15  19
ENDBRANCH  14  15
ENDBRANCH   1  14
TORSDOF 5
ENDMDL
MODEL 2
REMARK VINA RESULT:      -6.4      1.103      2.174
REMARK  Name = 
REMARK  8 active torsions:
REMARK  status: ('A' for Active; 'I' for Inactive)
REMARK    1  A    between atoms: C_1  and  O_2
REMARK    2  A    between atoms: O_2  and  C_3
REMARK    3  A    between atoms: C_3  and  C_4
REMARK    4  A    between atoms: C_4  and  C_5
REMARK    5  A    between atoms: C_5  and  N_6
REMARK    6  A    between atoms: C_11  and  C_12
REMARK    7  A    between atoms: N_14  and  C_15
REMARK    8  A    between atoms: N_14  and  C_16
REMARK                            x       y       z     vdW  Elec       q    Type
REMARK                         _______ _______ _______ _____ _____    ______ ____
ROOT
ATOM      1  N   UNL     1       2.160   6.442  20.188  0.00  0.00    +0.000 N 
ATOM      2  C   UNL     1       2.055   7.631  19.484  0.00  0.00    +0.000 A 
ATOM      3  C   UNL     1       2.508   7.801  18.167  0.00  0.00    +0.000 A 
ATOM      4  N   UNL     1       2.356   8.940  17.449  0.00  0.00    +0.000 NA
ATOM      5  C   UNL     1       1.689   9.921  18.093  0.00  0.00    +0.000 A 
ATOM      6  C   UNL     1       1.198   9.770  19.386  0.00  0.00    +0.000 A 
ATOM      7  N   UNL     1       1.403   8.637  20.114  0.00  0.00    +0.000 NA
ATOM      8  H   UNL     1       2.116   6.623  21.187  0.00  0.00    +0.000 HD
ENDROOT
BRANCH   6   9
ATOM      9  C   UNL     1       0.441  10.920  19.960  0.00  0.00    +0.000 C 
ATOM     10  O   UNL     1       1.072  11.664  20.717  0.00  0.00    +0.000 OA
ATOM     11  N   UNL     1      -0.891  11.189  19.624  0.00  0.00    +0.000 N 
ATOM     12  C   UNL     1      -1.703  10.484  18.641  0.00  0.00    +0.000 C 
ATOM     13  C   UNL     1      -1.518  12.368  20.207  0.00  0.00    +0.000 C 
ENDBRANCH   6   9
BRANCH   1  14
ATOM     14  C   UNL     1       2.990   5.354  19.692  0.00  0.00    +0.000 C 
BRANCH  14  15
ATOM     15  C   UNL     1       2.240   4.169  19.061  0.00  0.00    +0.000 C 
ATOM     16  C   UNL     1       3.096   2.944  18.608  0.00  0.00    +0.000 C 
ATOM     17  C   UNL     1       3.014   3.461  17.161  0.00  0.00    +0.000 C 
ATOM     18  C   UNL     1       1.806   4.322  17.574  0.00  0.00    +0.000 C 
BRANCH  15  19
ATOM     19  C   UNL     1       1.094   3.734  19.994  0.00  0.00    +0.000 C 
BRANCH  19  21
ATOM     20  C   UNL     1       1.754   2.520  21.911  0.00  0.00    +0.000 C 
ATOM     21  O   UNL     1       1.553   3.809  21.344  0.00  0.00    +0.000 OA
ENDBRANCH  19  21
ENDBRANCH  15  19
ENDBRANCH  14  15
ENDBRANCH   1  14
TORSDOF 5
ENDMDL
MODEL 3
REMARK VINA RESULT:      -6.2      3.983      7.099
REMARK  Name = 
REMARK  8 active torsions:
REMARK  status: ('A' for Active; 'I' for Inactive)
REMARK    1  A    between atoms: C_1  and  O_2
REMARK    2  A    between atoms: O_2  and  C_3
REMARK    3  A    between atoms: C_3  and  C_4
REMARK    4  A    between atoms: C_4  and  C_5
REMARK    5  A    between atoms: C_5  and  N_6
REMARK    6  A    between atoms: C_11  and  C_12
REMARK    7  A    between atoms: N_14  and  C_15
REMARK    8  A    between atoms: N_14  and  C_16
REMARK                            x       y       z     vdW  Elec       q    Type
REMARK                         _______ _______ _______ _____ _____    ______ ____
ROOT
ATOM      1  N   UNL     1       4.476   3.122  18.074  0.00  0.00    +0.000 N 
ATOM      2  C   UNL     1       5.289   4.141  17.605  0.00  0.00    +0.000 A 
ATOM      3  C   UNL     1       5.798   5.169  18.412  0.00  0.00    +0.000 A 
ATOM      4  N   UNL     1       6.643   6.135  17.975  0.00  0.00    +0.000 NA
ATOM      5  C   UNL     1       7.000   6.020  16.679  0.00  0.00    +0.000 A 
ATOM      6  C   UNL     1       6.538   4.992  15.862  0.00  0.00    +0.000 A 
ATOM      7  N   UNL     1       5.650   4.058  16.302  0.00  0.00    +0.000 NA
ATOM      8  H   UNL     1       3.944   2.719  17.309  0.00  0.00    +0.000 HD
ENDROOT
BRANCH   6   9
ATOM      9  C   UNL     1       7.049   4.962  14.461  0.00  0.00    +0.000 C 
ATOM     10  O   UNL     1       8.119   5.544  14.259  0.00  0.00    +0.000 OA
ATOM     11  N   UNL     1       6.395   4.269  13.435  0.00  0.00    +0.000 N 
ATOM     12  C   UNL     1       5.213   3.427  13.566  0.00  0.00    +0.000 C 
ATOM     13  C   UNL     1       7.009   4.266  12.114  0.00  0.00    +0.000 C 
ENDBRANCH   6   9
BRANCH   1  14
ATOM     14  C   UNL     1       3.879   3.199  19.400  0.00  0.00    +0.000 C 
BRANCH  14  15
ATOM     15  C   UNL     1       2.462   3.792  19.468  0.00  0.00    +0.000 C 
ATOM     16  C   UNL     1       1.348   2.906  20.109  0.00  0.00    +0.000 C 
ATOM     17  C   UNL     1       0.871   2.535  18.694  0.00  0.00    +0.000 C 
ATOM     18  C   UNL     1       1.625   3.765  18.155  0.00  0.00    +0.000 C 
BRANCH  15  19
ATOM     19  C   UNL     1       2.520   5.181  20.130  0.00  0.00    +0.000 C 
BRANCH  19  21
ATOM     20  C   UNL     1       2.163   7.461  19.625  0.00  0.00    +0.000 C 
ATOM     21  O   UNL     1       2.481   6.176  19.107  0.00  0.00    +0.000 OA
ENDBRANCH  19  21
ENDBRANCH  15  19
ENDBRANCH  14  15
ENDBRANCH   1  14
TORSDOF 5
ENDMDL
MODEL 4
REMARK VINA RESULT:      -6.2      4.860      7.119
REMARK  Name = 
REMARK  8 active torsions:
REMARK  status: ('A' for Active; 'I' for Inactive)
REMARK    1  A    between atoms: C_1  and  O_2
REMARK    2  A    between atoms: O_2  and  C_3
REMARK    3  A    between atoms: C_3  and  C_4
REMARK    4  A    between atoms: C_4  and  C_5
REMARK    5  A    between atoms: C_5  and  N_6
REMARK    6  A    between atoms: C_11  and  C_12
REMARK    7  A    between atoms: N_14  and  C_15
REMARK    8  A    between atoms: N_14  and  C_16
REMARK                            x       y       z     vdW  Elec       q    Type
REMARK                         _______ _______ _______ _____ _____    ______ ____
ROOT
ATOM      1  N   UNL     1       3.380   4.842  17.539  0.00  0.00    +0.000 N 
ATOM      2  C   UNL     1       4.750   4.817  17.335  0.00  0.00    +0.000 A 
ATOM      3  C   UNL     1       5.686   4.559  18.349  0.00  0.00    +0.000 A 
ATOM      4  N   UNL     1       7.023   4.471  18.148  0.00  0.00    +0.000 NA
ATOM      5  C   UNL     1       7.406   4.621  16.862  0.00  0.00    +0.000 A 
ATOM      6  C   UNL     1       6.499   4.844  15.831  0.00  0.00    +0.000 A 
ATOM      7  N   UNL     1       5.162   4.980  16.055  0.00  0.00    +0.000 NA
ATOM      8  H   UNL     1       2.928   5.382  16.807  0.00  0.00    +0.000 HD
ENDROOT
BRANCH   6   9
ATOM      9  C   UNL     1       7.057   4.947  14.451  0.00  0.00    +0.000 C 
ATOM     10  O   UNL     1       8.064   5.649  14.323  0.00  0.00    +0.000 OA
ATOM     11  N   UNL     1       6.516   4.249  13.365  0.00  0.00    +0.000 N 
ATOM     12  C   UNL     1       5.427   3.281  13.405  0.00  0.00    +0.000 C 
ATOM     13  C   UNL     1       7.170   4.385  12.072  0.00  0.00    +0.000 C 
ENDBRANCH   6   9
BRANCH   1  14
ATOM     14  C   UNL     1       2.829   4.858  18.886  0.00  0.00    +0.000 C 
BRANCH  14  15
ATOM     15  C   UNL     1       2.418   3.493  19.462  0.00  0.00    +0.000 C 
ATOM     16  C   UNL     1       2.086   2.359  18.442  0.00  0.00    +0.000 C 
ATOM     17  C   UNL     1       0.590   2.638  18.664  0.00  0.00    +0.000 C 
ATOM     18  C   UNL     1       0.954   3.358  19.976  0.00  0.00    +0.000 C 
BRANCH  15  19
ATOM     19  C   UNL     1       3.473   3.032  20.485  0.00  0.00    +0.000 C 
BRANCH  19  21
ATOM     20  C   UNL     1       5.144   1.399  20.835  0.00  0.00    +0.000 C 
ATOM     21  O   UNL     1       4.249   1.986  19.899  0.00  0.00    +0.000 OA
ENDBRANCH  19  21
ENDBRANCH  15  19
ENDBRANCH  14  15
ENDBRANCH   1  14
TORSDOF 5
ENDMDL
MODEL 5
REMARK VINA RESULT:      -6.1      0.987      1.307
REMARK  Name = 
REMARK  8 active torsions:
REMARK  status: ('A' for Active; 'I' for Inactive)
REMARK    1  A    between atoms: C_1  and  O_2
REMARK    2  A    between atoms: O_2  and  C_3
REMARK    3  A    between atoms: C_3  and  C_4
REMARK    4  A    between atoms: C_4  and  C_5
REMARK    5  A    between atoms: C_5  and  N_6
REMARK    6  A    between atoms: C_11  and  C_12
REMARK    7  A    between atoms: N_14  and  C_15
REMARK    8  A    between atoms: N_14  and  C_16
REMARK                            x       y       z     vdW  Elec       q    Type
REMARK                         _______ _______ _______ _____ _____    ______ ____
ROOT
ATOM      1  N   UNL     1       2.185   6.562  20.433  0.00  0.00    +0.000 N 
ATOM      2  C   UNL     1       1.992   7.685  19.645  0.00  0.00    +0.000 A 
ATOM      3  C   UNL     1       2.384   7.773  18.302  0.00  0.00    +0.000 A 
ATOM      4  N   UNL     1       2.146   8.844  17.506  0.00  0.00    +0.000 NA
ATOM      5  C   UNL     1       1.456   9.840  18.101  0.00  0.00    +0.000 A 
ATOM      6  C   UNL     1       1.024   9.767  19.422  0.00  0.00    +0.000 A 
ATOM      7  N   UNL     1       1.315   8.705  20.225  0.00  0.00    +0.000 NA
ATOM      8  H   UNL     1       2.171   6.817  21.416  0.00  0.00    +0.000 HD
ENDROOT
BRANCH   6   9
ATOM      9  C   UNL     1       0.233  10.921  19.939  0.00  0.00    +0.000 C 
ATOM     10  O   UNL     1      -0.872  10.652  20.418  0.00  0.00    +0.000 OA
ATOM     11  N   UNL     1       0.724  12.232  19.940  0.00  0.00    +0.000 N 
ATOM     12  C   UNL     1       2.058  12.665  19.542  0.00  0.00    +0.000 C 
ATOM     13  C   UNL     1      -0.115  13.275  20.514  0.00  0.00    +0.000 C 
ENDBRANCH   6   9
BRANCH   1  14
ATOM     14  C   UNL     1       3.049   5.479  19.985  0.00  0.00    +0.000 C 
BRANCH  14  15
ATOM     15  C   UNL     1       2.349   4.148  19.661  0.00  0.00    +0.000 C 
ATOM     16  C   UNL     1       0.941   3.911  20.292  0.00  0.00    +0.000 C 
ATOM     17  C   UNL     1       1.604   3.030  21.365  0.00  0.00    +0.000 C 
ATOM     18  C   UNL     1       2.830   2.892  20.445  0.00  0.00    +0.000 C 
BRANCH  15  19
ATOM     19  C   UNL     1       2.318   3.946  18.135  0.00  0.00    +0.000 C 
BRANCH  19  21
ATOM     20  C   UNL     1       4.395   3.736  17.027  0.00  0.00    +0.000 C 
ATOM     21  O   UNL     1       3.383   3.067  17.770  0.00  0.00    +0.000 OA
ENDBRANCH  19  21
ENDBRANCH  15  19
ENDBRANCH  14  15
ENDBRANCH   1  14
TORSDOF 5
ENDMDL
MODEL 6
REMARK VINA RESULT:      -6.0      2.520      3.863
REMARK  Name = 
REMARK  8 active torsions:
REMARK  status: ('A' for Active; 'I' for Inactive)
REMARK    1  A    between atoms: C_1  and  O_2
REMARK    2  A    between atoms: O_2  and  C_3
REMARK    3  A    between atoms: C_3  and  C_4
REMARK    4  A    between atoms: C_4  and  C_5
REMARK    5  A    between atoms: C_5  and  N_6
REMARK    6  A    between atoms: C_11  and  C_12
REMARK    7  A    between atoms: N_14  and  C_15
REMARK    8  A    between atoms: N_14  and  C_16
REMARK                            x       y       z     vdW  Elec       q    Type
REMARK                         _______ _______ _______ _____ _____    ______ ____
ROOT
ATOM      1  N   UNL     1       3.553   7.308  17.424  0.00  0.00    +0.000 N 
ATOM      2  C   UNL     1       2.670   7.810  18.366  0.00  0.00    +0.000 A 
ATOM      3  C   UNL     1       2.359   7.159  19.569  0.00  0.00    +0.000 A 
ATOM      4  N   UNL     1       1.545   7.671  20.524  0.00  0.00    +0.000 NA
ATOM      5  C   UNL     1       1.062   8.900  20.248  0.00  0.00    +0.000 A 
ATOM      6  C   UNL     1       1.380   9.585  19.078  0.00  0.00    +0.000 A 
ATOM      7  N   UNL     1       2.160   9.037  18.104  0.00  0.00    +0.000 NA
ATOM      8  H   UNL     1       3.366   7.720  16.515  0.00  0.00    +0.000 HD
ENDROOT
BRANCH   6   9
ATOM      9  C   UNL     1       0.812  10.955  18.922  0.00  0.00    +0.000 C 
ATOM     10  O   UNL     1       1.563  11.891  19.211  0.00  0.00    +0.000 OA
ATOM     11  N   UNL     1      -0.475  11.185  18.422  0.00  0.00    +0.000 N 
ATOM     12  C   UNL     1      -1.405  10.186  17.911  0.00  0.00    +0.000 C 
ATOM     13  C   UNL     1      -0.910  12.566  18.266  0.00  0.00    +0.000 C 
ENDBRANCH   6   9
BRANCH   1  14
ATOM     14  C   UNL     1       4.024   5.932  17.504  0.00  0.00    +0.000 C 
BRANCH  14  15
ATOM     15  C   UNL     1       5.370   5.640  16.819  0.00  0.00    +0.000 C 
ATOM     16  C   UNL     1       5.470   5.935  15.290  0.00  0.00    +0.000 C 
ATOM     17  C   UNL     1       5.274   4.434  15.018  0.00  0.00    +0.000 C 
ATOM     18  C   UNL     1       5.676   4.152  16.477  0.00  0.00    +0.000 C 
BRANCH  15  19
ATOM     19  C   UNL     1       6.501   6.336  17.598  0.00  0.00    +0.000 C 
BRANCH  19  21
ATOM     20  C   UNL     1       7.765   8.332  17.660  0.00  0.00    +0.000 C 
ATOM     21  O   UNL     1       6.855   7.537  16.911  0.00  0.00    +0.000 OA
ENDBRANCH  19  21
ENDBRANCH  15  19
ENDBRANCH  14  15
ENDBRANCH   1  14
TORSDOF 5
ENDMDL
MODEL 7
REMARK VINA RESULT:      -6.0      1.395      1.618
REMARK  Name = 
REMARK  8 active torsions:
REMARK  status: ('A' for Active; 'I' for Inactive)
REMARK    1  A    between atoms: C_1  and  O_2
REMARK    2  A    between atoms: O_2  and  C_3
REMARK    3  A    between atoms: C_3  and  C_4
REMARK    4  A    between atoms: C_4  and  C_5
REMARK    5  A    between atoms: C_5  and  N_6
REMARK    6  A    between atoms: C_11  and  C_12
REMARK    7  A    between atoms: N_14  and  C_15
REMARK    8  A    between atoms: N_14  and  C_16
REMARK                            x       y       z     vdW  Elec       q    Type
REMARK                         _______ _______ _______ _____ _____    ______ ____
ROOT
ATOM      1  N   UNL     1       2.110   6.373  20.703  0.00  0.00    +0.000 N 
ATOM      2  C   UNL     1       1.852   7.591  20.095  0.00  0.00    +0.000 A 
ATOM      3  C   UNL     1       2.193   7.889  18.768  0.00  0.00    +0.000 A 
ATOM      4  N   UNL     1       1.889   9.054  18.146  0.00  0.00    +0.000 NA
ATOM      5  C   UNL     1       1.188   9.925  18.902  0.00  0.00    +0.000 A 
ATOM      6  C   UNL     1       0.806   9.643  20.210  0.00  0.00    +0.000 A 
ATOM      7  N   UNL     1       1.161   8.488  20.839  0.00  0.00    +0.000 NA
ATOM      8  H   UNL     1       2.123   6.482  21.713  0.00  0.00    +0.000 HD
ENDROOT
BRANCH   6   9
ATOM      9  C   UNL     1      -0.005  10.678  20.914  0.00  0.00    +0.000 C 
ATOM     10  O   UNL     1      -0.437  11.599  20.215  0.00  0.00    +0.000 OA
ATOM     11  N   UNL     1      -0.317  10.594  22.276  0.00  0.00    +0.000 N 
ATOM     12  C   UNL     1       0.002   9.495  23.179  0.00  0.00    +0.000 C 
ATOM     13  C   UNL     1      -1.158  11.636  22.850  0.00  0.00    +0.000 C 
ENDBRANCH   6   9
BRANCH   1  14
ATOM     14  C   UNL     1       2.995   5.401  20.075  0.00  0.00    +0.000 C 
BRANCH  14  15
ATOM     15  C   UNL     1       2.355   4.055  19.695  0.00  0.00    +0.000 C 
ATOM     16  C   UNL     1       0.908   3.781  20.213  0.00  0.00    +0.000 C 
ATOM     17  C   UNL     1       1.507   2.912  21.332  0.00  0.00    +0.000 C 
ATOM     18  C   UNL     1       2.804   2.808  20.511  0.00  0.00    +0.000 C 
BRANCH  15  19
ATOM     19  C   UNL     1       2.449   3.858  18.170  0.00  0.00    +0.000 C 
BRANCH  19  21
ATOM     20  C   UNL     1       4.408   3.877  16.849  0.00  0.00    +0.000 C 
ATOM     21  O   UNL     1       3.682   3.204  17.870  0.00  0.00    +0.000 OA
ENDBRANCH  19  21
ENDBRANCH  15  19
ENDBRANCH  14  15
ENDBRANCH   1  14
TORSDOF 5
ENDMDL
MODEL 8
REMARK VINA RESULT:      -6.0      1.416      2.541
REMARK  Name = 
REMARK  8 active torsions:
REMARK  status: ('A' for Active; 'I' for Inactive)
REMARK    1  A    between atoms: C_1  and  O_2
REMARK    2  A    between atoms: O_2  and  C_3
REMARK    3  A    between atoms: C_3  and  C_4
REMARK    4  A    between atoms: C_4  and  C_5
REMARK    5  A    between atoms: C_5  and  N_6
REMARK    6  A    between atoms: C_11  and  C_12
REMARK    7  A    between atoms: N_14  and  C_15
REMARK    8  A    between atoms: N_14  and  C_16
REMARK                            x       y       z     vdW  Elec       q    Type
REMARK                         _______ _______ _______ _____ _____    ______ ____
ROOT
ATOM      1  N   UNL     1       2.552   6.397  20.158  0.00  0.00    +0.000 N 
ATOM      2  C   UNL     1       2.254   7.539  19.432  0.00  0.00    +0.000 A 
ATOM      3  C   UNL     1       2.717   7.779  18.130  0.00  0.00    +0.000 A 
ATOM      4  N   UNL     1       2.383   8.863  17.389  0.00  0.00    +0.000 NA
ATOM      5  C   UNL     1       1.522   9.709  17.994  0.00  0.00    +0.000 A 
ATOM      6  C   UNL     1       1.019   9.480  19.271  0.00  0.00    +0.000 A 
ATOM      7  N   UNL     1       1.404   8.411  20.024  0.00  0.00    +0.000 NA
ATOM      8  H   UNL     1       2.438   6.575  21.152  0.00  0.00    +0.000 HD
ENDROOT
BRANCH   6   9
ATOM      9  C   UNL     1       0.041  10.474  19.800  0.00  0.00    +0.000 C 
ATOM     10  O   UNL     1      -1.138  10.111  19.836  0.00  0.00    +0.000 OA
ATOM     11  N   UNL     1       0.428  11.729  20.285  0.00  0.00    +0.000 N 
ATOM     12  C   UNL     1       1.790  12.225  20.434  0.00  0.00    +0.000 C 
ATOM     13  C   UNL     1      -0.606  12.602  20.823  0.00  0.00    +0.000 C 
ENDBRANCH   6   9
BRANCH   1  14
ATOM     14  C   UNL     1       3.588   5.478  19.708  0.00  0.00    +0.000 C 
BRANCH  14  15
ATOM     15  C   UNL     1       3.103   4.100  19.226  0.00  0.00    +0.000 C 
ATOM     16  C   UNL     1       3.767   3.522  17.936  0.00  0.00    +0.000 C 
ATOM     17  C   UNL     1       2.534   3.974  17.136  0.00  0.00    +0.000 C 
ATOM     18  C   UNL     1       1.750   4.060  18.458  0.00  0.00    +0.000 C 
BRANCH  15  19
ATOM     19  C   UNL     1       3.179   3.096  20.391  0.00  0.00    +0.000 C 
BRANCH  19  21
ATOM     20  C   UNL     1       1.351   2.655  21.823  0.00  0.00    +0.000 C 
ATOM     21  O   UNL     1       2.370   3.580  21.463  0.00  0.00    +0.000 OA
ENDBRANCH  19  21
ENDBRANCH  15  19
ENDBRANCH  14  15
ENDBRANCH   1  14
TORSDOF 5
ENDMDL
MODEL 9
REMARK VINA RESULT:      -6.0      4.370      6.953
REMARK  Name = 
REMARK  8 active torsions:
REMARK  status: ('A' for Active; 'I' for Inactive)
REMARK    1  A    between atoms: C_1  and  O_2
REMARK    2  A    between atoms: O_2  and  C_3
REMARK    3  A    between atoms: C_3  and  C_4
REMARK    4  A    between atoms: C_4  and  C_5
REMARK    5  A    between atoms: C_5  and  N_6
REMARK    6  A    between atoms: C_11  and  C_12
REMARK    7  A    between atoms: N_14  and  C_15
REMARK    8  A    between atoms: N_14  and  C_16
REMARK                            x       y       z     vdW  Elec       q    Type
REMARK                         _______ _______ _______ _____ _____    ______ ____
ROOT
ATOM      1  N   UNL     1       3.296   2.980  17.282  0.00  0.00    +0.000 N 
ATOM      2  C   UNL     1       4.519   3.614  17.427  0.00  0.00    +0.000 A 
ATOM      3  C   UNL     1       5.236   3.661  18.631  0.00  0.00    +0.000 A 
ATOM      4  N   UNL     1       6.461   4.226  18.767  0.00  0.00    +0.000 NA
ATOM      5  C   UNL     1       6.976   4.727  17.625  0.00  0.00    +0.000 A 
ATOM      6  C   UNL     1       6.302   4.665  16.409  0.00  0.00    +0.000 A 
ATOM      7  N   UNL     1       5.050   4.139  16.297  0.00  0.00    +0.000 NA
ATOM      8  H   UNL     1       2.798   3.358  16.481  0.00  0.00    +0.000 HD
ENDROOT
BRANCH   6   9
ATOM      9  C   UNL     1       7.007   5.219  15.217  0.00  0.00    +0.000 C 
ATOM     10  O   UNL     1       7.775   6.162  15.429  0.00  0.00    +0.000 OA
ATOM     11  N   UNL     1       6.863   4.675  13.935  0.00  0.00    +0.000 N 
ATOM     12  C   UNL     1       6.109   3.482  13.572  0.00  0.00    +0.000 C 
ATOM     13  C   UNL     1       7.637   5.266  12.852  0.00  0.00    +0.000 C 
ENDBRANCH   6   9
BRANCH   1  14
ATOM     14  C   UNL     1       2.545   2.538  18.449  0.00  0.00    +0.000 C 
BRANCH  14  15
ATOM     15  C   UNL     1       1.839   3.642  19.254  0.00  0.00    +0.000 C 
ATOM     16  C   UNL     1       2.440   4.000  20.650  0.00  0.00    +0.000 C 
ATOM     17  C   UNL     1       1.342   3.146  21.307  0.00  0.00    +0.000 C 
ATOM     18  C   UNL     1       0.533   3.242  20.001  0.00  0.00    +0.000 C 
BRANCH  15  19
ATOM     19  C   UNL     1       1.684   4.896  18.374  0.00  0.00    +0.000 C 
BRANCH  19  21
ATOM     20  C   UNL     1       3.000   6.841  18.105  0.00  0.00    +0.000 C 
ATOM     21  O   UNL     1       2.326   5.992  19.026  0.00  0.00    +0.000 OA
ENDBRANCH  19  21
ENDBRANCH  15  19
ENDBRANCH  14  15
ENDBRANCH   1  14
TORSDOF 5
ENDMDL
