MODEL 1
REMARK VINA RESULT:      -6.5      0.000      0.000
REMARK  Name = 
REMARK  1 active torsions:
REMARK  status: ('A' for Active; 'I' for Inactive)
REMARK    1  A    between atoms: C_15  and  N_16
REMARK                            x       y       z     vdW  Elec       q    Type
REMARK                         _______ _______ _______ _____ _____    ______ ____
ROOT
ATOM      1 BR   UNL     1       6.145   2.192  11.450  0.00  0.00    +0.000 Br
ATOM      2  C   UNL     1       6.299   3.483  12.823  0.00  0.00    +0.000 A 
ATOM      3  C   UNL     1       7.482   4.214  12.957  0.00  0.00    +0.000 A 
ATOM      4  C   UNL     1       7.602   5.160  13.976  0.00  0.00    +0.000 A 
ATOM      5  C   UNL     1       6.546   5.357  14.868  0.00  0.00    +0.000 A 
ATOM      6  C   UNL     1       5.363   4.636  14.715  0.00  0.00    +0.000 A 
ATOM      7  C   UNL     1       5.228   3.697  13.690  0.00  0.00    +0.000 A 
ATOM      8  C   UNL     1       4.212   4.898  15.585  0.00  0.00    +0.000 C 
ATOM      9  N   UNL     1       4.223   5.210  16.844  0.00  0.00    +0.000 NA
ATOM     10  C   UNL     1       5.429   5.263  17.592  0.00  0.00    +0.000 A 
ATOM     11  C   UNL     1       6.609   5.844  17.117  0.00  0.00    +0.000 A 
ATOM     12  N   UNL     1       7.742   6.010  17.825  0.00  0.00    +0.000 NA
ATOM     13  C   UNL     1       7.685   5.561  19.075  0.00  0.00    +0.000 A 
ATOM     14  N   UNL     1       6.632   4.968  19.652  0.00  0.00    +0.000 NA
ATOM     15  C   UNL     1       5.502   4.800  18.919  0.00  0.00    +0.000 A 
ATOM     16  O   UNL     1       6.690   6.327  15.825  0.00  0.00    +0.000 OA
ENDROOT
BRANCH  15  17
ATOM     17  N   UNL     1       4.489   4.113  19.555  0.00  0.00    +0.000 N 
ATOM     18  C   UNL     1       4.565   2.655  19.702  0.00  0.00    +0.000 C 
ATOM     19  C   UNL     1       3.210   2.029  19.341  0.00  0.00    +0.000 C 
ATOM     20  O   UNL     1       2.144   2.597  20.122  0.00  0.00    +0.000 OA
ATOM     21  C   UNL     1       2.062   4.010  19.883  0.00  0.00    +0.000 C 
ATOM     22  C   UNL     1       3.366   4.741  20.252  0.00  0.00    +0.000 C 
ENDBRANCH  15  17
TORSDOF 1
ENDMDL
MODEL 2
REMARK VINA RESULT:      -6.3      3.184      4.324
REMARK  Name = 
REMARK  1 active torsions:
REMARK  status: ('A' for Active; 'I' for Inactive)
REMARK    1  A    between atoms: C_15  and  N_16
REMARK                            x       y       z     vdW  Elec       q    Type
REMARK                         _______ _______ _______ _____ _____    ______ ____
ROOT
ATOM      1 BR   UNL     1       8.083   5.754  12.657  0.00  0.00    +0.000 Br
ATOM      2  C   UNL     1       7.051   5.026  14.064  0.00  0.00    +0.000 A 
ATOM      3  C   UNL     1       6.469   3.765  13.916  0.00  0.00    +0.000 A 
ATOM      4  C   UNL     1       5.698   3.229  14.950  0.00  0.00    +0.000 A 
ATOM      5  C   UNL     1       5.498   3.967  16.118  0.00  0.00    +0.000 A 
ATOM      6  C   UNL     1       6.098   5.216  16.264  0.00  0.00    +0.000 A 
ATOM      7  C   UNL     1       6.882   5.754  15.242  0.00  0.00    +0.000 A 
ATOM      8  C   UNL     1       5.973   5.961  17.522  0.00  0.00    +0.000 C 
ATOM      9  N   UNL     1       4.948   6.016  18.314  0.00  0.00    +0.000 NA
ATOM     10  C   UNL     1       3.720   5.379  17.994  0.00  0.00    +0.000 A 
ATOM     11  C   UNL     1       3.633   4.089  17.462  0.00  0.00    +0.000 A 
ATOM     12  N   UNL     1       2.493   3.407  17.241  0.00  0.00    +0.000 NA
ATOM     13  C   UNL     1       1.383   4.063  17.567  0.00  0.00    +0.000 A 
ATOM     14  N   UNL     1       1.318   5.304  18.065  0.00  0.00    +0.000 NA
ATOM     15  C   UNL     1       2.477   5.979  18.271  0.00  0.00    +0.000 A 
ATOM     16  O   UNL     1       4.771   3.384  17.124  0.00  0.00    +0.000 OA
ENDROOT
BRANCH  15  17
ATOM     17  N   UNL     1       2.326   7.278  18.711  0.00  0.00    +0.000 N 
ATOM     18  C   UNL     1       2.151   7.557  20.141  0.00  0.00    +0.000 C 
ATOM     19  C   UNL     1       1.014   8.571  20.334  0.00  0.00    +0.000 C 
ATOM     20  O   UNL     1       1.243   9.769  19.572  0.00  0.00    +0.000 OA
ATOM     21  C   UNL     1       1.327   9.451  18.174  0.00  0.00    +0.000 C 
ATOM     22  C   UNL     1       2.470   8.465  17.868  0.00  0.00    +0.000 C 
ENDBRANCH  15  17
TORSDOF 1
ENDMDL
MODEL 3
REMARK VINA RESULT:      -6.1     10.815     13.067
REMARK  Name = 
REMARK  1 active torsions:
REMARK  status: ('A' for Active; 'I' for Inactive)
REMARK    1  A    between atoms: C_15  and  N_16
REMARK                            x       y       z     vdW  Elec       q    Type
REMARK                         _______ _______ _______ _____ _____    ______ ____
ROOT
ATOM      1 BR   UNL     1       1.267   7.846  20.776  0.00  0.00    +0.000 Br
ATOM      2  C   UNL     1       0.266   9.301  21.450  0.00  0.00    +0.000 A 
ATOM      3  C   UNL     1       0.095   9.444  22.829  0.00  0.00    +0.000 A 
ATOM      4  C   UNL     1      -0.653  10.512  23.329  0.00  0.00    +0.000 A 
ATOM      5  C   UNL     1      -1.240  11.421  22.446  0.00  0.00    +0.000 A 
ATOM      6  C   UNL     1      -1.048  11.280  21.073  0.00  0.00    +0.000 A 
ATOM      7  C   UNL     1      -0.291  10.223  20.564  0.00  0.00    +0.000 A 
ATOM      8  C   UNL     1      -1.580  12.278  20.140  0.00  0.00    +0.000 C 
ATOM      9  N   UNL     1      -2.694  12.936  20.230  0.00  0.00    +0.000 NA
ATOM     10  C   UNL     1      -3.625  12.692  21.274  0.00  0.00    +0.000 A 
ATOM     11  C   UNL     1      -3.258  12.517  22.612  0.00  0.00    +0.000 A 
ATOM     12  N   UNL     1      -4.108  12.388  23.648  0.00  0.00    +0.000 NA
ATOM     13  C   UNL     1      -5.395  12.430  23.317  0.00  0.00    +0.000 A 
ATOM     14  N   UNL     1      -5.886  12.572  22.080  0.00  0.00    +0.000 NA
ATOM     15  C   UNL     1      -5.014  12.691  21.048  0.00  0.00    +0.000 A 
ATOM     16  O   UNL     1      -1.928  12.478  22.982  0.00  0.00    +0.000 OA
ENDROOT
BRANCH  15  17
ATOM     17  N   UNL     1      -5.594  12.754  19.797  0.00  0.00    +0.000 N 
ATOM     18  C   UNL     1      -6.258  13.985  19.354  0.00  0.00    +0.000 C 
ATOM     19  C   UNL     1      -7.605  13.638  18.702  0.00  0.00    +0.000 C 
ATOM     20  O   UNL     1      -7.442  12.693  17.629  0.00  0.00    +0.000 OA
ATOM     21  C   UNL     1      -6.862  11.479  18.130  0.00  0.00    +0.000 C 
ATOM     22  C   UNL     1      -5.482  11.715  18.773  0.00  0.00    +0.000 C 
ENDBRANCH  15  17
TORSDOF 1
ENDMDL
MODEL 4
REMARK VINA RESULT:      -6.1      3.747      6.824
REMARK  Name = 
REMARK  1 active torsions:
REMARK  status: ('A' for Active; 'I' for Inactive)
REMARK    1  A    between atoms: C_15  and  N_16
REMARK                            x       y       z     vdW  Elec       q    Type
REMARK                         _______ _______ _______ _____ _____    ______ ____
ROOT
ATOM      1 BR   UNL     1       1.092  10.683  21.095  0.00  0.00    +0.000 Br
ATOM      2  C   UNL     1       1.264   8.865  20.609  0.00  0.00    +0.000 A 
ATOM      3  C   UNL     1       0.754   7.872  21.450  0.00  0.00    +0.000 A 
ATOM      4  C   UNL     1       0.889   6.527  21.098  0.00  0.00    +0.000 A 
ATOM      5  C   UNL     1       1.549   6.183  19.917  0.00  0.00    +0.000 A 
ATOM      6  C   UNL     1       2.037   7.181  19.076  0.00  0.00    +0.000 A 
ATOM      7  C   UNL     1       1.895   8.528  19.412  0.00  0.00    +0.000 A 
ATOM      8  C   UNL     1       2.649   6.837  17.788  0.00  0.00    +0.000 C 
ATOM      9  N   UNL     1       3.388   5.809  17.509  0.00  0.00    +0.000 NA
ATOM     10  C   UNL     1       3.779   4.875  18.506  0.00  0.00    +0.000 A 
ATOM     11  C   UNL     1       2.912   4.379  19.483  0.00  0.00    +0.000 A 
ATOM     12  N   UNL     1       3.207   3.418  20.379  0.00  0.00    +0.000 NA
ATOM     13  C   UNL     1       4.444   2.939  20.290  0.00  0.00    +0.000 A 
ATOM     14  N   UNL     1       5.382   3.335  19.420  0.00  0.00    +0.000 NA
ATOM     15  C   UNL     1       5.068   4.311  18.531  0.00  0.00    +0.000 A 
ATOM     16  O   UNL     1       1.619   4.854  19.589  0.00  0.00    +0.000 OA
ENDROOT
BRANCH  15  17
ATOM     17  N   UNL     1       6.107   4.719  17.721  0.00  0.00    +0.000 N 
ATOM     18  C   UNL     1       7.091   5.690  18.214  0.00  0.00    +0.000 C 
ATOM     19  C   UNL     1       7.349   6.755  17.139  0.00  0.00    +0.000 C 
ATOM     20  O   UNL     1       7.753   6.159  15.893  0.00  0.00    +0.000 OA
ATOM     21  C   UNL     1       6.724   5.280  15.415  0.00  0.00    +0.000 C 
ATOM     22  C   UNL     1       6.416   4.146  16.410  0.00  0.00    +0.000 C 
ENDBRANCH  15  17
TORSDOF 1
ENDMDL
MODEL 5
REMARK VINA RESULT:      -6.0      9.615     11.044
REMARK  Name = 
REMARK  1 active torsions:
REMARK  status: ('A' for Active; 'I' for Inactive)
REMARK    1  A    between atoms: C_15  and  N_16
REMARK                            x       y       z     vdW  Elec       q    Type
REMARK                         _______ _______ _______ _____ _____    ______ ____
ROOT
ATOM      1 BR   UNL     1      -3.615  10.374  15.230  0.00  0.00    +0.000 Br
ATOM      2  C   UNL     1      -2.321  10.503  16.602  0.00  0.00    +0.000 A 
ATOM      3  C   UNL     1      -1.389   9.476  16.774  0.00  0.00    +0.000 A 
ATOM      4  C   UNL     1      -0.438   9.565  17.793  0.00  0.00    +0.000 A 
ATOM      5  C   UNL     1      -0.437  10.671  18.646  0.00  0.00    +0.000 A 
ATOM      6  C   UNL     1      -1.358  11.698  18.454  0.00  0.00    +0.000 A 
ATOM      7  C   UNL     1      -2.304  11.626  17.430  0.00  0.00    +0.000 A 
ATOM      8  C   UNL     1      -1.309  12.908  19.282  0.00  0.00    +0.000 C 
ATOM      9  N   UNL     1      -1.003  12.998  20.539  0.00  0.00    +0.000 NA
ATOM     10  C   UNL     1      -0.735  11.849  21.329  0.00  0.00    +0.000 A 
ATOM     11  C   UNL     1       0.049  10.777  20.894  0.00  0.00    +0.000 A 
ATOM     12  N   UNL     1       0.414   9.718  21.641  0.00  0.00    +0.000 NA
ATOM     13  C   UNL     1      -0.041   9.738  22.890  0.00  0.00    +0.000 A 
ATOM     14  N   UNL     1      -0.814  10.687  23.432  0.00  0.00    +0.000 NA
ATOM     15  C   UNL     1      -1.181  11.741  22.659  0.00  0.00    +0.000 A 
ATOM     16  O   UNL     1       0.541  10.737  19.604  0.00  0.00    +0.000 OA
ENDROOT
BRANCH  15  17
ATOM     17  N   UNL     1      -2.040  12.636  23.263  0.00  0.00    +0.000 N 
ATOM     18  C   UNL     1      -3.422  12.245  23.562  0.00  0.00    +0.000 C 
ATOM     19  C   UNL     1      -4.380  13.369  23.139  0.00  0.00    +0.000 C 
ATOM     20  O   UNL     1      -4.026  14.621  23.753  0.00  0.00    +0.000 OA
ATOM     21  C   UNL     1      -2.696  14.997  23.366  0.00  0.00    +0.000 C 
ATOM     22  C   UNL     1      -1.648  13.947  23.782  0.00  0.00    +0.000 C 
ENDBRANCH  15  17
TORSDOF 1
ENDMDL
MODEL 6
REMARK VINA RESULT:      -6.0     11.523     13.751
REMARK  Name = 
REMARK  1 active torsions:
REMARK  status: ('A' for Active; 'I' for Inactive)
REMARK    1  A    between atoms: C_15  and  N_16
REMARK                            x       y       z     vdW  Elec       q    Type
REMARK                         _______ _______ _______ _____ _____    ______ ____
ROOT
ATOM      1 BR   UNL     1       0.888   9.098  20.306  0.00  0.00    +0.000 Br
ATOM      2  C   UNL     1      -0.260  10.313  21.190  0.00  0.00    +0.000 A 
ATOM      3  C   UNL     1      -0.294  10.342  22.586  0.00  0.00    +0.000 A 
ATOM      4  C   UNL     1      -1.149  11.232  23.241  0.00  0.00    +0.000 A 
ATOM      5  C   UNL     1      -1.977  12.073  22.496  0.00  0.00    +0.000 A 
ATOM      6  C   UNL     1      -1.922  12.049  21.103  0.00  0.00    +0.000 A 
ATOM      7  C   UNL     1      -1.061  11.173  20.439  0.00  0.00    +0.000 A 
ATOM      8  C   UNL     1      -2.718  12.991  20.309  0.00  0.00    +0.000 C 
ATOM      9  N   UNL     1      -3.909  13.436  20.563  0.00  0.00    +0.000 NA
ATOM     10  C   UNL     1      -4.660  12.971  21.676  0.00  0.00    +0.000 A 
ATOM     11  C   UNL     1      -4.119  12.785  22.951  0.00  0.00    +0.000 A 
ATOM     12  N   UNL     1      -4.812  12.449  24.055  0.00  0.00    +0.000 NA
ATOM     13  C   UNL     1      -6.116  12.283  23.862  0.00  0.00    +0.000 A 
ATOM     14  N   UNL     1      -6.762  12.409  22.696  0.00  0.00    +0.000 NA
ATOM     15  C   UNL     1      -6.045  12.740  21.592  0.00  0.00    +0.000 A 
ATOM     16  O   UNL     1      -2.768  12.960  23.179  0.00  0.00    +0.000 OA
ENDROOT
BRANCH  15  17
ATOM     17  N   UNL     1      -6.767  12.774  20.417  0.00  0.00    +0.000 N 
ATOM     18  C   UNL     1      -7.195  11.525  19.777  0.00  0.00    +0.000 C 
ATOM     19  C   UNL     1      -6.915  11.595  18.268  0.00  0.00    +0.000 C 
ATOM     20  O   UNL     1      -7.532  12.749  17.672  0.00  0.00    +0.000 OA
ATOM     21  C   UNL     1      -7.021  13.946  18.278  0.00  0.00    +0.000 C 
ATOM     22  C   UNL     1      -7.288  13.991  19.794  0.00  0.00    +0.000 C 
ENDBRANCH  15  17
TORSDOF 1
ENDMDL
MODEL 7
REMARK VINA RESULT:      -5.8      0.583      1.209
REMARK  Name = 
REMARK  1 active torsions:
REMARK  status: ('A' for Active; 'I' for Inactive)
REMARK    1  A    between atoms: C_15  and  N_16
REMARK                            x       y       z     vdW  Elec       q    Type
REMARK                         _______ _______ _______ _____ _____    ______ ____
ROOT
ATOM      1 BR   UNL     1       6.299   2.247  11.444  0.00  0.00    +0.000 Br
ATOM      2  C   UNL     1       6.351   3.521  12.840  0.00  0.00    +0.000 A 
ATOM      3  C   UNL     1       7.488   4.315  13.011  0.00  0.00    +0.000 A 
ATOM      4  C   UNL     1       7.533   5.250  14.047  0.00  0.00    +0.000 A 
ATOM      5  C   UNL     1       6.448   5.371  14.918  0.00  0.00    +0.000 A 
ATOM      6  C   UNL     1       5.312   4.588  14.729  0.00  0.00    +0.000 A 
ATOM      7  C   UNL     1       5.251   3.660  13.687  0.00  0.00    +0.000 A 
ATOM      8  C   UNL     1       4.130   4.770  15.578  0.00  0.00    +0.000 C 
ATOM      9  N   UNL     1       4.097   5.061  16.841  0.00  0.00    +0.000 NA
ATOM     10  C   UNL     1       5.282   5.170  17.616  0.00  0.00    +0.000 A 
ATOM     11  C   UNL     1       6.437   5.824  17.176  0.00  0.00    +0.000 A 
ATOM     12  N   UNL     1       7.543   6.041  17.911  0.00  0.00    +0.000 NA
ATOM     13  C   UNL     1       7.486   5.568  19.152  0.00  0.00    +0.000 A 
ATOM     14  N   UNL     1       6.456   4.908  19.696  0.00  0.00    +0.000 NA
ATOM     15  C   UNL     1       5.354   4.689  18.936  0.00  0.00    +0.000 A 
ATOM     16  O   UNL     1       6.518   6.332  15.894  0.00  0.00    +0.000 OA
ENDROOT
BRANCH  15  17
ATOM     17  N   UNL     1       4.368   3.935  19.540  0.00  0.00    +0.000 N 
ATOM     18  C   UNL     1       3.104   4.561  19.945  0.00  0.00    +0.000 C 
ATOM     19  C   UNL     1       2.729   4.097  21.360  0.00  0.00    +0.000 C 
ATOM     20  O   UNL     1       2.676   2.661  21.446  0.00  0.00    +0.000 OA
ATOM     21  C   UNL     1       3.957   2.104  21.117  0.00  0.00    +0.000 C 
ATOM     22  C   UNL     1       4.409   2.480  19.694  0.00  0.00    +0.000 C 
ENDBRANCH  15  17
TORSDOF 1
ENDMDL
MODEL 8
REMARK VINA RESULT:      -5.8      9.884     11.319
REMARK  Name = 
REMARK  1 active torsions:
REMARK  status: ('A' for Active; 'I' for Inactive)
REMARK    1  A    between atoms: C_15  and  N_16
REMARK                            x       y       z     vdW  Elec       q    Type
REMARK                         _______ _______ _______ _____ _____    ______ ____
ROOT
ATOM      1 BR   UNL     1      -3.524  10.572  15.157  0.00  0.00    +0.000 Br
ATOM      2  C   UNL     1      -2.293  10.647  16.590  0.00  0.00    +0.000 A 
ATOM      3  C   UNL     1      -1.514   9.528  16.893  0.00  0.00    +0.000 A 
ATOM      4  C   UNL     1      -0.611   9.578  17.957  0.00  0.00    +0.000 A 
ATOM      5  C   UNL     1      -0.507  10.740  18.724  0.00  0.00    +0.000 A 
ATOM      6  C   UNL     1      -1.275  11.857  18.403  0.00  0.00    +0.000 A 
ATOM      7  C   UNL     1      -2.170  11.822  17.332  0.00  0.00    +0.000 A 
ATOM      8  C   UNL     1      -1.109  13.114  19.140  0.00  0.00    +0.000 C 
ATOM      9  N   UNL     1      -0.856  13.266  20.403  0.00  0.00    +0.000 NA
ATOM     10  C   UNL     1      -0.780  12.159  21.290  0.00  0.00    +0.000 A 
ATOM     11  C   UNL     1      -0.123  10.965  20.983  0.00  0.00    +0.000 A 
ATOM     12  N   UNL     1       0.064   9.933  21.827  0.00  0.00    +0.000 NA
ATOM     13  C   UNL     1      -0.446  10.111  23.042  0.00  0.00    +0.000 A 
ATOM     14  N   UNL     1      -1.114  11.191  23.465  0.00  0.00    +0.000 NA
ATOM     15  C   UNL     1      -1.301  12.217  22.596  0.00  0.00    +0.000 A 
ATOM     16  O   UNL     1       0.423  10.759  19.731  0.00  0.00    +0.000 OA
ENDROOT
BRANCH  15  17
ATOM     17  N   UNL     1      -2.065  13.260  23.080  0.00  0.00    +0.000 N 
ATOM     18  C   UNL     1      -1.420  14.417  23.711  0.00  0.00    +0.000 C 
ATOM     19  C   UNL     1      -2.165  14.781  25.003  0.00  0.00    +0.000 C 
ATOM     20  O   UNL     1      -3.564  15.008  24.758  0.00  0.00    +0.000 OA
ATOM     21  C   UNL     1      -4.164  13.822  24.215  0.00  0.00    +0.000 C 
ATOM     22  C   UNL     1      -3.510  13.392  22.888  0.00  0.00    +0.000 C 
ENDBRANCH  15  17
TORSDOF 1
ENDMDL
MODEL 9
REMARK VINA RESULT:      -5.7     10.376     12.761
REMARK  Name = 
REMARK  1 active torsions:
REMARK  status: ('A' for Active; 'I' for Inactive)
REMARK    1  A    between atoms: C_15  and  N_16
REMARK                            x       y       z     vdW  Elec       q    Type
REMARK                         _______ _______ _______ _____ _____    ______ ____
ROOT
ATOM      1 BR   UNL     1      -7.603  12.507  23.557  0.00  0.00    +0.000 Br
ATOM      2  C   UNL     1      -6.723  12.536  21.884  0.00  0.00    +0.000 A 
ATOM      3  C   UNL     1      -7.453  12.316  20.713  0.00  0.00    +0.000 A 
ATOM      4  C   UNL     1      -6.803  12.327  19.477  0.00  0.00    +0.000 A 
ATOM      5  C   UNL     1      -5.425  12.539  19.421  0.00  0.00    +0.000 A 
ATOM      6  C   UNL     1      -4.708  12.777  20.593  0.00  0.00    +0.000 A 
ATOM      7  C   UNL     1      -5.351  12.782  21.832  0.00  0.00    +0.000 A 
ATOM      8  C   UNL     1      -3.277  13.094  20.541  0.00  0.00    +0.000 C 
ATOM      9  N   UNL     1      -2.388  12.619  19.726  0.00  0.00    +0.000 NA
ATOM     10  C   UNL     1      -2.704  11.611  18.775  0.00  0.00    +0.000 A 
ATOM     11  C   UNL     1      -3.866  11.620  17.998  0.00  0.00    +0.000 A 
ATOM     12  N   UNL     1      -4.158  10.748  17.015  0.00  0.00    +0.000 NA
ATOM     13  C   UNL     1      -3.234   9.813  16.811  0.00  0.00    +0.000 A 
ATOM     14  N   UNL     1      -2.090   9.675  17.492  0.00  0.00    +0.000 NA
ATOM     15  C   UNL     1      -1.818  10.558  18.485  0.00  0.00    +0.000 A 
ATOM     16  O   UNL     1      -4.836  12.586  18.184  0.00  0.00    +0.000 OA
ENDROOT
BRANCH  15  17
ATOM     17  N   UNL     1      -0.660  10.304  19.191  0.00  0.00    +0.000 N 
ATOM     18  C   UNL     1       0.635  10.277  18.501  0.00  0.00    +0.000 C 
ATOM     19  C   UNL     1       1.442   9.057  18.967  0.00  0.00    +0.000 C 
ATOM     20  O   UNL     1       1.590   9.038  20.398  0.00  0.00    +0.000 OA
ATOM     21  C   UNL     1       0.299   8.985  21.022  0.00  0.00    +0.000 C 
ATOM     22  C   UNL     1      -0.580  10.193  20.649  0.00  0.00    +0.000 C 
ENDBRANCH  15  17
TORSDOF 1
ENDMDL
