MODEL 1
REMARK VINA RESULT:      -7.5      0.000      0.000
REMARK  Name = 
REMARK  4 active torsions:
REMARK  status: ('A' for Active; 'I' for Inactive)
REMARK    1  A    between atoms: C_1  and  C_2
REMARK    2  A    between atoms: C_2  and  C_3
REMARK    3  A    between atoms: C_10  and  N_11
REMARK    4  A    between atoms: N_11  and  C_12
REMARK                            x       y       z     vdW  Elec       q    Type
REMARK                         _______ _______ _______ _____ _____    ______ ____
ROOT
ATOM      1  C   UNL     1       6.404   4.368  14.587  0.00  0.00    +0.000 A 
ATOM      2  C   UNL     1       5.074   4.283  14.945  0.00  0.00    +0.000 A 
ATOM      3  N   UNL     1       4.644   4.403  16.213  0.00  0.00    +0.000 NA
ATOM      4  C   UNL     1       5.560   4.653  17.198  0.00  0.00    +0.000 A 
ATOM      5  C   UNL     1       5.239   4.866  18.550  0.00  0.00    +0.000 A 
ATOM      6  N   UNL     1       3.878   4.830  18.960  0.00  0.00    +0.000 N 
ATOM      7  C   UNL     1       2.748   5.267  18.188  0.00  0.00    +0.000 C 
ATOM      8  C   UNL     1       2.156   5.906  19.452  0.00  0.00    +0.000 C 
ATOM      9  C   UNL     1       3.345   5.288  20.209  0.00  0.00    +0.000 C 
ATOM     10  N   UNL     1       6.178   5.092  19.505  0.00  0.00    +0.000 NA
ATOM     11  C   UNL     1       7.448   5.158  19.109  0.00  0.00    +0.000 A 
ATOM     12  N   UNL     1       8.408   5.434  20.059  0.00  0.00    +0.000 N 
ATOM     13  N   UNL     1       7.867   4.962  17.864  0.00  0.00    +0.000 NA
ATOM     14  C   UNL     1       6.928   4.727  16.938  0.00  0.00    +0.000 A 
ATOM     15  C   UNL     1       7.329   4.571  15.615  0.00  0.00    +0.000 A 
ATOM     16  H   UNL     1       8.074   5.197  20.982  0.00  0.00    +0.000 HD
ATOM     17  H   UNL     1       9.304   5.069  19.770  0.00  0.00    +0.000 HD
ENDROOT
BRANCH   8  18
ATOM     18  N   UNL     1       2.305   7.375  19.357  0.00  0.00    +0.000 NA
ATOM     19  C   UNL     1       1.535   8.020  20.411  0.00  0.00    +0.000 C 
ATOM     20  H   UNL     1       2.022   7.757  18.456  0.00  0.00    +0.000 HD
ENDBRANCH   8  18
BRANCH   1  22
ATOM     21  C   UNL     1       5.953   3.347  12.360  0.00  0.00    +0.000 C 
ATOM     22  C   UNL     1       6.818   4.322  13.146  0.00  0.00    +0.000 C 
ENDBRANCH   1  22
TORSDOF 2
ENDMDL
MODEL 2
REMARK VINA RESULT:      -7.0      1.811      5.807
REMARK  Name = 
REMARK  4 active torsions:
REMARK  status: ('A' for Active; 'I' for Inactive)
REMARK    1  A    between atoms: C_1  and  C_2
REMARK    2  A    between atoms: C_2  and  C_3
REMARK    3  A    between atoms: C_10  and  N_11
REMARK    4  A    between atoms: N_11  and  C_12
REMARK                            x       y       z     vdW  Elec       q    Type
REMARK                         _______ _______ _______ _____ _____    ______ ____
ROOT
ATOM      1  C   UNL     1       2.424   7.635  18.772  0.00  0.00    +0.000 A 
ATOM      2  C   UNL     1       3.253   7.912  17.704  0.00  0.00    +0.000 A 
ATOM      3  N   UNL     1       4.243   7.092  17.309  0.00  0.00    +0.000 NA
ATOM      4  C   UNL     1       4.424   5.910  17.974  0.00  0.00    +0.000 A 
ATOM      5  C   UNL     1       5.375   4.936  17.623  0.00  0.00    +0.000 A 
ATOM      6  N   UNL     1       6.224   5.158  16.503  0.00  0.00    +0.000 N 
ATOM      7  C   UNL     1       5.871   5.851  15.296  0.00  0.00    +0.000 C 
ATOM      8  C   UNL     1       6.615   4.781  14.486  0.00  0.00    +0.000 C 
ATOM      9  C   UNL     1       7.041   4.186  15.840  0.00  0.00    +0.000 C 
ATOM     10  N   UNL     1       5.540   3.781  18.319  0.00  0.00    +0.000 NA
ATOM     11  C   UNL     1       4.720   3.564  19.345  0.00  0.00    +0.000 A 
ATOM     12  N   UNL     1       4.844   2.376  20.032  0.00  0.00    +0.000 N 
ATOM     13  N   UNL     1       3.795   4.417  19.772  0.00  0.00    +0.000 NA
ATOM     14  C   UNL     1       3.655   5.557  19.082  0.00  0.00    +0.000 A 
ATOM     15  C   UNL     1       2.659   6.447  19.471  0.00  0.00    +0.000 A 
ATOM     16  H   UNL     1       5.764   1.983  19.900  0.00  0.00    +0.000 HD
ATOM     17  H   UNL     1       4.502   2.478  20.976  0.00  0.00    +0.000 HD
ENDROOT
BRANCH   8  18
ATOM     18  N   UNL     1       5.621   3.909  13.823  0.00  0.00    +0.000 NA
ATOM     19  C   UNL     1       6.113   3.503  12.514  0.00  0.00    +0.000 C 
ATOM     20  H   UNL     1       4.705   4.341  13.716  0.00  0.00    +0.000 HD
ENDBRANCH   8  18
BRANCH   1  22
ATOM     21  C   UNL     1       1.152   9.667  18.097  0.00  0.00    +0.000 C 
ATOM     22  C   UNL     1       1.274   8.537  19.110  0.00  0.00    +0.000 C 
ENDBRANCH   1  22
TORSDOF 2
ENDMDL
MODEL 3
REMARK VINA RESULT:      -6.8      1.316      1.377
REMARK  Name = 
REMARK  4 active torsions:
REMARK  status: ('A' for Active; 'I' for Inactive)
REMARK    1  A    between atoms: C_1  and  C_2
REMARK    2  A    between atoms: C_2  and  C_3
REMARK    3  A    between atoms: C_10  and  N_11
REMARK    4  A    between atoms: N_11  and  C_12
REMARK                            x       y       z     vdW  Elec       q    Type
REMARK                         _______ _______ _______ _____ _____    ______ ____
ROOT
ATOM      1  C   UNL     1       6.744   4.614  14.337  0.00  0.00    +0.000 A 
ATOM      2  C   UNL     1       5.582   3.924  14.618  0.00  0.00    +0.000 A 
ATOM      3  N   UNL     1       5.156   3.679  15.870  0.00  0.00    +0.000 NA
ATOM      4  C   UNL     1       5.889   4.160  16.921  0.00  0.00    +0.000 A 
ATOM      5  C   UNL     1       5.522   4.033  18.272  0.00  0.00    +0.000 A 
ATOM      6  N   UNL     1       4.311   3.367  18.609  0.00  0.00    +0.000 N 
ATOM      7  C   UNL     1       3.095   3.382  17.846  0.00  0.00    +0.000 C 
ATOM      8  C   UNL     1       2.300   3.532  19.150  0.00  0.00    +0.000 C 
ATOM      9  C   UNL     1       3.647   3.383  19.879  0.00  0.00    +0.000 C 
ATOM     10  N   UNL     1       6.285   4.507  19.291  0.00  0.00    +0.000 NA
ATOM     11  C   UNL     1       7.400   5.159  18.968  0.00  0.00    +0.000 A 
ATOM     12  N   UNL     1       8.160   5.687  19.989  0.00  0.00    +0.000 N 
ATOM     13  N   UNL     1       7.848   5.328  17.729  0.00  0.00    +0.000 NA
ATOM     14  C   UNL     1       7.090   4.843  16.737  0.00  0.00    +0.000 A 
ATOM     15  C   UNL     1       7.505   5.052  15.425  0.00  0.00    +0.000 A 
ATOM     16  H   UNL     1       7.969   5.209  20.858  0.00  0.00    +0.000 HD
ATOM     17  H   UNL     1       9.123   5.779  19.699  0.00  0.00    +0.000 HD
ENDROOT
BRANCH   8  18
ATOM     18  N   UNL     1       1.806   4.923  19.249  0.00  0.00    +0.000 NA
ATOM     19  C   UNL     1       1.268   5.165  20.580  0.00  0.00    +0.000 C 
ATOM     20  H   UNL     1       1.096   5.154  18.555  0.00  0.00    +0.000 HD
ENDBRANCH   8  18
BRANCH   1  22
ATOM     21  C   UNL     1       6.892   3.749  12.006  0.00  0.00    +0.000 C 
ATOM     22  C   UNL     1       7.122   4.942  12.923  0.00  0.00    +0.000 C 
ENDBRANCH   1  22
TORSDOF 2
ENDMDL
MODEL 4
REMARK VINA RESULT:      -6.8      1.702      1.896
REMARK  Name = 
REMARK  4 active torsions:
REMARK  status: ('A' for Active; 'I' for Inactive)
REMARK    1  A    between atoms: C_1  and  C_2
REMARK    2  A    between atoms: C_2  and  C_3
REMARK    3  A    between atoms: C_10  and  N_11
REMARK    4  A    between atoms: N_11  and  C_12
REMARK                            x       y       z     vdW  Elec       q    Type
REMARK                         _______ _______ _______ _____ _____    ______ ____
ROOT
ATOM      1  C   UNL     1       6.423   4.037  13.741  0.00  0.00    +0.000 A 
ATOM      2  C   UNL     1       5.668   3.198  14.536  0.00  0.00    +0.000 A 
ATOM      3  N   UNL     1       5.521   3.376  15.861  0.00  0.00    +0.000 NA
ATOM      4  C   UNL     1       6.120   4.456  16.451  0.00  0.00    +0.000 A 
ATOM      5  C   UNL     1       5.991   4.795  17.809  0.00  0.00    +0.000 A 
ATOM      6  N   UNL     1       5.189   3.985  18.660  0.00  0.00    +0.000 N 
ATOM      7  C   UNL     1       3.987   3.293  18.286  0.00  0.00    +0.000 C 
ATOM      8  C   UNL     1       3.353   3.714  19.619  0.00  0.00    +0.000 C 
ATOM      9  C   UNL     1       4.724   4.317  19.974  0.00  0.00    +0.000 C 
ATOM     10  N   UNL     1       6.615   5.865  18.364  0.00  0.00    +0.000 NA
ATOM     11  C   UNL     1       7.337   6.639  17.556  0.00  0.00    +0.000 A 
ATOM     12  N   UNL     1       7.939   7.755  18.097  0.00  0.00    +0.000 N 
ATOM     13  N   UNL     1       7.537   6.409  16.263  0.00  0.00    +0.000 NA
ATOM     14  C   UNL     1       6.923   5.342  15.735  0.00  0.00    +0.000 A 
ATOM     15  C   UNL     1       7.068   5.104  14.372  0.00  0.00    +0.000 A 
ATOM     16  H   UNL     1       8.054   7.650  19.094  0.00  0.00    +0.000 HD
ATOM     17  H   UNL     1       8.746   8.018  17.550  0.00  0.00    +0.000 HD
ENDROOT
BRANCH   8  18
ATOM     18  N   UNL     1       2.364   4.783  19.360  0.00  0.00    +0.000 NA
ATOM     19  C   UNL     1       1.264   4.681  20.307  0.00  0.00    +0.000 C 
ATOM     20  H   UNL     1       1.990   4.773  18.412  0.00  0.00    +0.000 HD
ENDBRANCH   8  18
BRANCH   1  22
ATOM     21  C   UNL     1       5.272   3.053  11.762  0.00  0.00    +0.000 C 
ATOM     22  C   UNL     1       6.475   3.847  12.254  0.00  0.00    +0.000 C 
ENDBRANCH   1  22
TORSDOF 2
ENDMDL
MODEL 5
REMARK VINA RESULT:      -6.6      2.169      6.079
REMARK  Name = 
REMARK  4 active torsions:
REMARK  status: ('A' for Active; 'I' for Inactive)
REMARK    1  A    between atoms: C_1  and  C_2
REMARK    2  A    between atoms: C_2  and  C_3
REMARK    3  A    between atoms: C_10  and  N_11
REMARK    4  A    between atoms: N_11  and  C_12
REMARK                            x       y       z     vdW  Elec       q    Type
REMARK                         _______ _______ _______ _____ _____    ______ ____
ROOT
ATOM      1  C   UNL     1       2.436   7.488  18.612  0.00  0.00    +0.000 A 
ATOM      2  C   UNL     1       3.509   7.678  17.764  0.00  0.00    +0.000 A 
ATOM      3  N   UNL     1       4.250   6.667  17.277  0.00  0.00    +0.000 NA
ATOM      4  C   UNL     1       3.912   5.383  17.610  0.00  0.00    +0.000 A 
ATOM      5  C   UNL     1       4.558   4.236  17.118  0.00  0.00    +0.000 A 
ATOM      6  N   UNL     1       5.642   4.379  16.208  0.00  0.00    +0.000 N 
ATOM      7  C   UNL     1       5.778   5.398  15.204  0.00  0.00    +0.000 C 
ATOM      8  C   UNL     1       6.296   4.336  14.225  0.00  0.00    +0.000 C 
ATOM      9  C   UNL     1       6.230   3.349  15.403  0.00  0.00    +0.000 C 
ATOM     10  N   UNL     1       4.207   2.976  17.485  0.00  0.00    +0.000 NA
ATOM     11  C   UNL     1       3.170   2.847  18.310  0.00  0.00    +0.000 A 
ATOM     12  N   UNL     1       2.773   1.574  18.655  0.00  0.00    +0.000 N 
ATOM     13  N   UNL     1       2.494   3.858  18.844  0.00  0.00    +0.000 NA
ATOM     14  C   UNL     1       2.863   5.094  18.481  0.00  0.00    +0.000 A 
ATOM     15  C   UNL     1       2.139   6.173  18.980  0.00  0.00    +0.000 A 
ATOM     16  H   UNL     1       3.529   0.918  18.528  0.00  0.00    +0.000 HD
ATOM     17  H   UNL     1       2.296   1.583  19.545  0.00  0.00    +0.000 HD
ENDROOT
BRANCH   8  18
ATOM     18  N   UNL     1       5.235   4.041  13.237  0.00  0.00    +0.000 NA
ATOM     19  C   UNL     1       5.797   3.317  12.106  0.00  0.00    +0.000 C 
ATOM     20  H   UNL     1       4.753   4.871  12.895  0.00  0.00    +0.000 HD
ENDBRANCH   8  18
BRANCH   1  22
ATOM     21  C   UNL     1       1.325   9.598  17.890  0.00  0.00    +0.000 C 
ATOM     22  C   UNL     1       1.586   8.644  19.048  0.00  0.00    +0.000 C 
ENDBRANCH   1  22
TORSDOF 2
ENDMDL
MODEL 6
REMARK VINA RESULT:      -6.6      2.075      3.654
REMARK  Name = 
REMARK  4 active torsions:
REMARK  status: ('A' for Active; 'I' for Inactive)
REMARK    1  A    between atoms: C_1  and  C_2
REMARK    2  A    between atoms: C_2  and  C_3
REMARK    3  A    between atoms: C_10  and  N_11
REMARK    4  A    between atoms: N_11  and  C_12
REMARK                            x       y       z     vdW  Elec       q    Type
REMARK                         _______ _______ _______ _____ _____    ______ ____
ROOT
ATOM      1  C   UNL     1       5.934   5.126  15.936  0.00  0.00    +0.000 A 
ATOM      2  C   UNL     1       5.745   4.253  16.988  0.00  0.00    +0.000 A 
ATOM      3  N   UNL     1       4.907   4.501  18.009  0.00  0.00    +0.000 NA
ATOM      4  C   UNL     1       4.179   5.660  17.997  0.00  0.00    +0.000 A 
ATOM      5  C   UNL     1       3.220   6.009  18.965  0.00  0.00    +0.000 A 
ATOM      6  N   UNL     1       2.962   5.121  20.045  0.00  0.00    +0.000 N 
ATOM      7  C   UNL     1       2.996   3.686  19.991  0.00  0.00    +0.000 C 
ATOM      8  C   UNL     1       1.728   3.642  20.854  0.00  0.00    +0.000 C 
ATOM      9  C   UNL     1       1.853   5.173  20.952  0.00  0.00    +0.000 C 
ATOM     10  N   UNL     1       2.530   7.178  18.930  0.00  0.00    +0.000 NA
ATOM     11  C   UNL     1       2.752   7.989  17.899  0.00  0.00    +0.000 A 
ATOM     12  N   UNL     1       2.024   9.157  17.825  0.00  0.00    +0.000 N 
ATOM     13  N   UNL     1       3.639   7.767  16.935  0.00  0.00    +0.000 NA
ATOM     14  C   UNL     1       4.321   6.615  16.992  0.00  0.00    +0.000 A 
ATOM     15  C   UNL     1       5.219   6.327  15.968  0.00  0.00    +0.000 A 
ATOM     16  H   UNL     1       1.680   9.419  18.737  0.00  0.00    +0.000 HD
ATOM     17  H   UNL     1       2.525   9.850  17.289  0.00  0.00    +0.000 HD
ENDROOT
BRANCH   8  18
ATOM     18  N   UNL     1       0.582   3.266  19.998  0.00  0.00    +0.000 NA
ATOM     19  C   UNL     1       0.923   2.100  19.196  0.00  0.00    +0.000 C 
ATOM     20  H   UNL     1       0.270   4.015  19.382  0.00  0.00    +0.000 HD
ENDBRANCH   8  18
BRANCH   1  22
ATOM     21  C   UNL     1       6.044   3.915  13.762  0.00  0.00    +0.000 C 
ATOM     22  C   UNL     1       6.808   4.756  14.775  0.00  0.00    +0.000 C 
ENDBRANCH   1  22
TORSDOF 2
ENDMDL
MODEL 7
REMARK VINA RESULT:      -6.3      1.504      5.583
REMARK  Name = 
REMARK  4 active torsions:
REMARK  status: ('A' for Active; 'I' for Inactive)
REMARK    1  A    between atoms: C_1  and  C_2
REMARK    2  A    between atoms: C_2  and  C_3
REMARK    3  A    between atoms: C_10  and  N_11
REMARK    4  A    between atoms: N_11  and  C_12
REMARK                            x       y       z     vdW  Elec       q    Type
REMARK                         _______ _______ _______ _____ _____    ______ ____
ROOT
ATOM      1  C   UNL     1       2.456   4.518  19.466  0.00  0.00    +0.000 A 
ATOM      2  C   UNL     1       2.343   4.743  18.109  0.00  0.00    +0.000 A 
ATOM      3  N   UNL     1       3.389   5.063  17.327  0.00  0.00    +0.000 NA
ATOM      4  C   UNL     1       4.634   5.139  17.890  0.00  0.00    +0.000 A 
ATOM      5  C   UNL     1       5.817   5.397  17.175  0.00  0.00    +0.000 A 
ATOM      6  N   UNL     1       5.756   5.594  15.768  0.00  0.00    +0.000 N 
ATOM      7  C   UNL     1       4.852   4.946  14.859  0.00  0.00    +0.000 C 
ATOM      8  C   UNL     1       6.006   4.778  13.862  0.00  0.00    +0.000 C 
ATOM      9  C   UNL     1       6.858   5.591  14.852  0.00  0.00    +0.000 C 
ATOM     10  N   UNL     1       7.034   5.485  17.772  0.00  0.00    +0.000 NA
ATOM     11  C   UNL     1       7.089   5.266  19.084  0.00  0.00    +0.000 A 
ATOM     12  N   UNL     1       8.324   5.305  19.695  0.00  0.00    +0.000 N 
ATOM     13  N   UNL     1       6.037   5.026  19.858  0.00  0.00    +0.000 NA
ATOM     14  C   UNL     1       4.843   4.955  19.255  0.00  0.00    +0.000 A 
ATOM     15  C   UNL     1       3.728   4.652  20.031  0.00  0.00    +0.000 A 
ATOM     16  H   UNL     1       8.977   5.843  19.144  0.00  0.00    +0.000 HD
ATOM     17  H   UNL     1       8.225   5.535  20.673  0.00  0.00    +0.000 HD
ENDROOT
BRANCH   8  18
ATOM     18  N   UNL     1       6.426   3.360  13.853  0.00  0.00    +0.000 NA
ATOM     19  C   UNL     1       6.399   2.842  12.493  0.00  0.00    +0.000 C 
ATOM     20  H   UNL     1       5.857   2.762  14.450  0.00  0.00    +0.000 HD
ENDBRANCH   8  18
BRANCH   1  22
ATOM     21  C   UNL     1       1.664   2.967  21.248  0.00  0.00    +0.000 C 
ATOM     22  C   UNL     1       1.274   4.070  20.274  0.00  0.00    +0.000 C 
ENDBRANCH   1  22
TORSDOF 2
ENDMDL
MODEL 8
REMARK VINA RESULT:      -6.2      1.680      6.050
REMARK  Name = 
REMARK  4 active torsions:
REMARK  status: ('A' for Active; 'I' for Inactive)
REMARK    1  A    between atoms: C_1  and  C_2
REMARK    2  A    between atoms: C_2  and  C_3
REMARK    3  A    between atoms: C_10  and  N_11
REMARK    4  A    between atoms: N_11  and  C_12
REMARK                            x       y       z     vdW  Elec       q    Type
REMARK                         _______ _______ _______ _____ _____    ______ ____
ROOT
ATOM      1  C   UNL     1       1.871   6.545  20.197  0.00  0.00    +0.000 A 
ATOM      2  C   UNL     1       2.624   7.157  19.216  0.00  0.00    +0.000 A 
ATOM      3  N   UNL     1       3.686   6.574  18.633  0.00  0.00    +0.000 NA
ATOM      4  C   UNL     1       4.025   5.301  19.004  0.00  0.00    +0.000 A 
ATOM      5  C   UNL     1       5.068   4.554  18.428  0.00  0.00    +0.000 A 
ATOM      6  N   UNL     1       5.845   5.128  17.384  0.00  0.00    +0.000 N 
ATOM      7  C   UNL     1       5.373   6.032  16.374  0.00  0.00    +0.000 C 
ATOM      8  C   UNL     1       6.205   5.274  15.332  0.00  0.00    +0.000 C 
ATOM      9  C   UNL     1       6.745   4.439  16.506  0.00  0.00    +0.000 C 
ATOM     10  N   UNL     1       5.388   3.299  18.835  0.00  0.00    +0.000 NA
ATOM     11  C   UNL     1       4.636   2.755  19.790  0.00  0.00    +0.000 A 
ATOM     12  N   UNL     1       4.919   1.464  20.180  0.00  0.00    +0.000 N 
ATOM     13  N   UNL     1       3.635   3.370  20.410  0.00  0.00    +0.000 NA
ATOM     14  C   UNL     1       3.342   4.613  20.005  0.00  0.00    +0.000 A 
ATOM     15  C   UNL     1       2.265   5.265  20.598  0.00  0.00    +0.000 A 
ATOM     16  H   UNL     1       5.873   1.225  19.953  0.00  0.00    +0.000 HD
ATOM     17  H   UNL     1       4.601   1.305  21.125  0.00  0.00    +0.000 HD
ENDROOT
BRANCH   8  18
ATOM     18  N   UNL     1       5.295   4.465  14.491  0.00  0.00    +0.000 NA
ATOM     19  C   UNL     1       6.036   3.867  13.390  0.00  0.00    +0.000 C 
ATOM     20  H   UNL     1       4.508   4.993  14.116  0.00  0.00    +0.000 HD
ENDBRANCH   8  18
BRANCH   1  22
ATOM     21  C   UNL     1       0.967   8.560  21.350  0.00  0.00    +0.000 C 
ATOM     22  C   UNL     1       0.638   7.202  20.744  0.00  0.00    +0.000 C 
ENDBRANCH   1  22
TORSDOF 2
ENDMDL
MODEL 9
REMARK VINA RESULT:      -6.1      3.172      5.519
REMARK  Name = 
REMARK  4 active torsions:
REMARK  status: ('A' for Active; 'I' for Inactive)
REMARK    1  A    between atoms: C_1  and  C_2
REMARK    2  A    between atoms: C_2  and  C_3
REMARK    3  A    between atoms: C_10  and  N_11
REMARK    4  A    between atoms: N_11  and  C_12
REMARK                            x       y       z     vdW  Elec       q    Type
REMARK                         _______ _______ _______ _____ _____    ______ ____
ROOT
ATOM      1  C   UNL     1       2.592   3.955  20.104  0.00  0.00    +0.000 A 
ATOM      2  C   UNL     1       1.944   5.061  20.618  0.00  0.00    +0.000 A 
ATOM      3  N   UNL     1       2.057   6.291  20.087  0.00  0.00    +0.000 NA
ATOM      4  C   UNL     1       2.824   6.457  18.966  0.00  0.00    +0.000 A 
ATOM      5  C   UNL     1       2.971   7.673  18.275  0.00  0.00    +0.000 A 
ATOM      6  N   UNL     1       2.290   8.830  18.742  0.00  0.00    +0.000 N 
ATOM      7  C   UNL     1       0.996   8.859  19.366  0.00  0.00    +0.000 C 
ATOM      8  C   UNL     1       0.650  10.109  18.546  0.00  0.00    +0.000 C 
ATOM      9  C   UNL     1       2.099  10.060  18.030  0.00  0.00    +0.000 C 
ATOM     10  N   UNL     1       3.757   7.805  17.175  0.00  0.00    +0.000 NA
ATOM     11  C   UNL     1       4.365   6.710  16.723  0.00  0.00    +0.000 A 
ATOM     12  N   UNL     1       5.128   6.819  15.581  0.00  0.00    +0.000 N 
ATOM     13  N   UNL     1       4.307   5.516  17.301  0.00  0.00    +0.000 NA
ATOM     14  C   UNL     1       3.537   5.406  18.393  0.00  0.00    +0.000 A 
ATOM     15  C   UNL     1       3.411   4.156  18.990  0.00  0.00    +0.000 A 
ATOM     16  H   UNL     1       5.419   7.775  15.437  0.00  0.00    +0.000 HD
ATOM     17  H   UNL     1       5.836   6.099  15.561  0.00  0.00    +0.000 HD
ENDROOT
BRANCH   8  18
ATOM     18  N   UNL     1      -0.298   9.729  17.475  0.00  0.00    +0.000 NA
ATOM     19  C   UNL     1      -1.566  10.418  17.668  0.00  0.00    +0.000 C 
ATOM     20  H   UNL     1      -0.469   8.726  17.419  0.00  0.00    +0.000 HD
ENDBRANCH   8  18
BRANCH   1  22
ATOM     21  C   UNL     1       1.390   2.650  21.853  0.00  0.00    +0.000 C 
ATOM     22  C   UNL     1       2.355   2.589  20.677  0.00  0.00    +0.000 C 
ENDBRANCH   1  22
TORSDOF 2
ENDMDL
