MODEL 1
REMARK VINA RESULT:      -8.5      0.000      0.000
REMARK  Name = 
REMARK  3 active torsions:
REMARK  status: ('A' for Active; 'I' for Inactive)
REMARK    1  A    between atoms: N_3  and  C_4
REMARK    2  A    between atoms: C_6  and  C_7
REMARK    3  A    between atoms: C_20  and  O_21
REMARK                            x       y       z     vdW  Elec       q    Type
REMARK                         _______ _______ _______ _____ _____    ______ ____
ROOT
ATOM      1  O   UNL     1       7.727   8.943  17.060  0.00  0.00    +0.000 OA
ATOM      2  C   UNL     1       8.272   9.028  18.161  0.00  0.00    +0.000 C 
ATOM      3  N   UNL     1       8.451   7.919  18.952  0.00  0.00    +0.000 N 
ATOM      4  N   UNL     1       8.760  10.224  18.651  0.00  0.00    +0.000 N 
ATOM      5  C   UNL     1       9.483  10.466  19.900  0.00  0.00    +0.000 C 
ATOM      6  C   UNL     1      10.884  11.026  19.628  0.00  0.00    +0.000 C 
ATOM      7  C   UNL     1      10.856  12.257  18.689  0.00  0.00    +0.000 C 
ATOM      8  C   UNL     1      10.057  11.881  17.419  0.00  0.00    +0.000 C 
ATOM      9  C   UNL     1       8.661  11.392  17.785  0.00  0.00    +0.000 C 
ATOM     10  C   UNL     1      12.305  12.698  18.403  0.00  0.00    +0.000 C 
ATOM     11  C   UNL     1      12.333  13.946  17.529  0.00  0.00    +0.000 C 
ATOM     12  C   UNL     1      11.240  14.921  17.907  0.00  0.00    +0.000 A 
ATOM     13  N   UNL     1      11.238  16.122  17.269  0.00  0.00    +0.000 NA
ATOM     14  C   UNL     1      10.262  16.992  17.610  0.00  0.00    +0.000 A 
ATOM     15  C   UNL     1       9.276  16.721  18.546  0.00  0.00    +0.000 A 
ATOM     16  C   UNL     1       9.280  15.473  19.164  0.00  0.00    +0.000 A 
ATOM     17  C   UNL     1      10.259  14.549  18.823  0.00  0.00    +0.000 A 
ATOM     18  O   UNL     1      10.180  13.315  19.409  0.00  0.00    +0.000 OA
ATOM     19  H   UNL     1       8.491   8.069  19.946  0.00  0.00    +0.000 HD
ENDROOT
BRANCH   3  20
ATOM     20  C   UNL     1       7.921   6.654  18.518  0.00  0.00    +0.000 C 
ATOM     21  C   UNL     1       8.238   5.400  19.278  0.00  0.00    +0.000 C 
ATOM     22  C   UNL     1       6.828   5.935  19.281  0.00  0.00    +0.000 C 
BRANCH  22  23
ATOM     23  C   UNL     1       5.743   5.217  18.513  0.00  0.00    +0.000 A 
ATOM     24  C   UNL     1       6.036   4.444  17.378  0.00  0.00    +0.000 A 
ATOM     25  C   UNL     1       5.030   3.774  16.672  0.00  0.00    +0.000 A 
ATOM     26  C   UNL     1       3.704   3.863  17.094  0.00  0.00    +0.000 A 
ATOM     27  C   UNL     1       3.391   4.618  18.218  0.00  0.00    +0.000 A 
ATOM     28  C   UNL     1       4.399   5.283  18.919  0.00  0.00    +0.000 A 
ENDBRANCH  22  23
ENDBRANCH   3  20
BRANCH  11  29
ATOM     29  O   UNL     1      12.223  13.556  16.156  0.00  0.00    +0.000 OA
ATOM     30  H   UNL     1      12.982  12.968  15.979  0.00  0.00    +0.000 HD
ENDBRANCH  11  29
TORSDOF 3
ENDMDL
MODEL 2
REMARK VINA RESULT:      -8.4      0.770      1.266
REMARK  Name = 
REMARK  3 active torsions:
REMARK  status: ('A' for Active; 'I' for Inactive)
REMARK    1  A    between atoms: N_3  and  C_4
REMARK    2  A    between atoms: C_6  and  C_7
REMARK    3  A    between atoms: C_20  and  O_21
REMARK                            x       y       z     vdW  Elec       q    Type
REMARK                         _______ _______ _______ _____ _____    ______ ____
ROOT
ATOM      1  O   UNL     1       8.029   8.957  17.091  0.00  0.00    +0.000 OA
ATOM      2  C   UNL     1       8.464   9.093  18.235  0.00  0.00    +0.000 C 
ATOM      3  N   UNL     1       8.629   8.011  19.066  0.00  0.00    +0.000 N 
ATOM      4  N   UNL     1       8.840  10.324  18.738  0.00  0.00    +0.000 N 
ATOM      5  C   UNL     1       9.430  10.631  20.041  0.00  0.00    +0.000 C 
ATOM      6  C   UNL     1      10.818  11.263  19.886  0.00  0.00    +0.000 C 
ATOM      7  C   UNL     1      10.811  12.472  18.918  0.00  0.00    +0.000 C 
ATOM      8  C   UNL     1      10.153  12.027  17.590  0.00  0.00    +0.000 C 
ATOM      9  C   UNL     1       8.758  11.468  17.839  0.00  0.00    +0.000 C 
ATOM     10  C   UNL     1      12.253  12.988  18.754  0.00  0.00    +0.000 C 
ATOM     11  C   UNL     1      12.295  14.218  17.857  0.00  0.00    +0.000 C 
ATOM     12  C   UNL     1      11.121  15.138  18.109  0.00  0.00    +0.000 A 
ATOM     13  N   UNL     1      11.112  16.324  17.445  0.00  0.00    +0.000 NA
ATOM     14  C   UNL     1      10.063  17.144  17.674  0.00  0.00    +0.000 A 
ATOM     15  C   UNL     1       9.011  16.837  18.522  0.00  0.00    +0.000 A 
ATOM     16  C   UNL     1       9.025  15.603  19.168  0.00  0.00    +0.000 A 
ATOM     17  C   UNL     1      10.081  14.729  18.940  0.00  0.00    +0.000 A 
ATOM     18  O   UNL     1      10.014  13.504  19.547  0.00  0.00    +0.000 OA
ATOM     19  H   UNL     1       8.569   8.183  20.055  0.00  0.00    +0.000 HD
ENDROOT
BRANCH   3  20
ATOM     20  C   UNL     1       8.211   6.711  18.616  0.00  0.00    +0.000 C 
ATOM     21  C   UNL     1       7.653   5.716  19.592  0.00  0.00    +0.000 C 
ATOM     22  C   UNL     1       6.750   6.316  18.543  0.00  0.00    +0.000 C 
BRANCH  22  23
ATOM     23  C   UNL     1       6.273   5.473  17.382  0.00  0.00    +0.000 A 
ATOM     24  C   UNL     1       5.274   4.500  17.544  0.00  0.00    +0.000 A 
ATOM     25  C   UNL     1       4.828   3.726  16.466  0.00  0.00    +0.000 A 
ATOM     26  C   UNL     1       5.376   3.917  15.198  0.00  0.00    +0.000 A 
ATOM     27  C   UNL     1       6.363   4.878  15.013  0.00  0.00    +0.000 A 
ATOM     28  C   UNL     1       6.801   5.647  16.091  0.00  0.00    +0.000 A 
ENDBRANCH  22  23
ENDBRANCH   3  20
BRANCH  11  29
ATOM     29  O   UNL     1      12.333  13.797  16.489  0.00  0.00    +0.000 OA
ATOM     30  H   UNL     1      11.641  13.114  16.396  0.00  0.00    +0.000 HD
ENDBRANCH  11  29
TORSDOF 3
ENDMDL
MODEL 3
REMARK VINA RESULT:      -7.9      7.408     11.547
REMARK  Name = 
REMARK  3 active torsions:
REMARK  status: ('A' for Active; 'I' for Inactive)
REMARK    1  A    between atoms: N_3  and  C_4
REMARK    2  A    between atoms: C_6  and  C_7
REMARK    3  A    between atoms: C_20  and  O_21
REMARK                            x       y       z     vdW  Elec       q    Type
REMARK                         _______ _______ _______ _____ _____    ______ ____
ROOT
ATOM      1  O   UNL     1       1.048   9.236  22.001  0.00  0.00    +0.000 OA
ATOM      2  C   UNL     1       1.011   9.466  20.792  0.00  0.00    +0.000 C 
ATOM      3  N   UNL     1       0.761  10.731  20.318  0.00  0.00    +0.000 N 
ATOM      4  N   UNL     1       1.247   8.484  19.848  0.00  0.00    +0.000 N 
ATOM      5  C   UNL     1       1.303   8.620  18.392  0.00  0.00    +0.000 C 
ATOM      6  C   UNL     1       2.682   8.228  17.852  0.00  0.00    +0.000 C 
ATOM      7  C   UNL     1       3.139   6.836  18.354  0.00  0.00    +0.000 C 
ATOM      8  C   UNL     1       3.023   6.814  19.897  0.00  0.00    +0.000 C 
ATOM      9  C   UNL     1       1.605   7.159  20.336  0.00  0.00    +0.000 C 
ATOM     10  C   UNL     1       4.564   6.563  17.836  0.00  0.00    +0.000 C 
ATOM     11  C   UNL     1       5.041   5.177  18.253  0.00  0.00    +0.000 C 
ATOM     12  C   UNL     1       3.930   4.153  18.172  0.00  0.00    +0.000 A 
ATOM     13  N   UNL     1       4.266   2.858  18.413  0.00  0.00    +0.000 NA
ATOM     14  C   UNL     1       3.272   1.946  18.338  0.00  0.00    +0.000 A 
ATOM     15  C   UNL     1       1.954   2.259  18.049  0.00  0.00    +0.000 A 
ATOM     16  C   UNL     1       1.627   3.596  17.837  0.00  0.00    +0.000 A 
ATOM     17  C   UNL     1       2.622   4.562  17.924  0.00  0.00    +0.000 A 
ATOM     18  O   UNL     1       2.237   5.866  17.772  0.00  0.00    +0.000 OA
ATOM     19  H   UNL     1       0.331  10.800  19.410  0.00  0.00    +0.000 HD
ENDROOT
BRANCH   3  20
ATOM     20  C   UNL     1       0.459  11.784  21.249  0.00  0.00    +0.000 C 
ATOM     21  C   UNL     1       0.688  13.217  20.871  0.00  0.00    +0.000 C 
ATOM     22  C   UNL     1      -0.722  12.713  21.059  0.00  0.00    +0.000 C 
BRANCH  22  23
ATOM     23  C   UNL     1      -1.525  13.140  22.265  0.00  0.00    +0.000 A 
ATOM     24  C   UNL     1      -1.132  14.227  23.062  0.00  0.00    +0.000 A 
ATOM     25  C   UNL     1      -1.881  14.626  24.175  0.00  0.00    +0.000 A 
ATOM     26  C   UNL     1      -3.048  13.940  24.511  0.00  0.00    +0.000 A 
ATOM     27  C   UNL     1      -3.459  12.863  23.734  0.00  0.00    +0.000 A 
ATOM     28  C   UNL     1      -2.708  12.472  22.625  0.00  0.00    +0.000 A 
ENDBRANCH  22  23
ENDBRANCH   3  20
BRANCH  11  29
ATOM     29  O   UNL     1       5.580   5.248  19.577  0.00  0.00    +0.000 OA
ATOM     30  H   UNL     1       6.309   4.599  19.609  0.00  0.00    +0.000 HD
ENDBRANCH  11  29
TORSDOF 3
ENDMDL
MODEL 4
REMARK VINA RESULT:      -7.7      6.567      7.559
REMARK  Name = 
REMARK  3 active torsions:
REMARK  status: ('A' for Active; 'I' for Inactive)
REMARK    1  A    between atoms: N_3  and  C_4
REMARK    2  A    between atoms: C_6  and  C_7
REMARK    3  A    between atoms: C_20  and  O_21
REMARK                            x       y       z     vdW  Elec       q    Type
REMARK                         _______ _______ _______ _____ _____    ______ ____
ROOT
ATOM      1  O   UNL     1       2.124   9.820  17.199  0.00  0.00    +0.000 OA
ATOM      2  C   UNL     1       1.676   9.979  18.335  0.00  0.00    +0.000 C 
ATOM      3  N   UNL     1       1.564   8.923  19.207  0.00  0.00    +0.000 N 
ATOM      4  N   UNL     1       1.291  11.219  18.809  0.00  0.00    +0.000 N 
ATOM      5  C   UNL     1       0.808  11.570  20.144  0.00  0.00    +0.000 C 
ATOM      6  C   UNL     1       1.737  12.584  20.820  0.00  0.00    +0.000 C 
ATOM      7  C   UNL     1       2.014  13.818  19.926  0.00  0.00    +0.000 C 
ATOM      8  C   UNL     1       2.503  13.318  18.546  0.00  0.00    +0.000 C 
ATOM      9  C   UNL     1       1.490  12.362  17.928  0.00  0.00    +0.000 C 
ATOM     10  C   UNL     1       3.020  14.738  20.644  0.00  0.00    +0.000 C 
ATOM     11  C   UNL     1       3.283  16.000  19.832  0.00  0.00    +0.000 C 
ATOM     12  C   UNL     1       2.022  16.519  19.177  0.00  0.00    +0.000 A 
ATOM     13  N   UNL     1       2.112  17.705  18.518  0.00  0.00    +0.000 NA
ATOM     14  C   UNL     1       0.984  18.167  17.935  0.00  0.00    +0.000 A 
ATOM     15  C   UNL     1      -0.230  17.500  17.964  0.00  0.00    +0.000 A 
ATOM     16  C   UNL     1      -0.292  16.272  18.618  0.00  0.00    +0.000 A 
ATOM     17  C   UNL     1       0.855  15.760  19.212  0.00  0.00    +0.000 A 
ATOM     18  O   UNL     1       0.757  14.522  19.784  0.00  0.00    +0.000 OA
ATOM     19  H   UNL     1       0.846   8.986  19.909  0.00  0.00    +0.000 HD
ENDROOT
BRANCH   3  20
ATOM     20  C   UNL     1       1.903   7.600  18.756  0.00  0.00    +0.000 C 
ATOM     21  C   UNL     1       3.338   7.171  18.681  0.00  0.00    +0.000 C 
ATOM     22  C   UNL     1       2.425   6.537  19.701  0.00  0.00    +0.000 C 
BRANCH  22  23
ATOM     23  C   UNL     1       1.968   5.107  19.525  0.00  0.00    +0.000 A 
ATOM     24  C   UNL     1       2.142   4.425  18.311  0.00  0.00    +0.000 A 
ATOM     25  C   UNL     1       1.725   3.098  18.152  0.00  0.00    +0.000 A 
ATOM     26  C   UNL     1       1.125   2.425  19.216  0.00  0.00    +0.000 A 
ATOM     27  C   UNL     1       0.946   3.079  20.429  0.00  0.00    +0.000 A 
ATOM     28  C   UNL     1       1.366   4.401  20.581  0.00  0.00    +0.000 A 
ENDBRANCH  22  23
ENDBRANCH   3  20
BRANCH  11  29
ATOM     29  O   UNL     1       4.293  15.725  18.856  0.00  0.00    +0.000 OA
ATOM     30  H   UNL     1       5.072  15.409  19.353  0.00  0.00    +0.000 HD
ENDBRANCH  11  29
TORSDOF 3
ENDMDL
MODEL 5
REMARK VINA RESULT:      -7.4      9.001     10.425
REMARK  Name = 
REMARK  3 active torsions:
REMARK  status: ('A' for Active; 'I' for Inactive)
REMARK    1  A    between atoms: N_3  and  C_4
REMARK    2  A    between atoms: C_6  and  C_7
REMARK    3  A    between atoms: C_20  and  O_21
REMARK                            x       y       z     vdW  Elec       q    Type
REMARK                         _______ _______ _______ _____ _____    ______ ____
ROOT
ATOM      1  O   UNL     1      -0.641   9.216  20.287  0.00  0.00    +0.000 OA
ATOM      2  C   UNL     1       0.284  10.025  20.202  0.00  0.00    +0.000 C 
ATOM      3  N   UNL     1       1.392   9.758  19.434  0.00  0.00    +0.000 N 
ATOM      4  N   UNL     1       0.253  11.250  20.841  0.00  0.00    +0.000 N 
ATOM      5  C   UNL     1       1.237  12.330  20.781  0.00  0.00    +0.000 C 
ATOM      6  C   UNL     1       0.620  13.610  20.207  0.00  0.00    +0.000 C 
ATOM      7  C   UNL     1      -0.686  14.013  20.934  0.00  0.00    +0.000 C 
ATOM      8  C   UNL     1      -1.634  12.790  20.944  0.00  0.00    +0.000 C 
ATOM      9  C   UNL     1      -0.955  11.586  21.584  0.00  0.00    +0.000 C 
ATOM     10  C   UNL     1      -1.281  15.254  20.240  0.00  0.00    +0.000 C 
ATOM     11  C   UNL     1      -2.539  15.729  20.955  0.00  0.00    +0.000 C 
ATOM     12  C   UNL     1      -2.408  15.616  22.458  0.00  0.00    +0.000 A 
ATOM     13  N   UNL     1      -3.427  16.117  23.206  0.00  0.00    +0.000 NA
ATOM     14  C   UNL     1      -3.306  16.017  24.548  0.00  0.00    +0.000 A 
ATOM     15  C   UNL     1      -2.226  15.429  25.185  0.00  0.00    +0.000 A 
ATOM     16  C   UNL     1      -1.208  14.895  24.399  0.00  0.00    +0.000 A 
ATOM     17  C   UNL     1      -1.310  14.966  23.015  0.00  0.00    +0.000 A 
ATOM     18  O   UNL     1      -0.317  14.369  22.288  0.00  0.00    +0.000 OA
ATOM     19  H   UNL     1       2.254  10.196  19.710  0.00  0.00    +0.000 HD
ENDROOT
BRANCH   3  20
ATOM     20  C   UNL     1       1.504   8.480  18.784  0.00  0.00    +0.000 C 
ATOM     21  C   UNL     1       2.702   8.165  17.936  0.00  0.00    +0.000 C 
ATOM     22  C   UNL     1       2.498   7.430  19.239  0.00  0.00    +0.000 C 
BRANCH  22  23
ATOM     23  C   UNL     1       2.088   5.976  19.232  0.00  0.00    +0.000 A 
ATOM     24  C   UNL     1       1.620   5.341  20.393  0.00  0.00    +0.000 A 
ATOM     25  C   UNL     1       1.234   3.995  20.383  0.00  0.00    +0.000 A 
ATOM     26  C   UNL     1       1.307   3.258  19.201  0.00  0.00    +0.000 A 
ATOM     27  C   UNL     1       1.763   3.868  18.039  0.00  0.00    +0.000 A 
ATOM     28  C   UNL     1       2.144   5.210  18.055  0.00  0.00    +0.000 A 
ENDBRANCH  22  23
ENDBRANCH   3  20
BRANCH  11  29
ATOM     29  O   UNL     1      -3.659  14.975  20.479  0.00  0.00    +0.000 OA
ATOM     30  H   UNL     1      -4.349  15.628  20.250  0.00  0.00    +0.000 HD
ENDBRANCH  11  29
TORSDOF 3
ENDMDL
MODEL 6
REMARK VINA RESULT:      -7.3      8.438      9.721
REMARK  Name = 
REMARK  3 active torsions:
REMARK  status: ('A' for Active; 'I' for Inactive)
REMARK    1  A    between atoms: N_3  and  C_4
REMARK    2  A    between atoms: C_6  and  C_7
REMARK    3  A    between atoms: C_20  and  O_21
REMARK                            x       y       z     vdW  Elec       q    Type
REMARK                         _______ _______ _______ _____ _____    ______ ____
ROOT
ATOM      1  O   UNL     1      -0.223   9.657  17.622  0.00  0.00    +0.000 OA
ATOM      2  C   UNL     1       0.390   9.868  18.669  0.00  0.00    +0.000 C 
ATOM      3  N   UNL     1       1.498   9.129  19.004  0.00  0.00    +0.000 N 
ATOM      4  N   UNL     1       0.023  10.871  19.547  0.00  0.00    +0.000 N 
ATOM      5  C   UNL     1       0.687  11.281  20.785  0.00  0.00    +0.000 C 
ATOM      6  C   UNL     1       1.155  12.738  20.706  0.00  0.00    +0.000 C 
ATOM      7  C   UNL     1       0.020  13.699  20.274  0.00  0.00    +0.000 C 
ATOM      8  C   UNL     1      -0.608  13.154  18.969  0.00  0.00    +0.000 C 
ATOM      9  C   UNL     1      -1.094  11.723  19.161  0.00  0.00    +0.000 C 
ATOM     10  C   UNL     1       0.597  15.121  20.137  0.00  0.00    +0.000 C 
ATOM     11  C   UNL     1      -0.493  16.120  19.771  0.00  0.00    +0.000 C 
ATOM     12  C   UNL     1      -1.789  15.829  20.495  0.00  0.00    +0.000 A 
ATOM     13  N   UNL     1      -2.801  16.722  20.332  0.00  0.00    +0.000 NA
ATOM     14  C   UNL     1      -3.956  16.460  20.982  0.00  0.00    +0.000 A 
ATOM     15  C   UNL     1      -4.161  15.344  21.777  0.00  0.00    +0.000 A 
ATOM     16  C   UNL     1      -3.121  14.426  21.903  0.00  0.00    +0.000 A 
ATOM     17  C   UNL     1      -1.926  14.657  21.234  0.00  0.00    +0.000 A 
ATOM     18  O   UNL     1      -0.960  13.694  21.339  0.00  0.00    +0.000 OA
ATOM     19  H   UNL     1       1.700   9.029  19.985  0.00  0.00    +0.000 HD
ENDROOT
BRANCH   3  20
ATOM     20  C   UNL     1       1.900   8.041  18.155  0.00  0.00    +0.000 C 
ATOM     21  C   UNL     1       3.247   8.054  17.493  0.00  0.00    +0.000 C 
ATOM     22  C   UNL     1       2.959   7.041  18.574  0.00  0.00    +0.000 C 
BRANCH  22  23
ATOM     23  C   UNL     1       2.778   5.584  18.218  0.00  0.00    +0.000 A 
ATOM     24  C   UNL     1       1.649   4.861  18.635  0.00  0.00    +0.000 A 
ATOM     25  C   UNL     1       1.480   3.513  18.298  0.00  0.00    +0.000 A 
ATOM     26  C   UNL     1       2.443   2.861  17.529  0.00  0.00    +0.000 A 
ATOM     27  C   UNL     1       3.567   3.558  17.101  0.00  0.00    +0.000 A 
ATOM     28  C   UNL     1       3.729   4.902  17.439  0.00  0.00    +0.000 A 
ENDBRANCH  22  23
ENDBRANCH   3  20
BRANCH  11  29
ATOM     29  O   UNL     1      -0.682  16.105  18.352  0.00  0.00    +0.000 OA
ATOM     30  H   UNL     1      -1.362  16.779  18.161  0.00  0.00    +0.000 HD
ENDBRANCH  11  29
TORSDOF 3
ENDMDL
MODEL 7
REMARK VINA RESULT:      -7.3      8.411      9.589
REMARK  Name = 
REMARK  3 active torsions:
REMARK  status: ('A' for Active; 'I' for Inactive)
REMARK    1  A    between atoms: N_3  and  C_4
REMARK    2  A    between atoms: C_6  and  C_7
REMARK    3  A    between atoms: C_20  and  O_21
REMARK                            x       y       z     vdW  Elec       q    Type
REMARK                         _______ _______ _______ _____ _____    ______ ____
ROOT
ATOM      1  O   UNL     1      -0.339   9.692  17.889  0.00  0.00    +0.000 OA
ATOM      2  C   UNL     1       0.330   9.973  18.884  0.00  0.00    +0.000 C 
ATOM      3  N   UNL     1       1.425   9.224  19.239  0.00  0.00    +0.000 N 
ATOM      4  N   UNL     1       0.041  11.066  19.680  0.00  0.00    +0.000 N 
ATOM      5  C   UNL     1       0.777  11.561  20.844  0.00  0.00    +0.000 C 
ATOM      6  C   UNL     1       1.293  12.984  20.609  0.00  0.00    +0.000 C 
ATOM      7  C   UNL     1       0.175  13.947  20.138  0.00  0.00    +0.000 C 
ATOM      8  C   UNL     1      -0.533  13.310  18.919  0.00  0.00    +0.000 C 
ATOM      9  C   UNL     1      -1.061  11.923  19.265  0.00  0.00    +0.000 C 
ATOM     10  C   UNL     1       0.797  15.326  19.844  0.00  0.00    +0.000 C 
ATOM     11  C   UNL     1      -0.273  16.331  19.433  0.00  0.00    +0.000 C 
ATOM     12  C   UNL     1      -1.543  16.160  20.237  0.00  0.00    +0.000 A 
ATOM     13  N   UNL     1      -2.528  17.074  20.036  0.00  0.00    +0.000 NA
ATOM     14  C   UNL     1      -3.660  16.920  20.757  0.00  0.00    +0.000 A 
ATOM     15  C   UNL     1      -3.868  15.891  21.661  0.00  0.00    +0.000 A 
ATOM     16  C   UNL     1      -2.858  14.947  21.827  0.00  0.00    +0.000 A 
ATOM     17  C   UNL     1      -1.687  15.067  21.088  0.00  0.00    +0.000 A 
ATOM     18  O   UNL     1      -0.753  14.079  21.241  0.00  0.00    +0.000 OA
ATOM     19  H   UNL     1       1.669   9.206  20.215  0.00  0.00    +0.000 HD
ENDROOT
BRANCH   3  20
ATOM     20  C   UNL     1       1.747   8.047  18.479  0.00  0.00    +0.000 C 
ATOM     21  C   UNL     1       3.112   7.883  17.877  0.00  0.00    +0.000 C 
ATOM     22  C   UNL     1       2.684   6.979  19.006  0.00  0.00    +0.000 C 
BRANCH  22  23
ATOM     23  C   UNL     1       2.370   5.526  18.735  0.00  0.00    +0.000 A 
ATOM     24  C   UNL     1       2.868   4.866  17.601  0.00  0.00    +0.000 A 
ATOM     25  C   UNL     1       2.583   3.518  17.356  0.00  0.00    +0.000 A 
ATOM     26  C   UNL     1       1.791   2.800  18.252  0.00  0.00    +0.000 A 
ATOM     27  C   UNL     1       1.290   3.431  19.384  0.00  0.00    +0.000 A 
ATOM     28  C   UNL     1       1.580   4.775  19.623  0.00  0.00    +0.000 A 
ENDBRANCH  22  23
ENDBRANCH   3  20
BRANCH  11  29
ATOM     29  O   UNL     1      -0.529  16.192  18.032  0.00  0.00    +0.000 OA
ATOM     30  H   UNL     1      -1.344  16.700  17.853  0.00  0.00    +0.000 HD
ENDBRANCH  11  29
TORSDOF 3
ENDMDL
MODEL 8
REMARK VINA RESULT:      -7.3      7.204     11.569
REMARK  Name = 
REMARK  3 active torsions:
REMARK  status: ('A' for Active; 'I' for Inactive)
REMARK    1  A    between atoms: N_3  and  C_4
REMARK    2  A    between atoms: C_6  and  C_7
REMARK    3  A    between atoms: C_20  and  O_21
REMARK                            x       y       z     vdW  Elec       q    Type
REMARK                         _______ _______ _______ _____ _____    ______ ____
ROOT
ATOM      1  O   UNL     1       1.128   9.969  21.276  0.00  0.00    +0.000 OA
ATOM      2  C   UNL     1       1.150   9.996  20.044  0.00  0.00    +0.000 C 
ATOM      3  N   UNL     1       1.030  11.180  19.358  0.00  0.00    +0.000 N 
ATOM      4  N   UNL     1       1.325   8.854  19.286  0.00  0.00    +0.000 N 
ATOM      5  C   UNL     1       1.437   8.739  17.832  0.00  0.00    +0.000 C 
ATOM      6  C   UNL     1       2.791   8.147  17.426  0.00  0.00    +0.000 C 
ATOM      7  C   UNL     1       3.105   6.826  18.170  0.00  0.00    +0.000 C 
ATOM      8  C   UNL     1       2.939   7.072  19.689  0.00  0.00    +0.000 C 
ATOM      9  C   UNL     1       1.546   7.604  20.001  0.00  0.00    +0.000 C 
ATOM     10  C   UNL     1       4.514   6.350  17.769  0.00  0.00    +0.000 C 
ATOM     11  C   UNL     1       4.850   5.018  18.429  0.00  0.00    +0.000 C 
ATOM     12  C   UNL     1       3.654   4.093  18.467  0.00  0.00    +0.000 A 
ATOM     13  N   UNL     1       3.863   2.833  18.932  0.00  0.00    +0.000 NA
ATOM     14  C   UNL     1       2.794   2.008  18.963  0.00  0.00    +0.000 A 
ATOM     15  C   UNL     1       1.519   2.379  18.566  0.00  0.00    +0.000 A 
ATOM     16  C   UNL     1       1.321   3.684  18.124  0.00  0.00    +0.000 A 
ATOM     17  C   UNL     1       2.396   4.563  18.096  0.00  0.00    +0.000 A 
ATOM     18  O   UNL     1       2.136   5.851  17.715  0.00  0.00    +0.000 OA
ATOM     19  H   UNL     1       0.637  11.133  18.433  0.00  0.00    +0.000 HD
ENDROOT
BRANCH   3  20
ATOM     20  C   UNL     1       0.797  12.396  20.090  0.00  0.00    +0.000 C 
ATOM     21  C   UNL     1       1.947  13.153  20.686  0.00  0.00    +0.000 C 
ATOM     22  C   UNL     1       1.177  13.754  19.536  0.00  0.00    +0.000 C 
BRANCH  22  23
ATOM     23  C   UNL     1       0.257  14.929  19.773  0.00  0.00    +0.000 A 
ATOM     24  C   UNL     1      -0.228  15.236  21.053  0.00  0.00    +0.000 A 
ATOM     25  C   UNL     1      -1.074  16.330  21.271  0.00  0.00    +0.000 A 
ATOM     26  C   UNL     1      -1.450  17.143  20.203  0.00  0.00    +0.000 A 
ATOM     27  C   UNL     1      -0.978  16.861  18.926  0.00  0.00    +0.000 A 
ATOM     28  C   UNL     1      -0.133  15.771  18.716  0.00  0.00    +0.000 A 
ENDBRANCH  22  23
ENDBRANCH   3  20
BRANCH  11  29
ATOM     29  O   UNL     1       5.352   5.264  19.746  0.00  0.00    +0.000 OA
ATOM     30  H   UNL     1       5.857   6.098  19.693  0.00  0.00    +0.000 HD
ENDBRANCH  11  29
TORSDOF 3
ENDMDL
MODEL 9
REMARK VINA RESULT:      -7.2      7.424      8.539
REMARK  Name = 
REMARK  3 active torsions:
REMARK  status: ('A' for Active; 'I' for Inactive)
REMARK    1  A    between atoms: N_3  and  C_4
REMARK    2  A    between atoms: C_6  and  C_7
REMARK    3  A    between atoms: C_20  and  O_21
REMARK                            x       y       z     vdW  Elec       q    Type
REMARK                         _______ _______ _______ _____ _____    ______ ____
ROOT
ATOM      1  O   UNL     1       0.475   9.943  17.606  0.00  0.00    +0.000 OA
ATOM      2  C   UNL     1       0.790  10.110  18.785  0.00  0.00    +0.000 C 
ATOM      3  N   UNL     1       1.411   9.115  19.501  0.00  0.00    +0.000 N 
ATOM      4  N   UNL     1       0.571  11.305  19.444  0.00  0.00    +0.000 N 
ATOM      5  C   UNL     1       0.949  11.671  20.809  0.00  0.00    +0.000 C 
ATOM      6  C   UNL     1       1.910  12.864  20.817  0.00  0.00    +0.000 C 
ATOM      7  C   UNL     1       1.375  14.059  19.990  0.00  0.00    +0.000 C 
ATOM      8  C   UNL     1       1.000  13.544  18.580  0.00  0.00    +0.000 C 
ATOM      9  C   UNL     1      -0.002  12.399  18.671  0.00  0.00    +0.000 C 
ATOM     10  C   UNL     1       2.438  15.174  19.981  0.00  0.00    +0.000 C 
ATOM     11  C   UNL     1       1.936  16.400  19.228  0.00  0.00    +0.000 C 
ATOM     12  C   UNL     1       0.472  16.667  19.500  0.00  0.00    +0.000 A 
ATOM     13  N   UNL     1      -0.057  17.802  18.971  0.00  0.00    +0.000 NA
ATOM     14  C   UNL     1      -1.365  18.038  19.218  0.00  0.00    +0.000 A 
ATOM     15  C   UNL     1      -2.178  17.192  19.955  0.00  0.00    +0.000 A 
ATOM     16  C   UNL     1      -1.623  16.020  20.461  0.00  0.00    +0.000 A 
ATOM     17  C   UNL     1      -0.285  15.739  20.210  0.00  0.00    +0.000 A 
ATOM     18  O   UNL     1       0.195  14.544  20.673  0.00  0.00    +0.000 OA
ATOM     19  H   UNL     1       1.270   9.114  20.497  0.00  0.00    +0.000 HD
ENDROOT
BRANCH   3  20
ATOM     20  C   UNL     1       1.622   7.833  18.885  0.00  0.00    +0.000 C 
ATOM     21  C   UNL     1       2.960   7.485  18.301  0.00  0.00    +0.000 C 
ATOM     22  C   UNL     1       2.474   6.760  19.532  0.00  0.00    +0.000 C 
BRANCH  22  23
ATOM     23  C   UNL     1       2.036   5.316  19.438  0.00  0.00    +0.000 A 
ATOM     24  C   UNL     1       1.424   4.663  20.518  0.00  0.00    +0.000 A 
ATOM     25  C   UNL     1       1.012   3.328  20.427  0.00  0.00    +0.000 A 
ATOM     26  C   UNL     1       1.206   2.620  19.241  0.00  0.00    +0.000 A 
ATOM     27  C   UNL     1       1.806   3.247  18.156  0.00  0.00    +0.000 A 
ATOM     28  C   UNL     1       2.212   4.579  18.254  0.00  0.00    +0.000 A 
ENDBRANCH  22  23
ENDBRANCH   3  20
BRANCH  11  29
ATOM     29  O   UNL     1       2.174  16.218  17.828  0.00  0.00    +0.000 OA
ATOM     30  H   UNL     1       1.305  16.310  17.391  0.00  0.00    +0.000 HD
ENDBRANCH  11  29
TORSDOF 3
ENDMDL
