MODEL 1
REMARK VINA RESULT:      -7.4      0.000      0.000
REMARK  Name = 
REMARK  8 active torsions:
REMARK  status: ('A' for Active; 'I' for Inactive)
REMARK    1  A    between atoms: C_1  and  O_2
REMARK    2  A    between atoms: O_2  and  C_3
REMARK    3  A    between atoms: C_6  and  O_7
REMARK    4  A    between atoms: O_7  and  C_8
REMARK    5  A    between atoms: C_8  and  C_9
REMARK    6  A    between atoms: C_9  and  N_10
REMARK    7  A    between atoms: C_14  and  C_16
REMARK    8  A    between atoms: C_24  and  C_25
REMARK                            x       y       z     vdW  Elec       q    Type
REMARK                         _______ _______ _______ _____ _____    ______ ____
ROOT
ATOM      1  N   UNL     1      -0.316   8.791  21.383  0.00  0.00    +0.000 NA
ATOM      2  C   UNL     1      -0.361   9.613  20.146  0.00  0.00    +0.000 C 
ATOM      3  C   UNL     1       0.995   9.827  19.439  0.00  0.00    +0.000 C 
ATOM      4  N   UNL     1       1.718   8.558  19.270  0.00  0.00    +0.000 N 
ATOM      5  C   UNL     1       2.353   8.302  18.066  0.00  0.00    +0.000 C 
ATOM      6  O   UNL     1       2.314   9.171  17.185  0.00  0.00    +0.000 OA
ATOM      7  C   UNL     1       1.847   7.818  20.510  0.00  0.00    +0.000 C 
ATOM      8  C   UNL     1       0.447   7.547  21.097  0.00  0.00    +0.000 C 
ENDROOT
BRANCH   5   9
ATOM      9  C   UNL     1       3.127   7.089  17.780  0.00  0.00    +0.000 A 
ATOM     10  N   UNL     1       4.402   7.332  17.282  0.00  0.00    +0.000 N 
ATOM     11  C   UNL     1       5.056   6.185  16.931  0.00  0.00    +0.000 A 
ATOM     12  C   UNL     1       6.350   6.009  16.444  0.00  0.00    +0.000 A 
ATOM     13  C   UNL     1       6.733   4.708  16.092  0.00  0.00    +0.000 A 
ATOM     14  C   UNL     1       5.835   3.652  16.205  0.00  0.00    +0.000 A 
ATOM     15  C   UNL     1       4.554   3.853  16.734  0.00  0.00    +0.000 A 
ATOM     16  C   UNL     1       4.159   5.146  17.142  0.00  0.00    +0.000 A 
ATOM     17  C   UNL     1       2.980   5.695  17.769  0.00  0.00    +0.000 A 
ATOM     18  C   UNL     1       1.872   4.809  18.234  0.00  0.00    +0.000 C 
ATOM     19  H   UNL     1       4.751   8.270  17.135  0.00  0.00    +0.000 HD
ENDBRANCH   5   9
BRANCH   1  20
ATOM     20  C   UNL     1       0.276   9.480  22.544  0.00  0.00    +0.000 C 
BRANCH  20  21
ATOM     21  C   UNL     1      -0.693  10.334  23.365  0.00  0.00    +0.000 C 
BRANCH  21  22
ATOM     22  O   UNL     1      -0.535  11.693  22.947  0.00  0.00    +0.000 OA
BRANCH  22  26
ATOM     23  C   UNL     1      -3.572  14.410  23.801  0.00  0.00    +0.000 A 
ATOM     24  C   UNL     1      -2.232  14.793  23.752  0.00  0.00    +0.000 A 
ATOM     25  C   UNL     1      -1.241  13.858  23.452  0.00  0.00    +0.000 A 
ATOM     26  C   UNL     1      -1.583  12.522  23.238  0.00  0.00    +0.000 A 
ATOM     27  C   UNL     1      -2.919  12.136  23.298  0.00  0.00    +0.000 A 
ATOM     28  C   UNL     1      -3.911  13.076  23.582  0.00  0.00    +0.000 A 
BRANCH  23  30
ATOM     29  C   UNL     1      -5.803  15.164  23.695  0.00  0.00    +0.000 C 
ATOM     30  O   UNL     1      -4.459  15.406  24.097  0.00  0.00    +0.000 OA
ENDBRANCH  23  30
ENDBRANCH  22  26
ENDBRANCH  21  22
ENDBRANCH  20  21
ENDBRANCH   1  20
TORSDOF 6
ENDMDL
MODEL 2
REMARK VINA RESULT:      -7.4      3.594     11.613
REMARK  Name = 
REMARK  8 active torsions:
REMARK  status: ('A' for Active; 'I' for Inactive)
REMARK    1  A    between atoms: C_1  and  O_2
REMARK    2  A    between atoms: O_2  and  C_3
REMARK    3  A    between atoms: C_6  and  O_7
REMARK    4  A    between atoms: O_7  and  C_8
REMARK    5  A    between atoms: C_8  and  C_9
REMARK    6  A    between atoms: C_9  and  N_10
REMARK    7  A    between atoms: C_14  and  C_16
REMARK    8  A    between atoms: C_24  and  C_25
REMARK                            x       y       z     vdW  Elec       q    Type
REMARK                         _______ _______ _______ _____ _____    ______ ____
ROOT
ATOM      1  N   UNL     1       4.966   5.613  16.955  0.00  0.00    +0.000 NA
ATOM      2  C   UNL     1       4.206   4.578  17.700  0.00  0.00    +0.000 C 
ATOM      3  C   UNL     1       3.879   4.921  19.170  0.00  0.00    +0.000 C 
ATOM      4  N   UNL     1       3.302   6.267  19.291  0.00  0.00    +0.000 N 
ATOM      5  C   UNL     1       2.219   6.462  20.133  0.00  0.00    +0.000 C 
ATOM      6  O   UNL     1       1.796   5.493  20.779  0.00  0.00    +0.000 OA
ATOM      7  C   UNL     1       4.113   7.283  18.650  0.00  0.00    +0.000 C 
ATOM      8  C   UNL     1       4.303   6.928  17.161  0.00  0.00    +0.000 C 
ENDROOT
BRANCH   5   9
ATOM      9  C   UNL     1       1.570   7.757  20.361  0.00  0.00    +0.000 A 
ATOM     10  N   UNL     1       1.166   7.967  21.675  0.00  0.00    +0.000 N 
ATOM     11  C   UNL     1       0.476   9.136  21.831  0.00  0.00    +0.000 A 
ATOM     12  C   UNL     1      -0.047   9.715  22.985  0.00  0.00    +0.000 A 
ATOM     13  C   UNL     1      -0.785  10.897  22.834  0.00  0.00    +0.000 A 
ATOM     14  C   UNL     1      -0.998  11.440  21.571  0.00  0.00    +0.000 A 
ATOM     15  C   UNL     1      -0.427  10.856  20.433  0.00  0.00    +0.000 A 
ATOM     16  C   UNL     1       0.360   9.691  20.564  0.00  0.00    +0.000 A 
ATOM     17  C   UNL     1       1.131   8.882  19.649  0.00  0.00    +0.000 A 
ATOM     18  C   UNL     1       1.305   9.285  18.223  0.00  0.00    +0.000 C 
ATOM     19  H   UNL     1       1.313   7.276  22.399  0.00  0.00    +0.000 HD
ENDBRANCH   5   9
BRANCH   1  20
ATOM     20  C   UNL     1       6.387   5.709  17.337  0.00  0.00    +0.000 C 
BRANCH  20  21
ATOM     21  C   UNL     1       7.357   4.904  16.469  0.00  0.00    +0.000 C 
BRANCH  21  22
ATOM     22  O   UNL     1       7.442   5.553  15.197  0.00  0.00    +0.000 OA
BRANCH  22  26
ATOM     23  C   UNL     1       6.064   3.183  12.063  0.00  0.00    +0.000 A 
ATOM     24  C   UNL     1       5.495   3.127  13.336  0.00  0.00    +0.000 A 
ATOM     25  C   UNL     1       5.976   3.945  14.360  0.00  0.00    +0.000 A 
ATOM     26  C   UNL     1       7.057   4.796  14.126  0.00  0.00    +0.000 A 
ATOM     27  C   UNL     1       7.632   4.844  12.859  0.00  0.00    +0.000 A 
ATOM     28  C   UNL     1       7.139   4.038  11.832  0.00  0.00    +0.000 A 
BRANCH  23  30
ATOM     29  C   UNL     1       6.122   1.063  11.034  0.00  0.00    +0.000 C 
ATOM     30  O   UNL     1       5.512   2.346  11.135  0.00  0.00    +0.000 OA
ENDBRANCH  23  30
ENDBRANCH  22  26
ENDBRANCH  21  22
ENDBRANCH  20  21
ENDBRANCH   1  20
TORSDOF 6
ENDMDL
MODEL 3
REMARK VINA RESULT:      -7.3      3.713      5.962
REMARK  Name = 
REMARK  8 active torsions:
REMARK  status: ('A' for Active; 'I' for Inactive)
REMARK    1  A    between atoms: C_1  and  O_2
REMARK    2  A    between atoms: O_2  and  C_3
REMARK    3  A    between atoms: C_6  and  O_7
REMARK    4  A    between atoms: O_7  and  C_8
REMARK    5  A    between atoms: C_8  and  C_9
REMARK    6  A    between atoms: C_9  and  N_10
REMARK    7  A    between atoms: C_14  and  C_16
REMARK    8  A    between atoms: C_24  and  C_25
REMARK                            x       y       z     vdW  Elec       q    Type
REMARK                         _______ _______ _______ _____ _____    ______ ____
ROOT
ATOM      1  N   UNL     1      -0.781  12.453  20.371  0.00  0.00    +0.000 NA
ATOM      2  C   UNL     1      -0.085  12.187  21.656  0.00  0.00    +0.000 C 
ATOM      3  C   UNL     1      -0.060  10.710  22.107  0.00  0.00    +0.000 C 
ATOM      4  N   UNL     1       0.370   9.824  21.017  0.00  0.00    +0.000 N 
ATOM      5  C   UNL     1       1.262   8.801  21.295  0.00  0.00    +0.000 C 
ATOM      6  O   UNL     1       1.640   8.652  22.465  0.00  0.00    +0.000 OA
ATOM      7  C   UNL     1      -0.393  10.022  19.800  0.00  0.00    +0.000 C 
ATOM      8  C   UNL     1      -0.279  11.493  19.353  0.00  0.00    +0.000 C 
ENDROOT
BRANCH   5   9
ATOM      9  C   UNL     1       1.748   7.835  20.304  0.00  0.00    +0.000 A 
ATOM     10  N   UNL     1       1.929   6.550  20.803  0.00  0.00    +0.000 N 
ATOM     11  C   UNL     1       2.479   5.702  19.884  0.00  0.00    +0.000 A 
ATOM     12  C   UNL     1       2.768   4.342  19.985  0.00  0.00    +0.000 A 
ATOM     13  C   UNL     1       3.408   3.739  18.894  0.00  0.00    +0.000 A 
ATOM     14  C   UNL     1       3.758   4.488  17.776  0.00  0.00    +0.000 A 
ATOM     15  C   UNL     1       3.421   5.845  17.688  0.00  0.00    +0.000 A 
ATOM     16  C   UNL     1       2.732   6.466  18.753  0.00  0.00    +0.000 A 
ATOM     17  C   UNL     1       2.184   7.785  18.973  0.00  0.00    +0.000 A 
ATOM     18  C   UNL     1       2.191   8.811  17.890  0.00  0.00    +0.000 C 
ATOM     19  H   UNL     1       1.739   6.318  21.769  0.00  0.00    +0.000 HD
ENDBRANCH   5   9
BRANCH   1  20
ATOM     20  C   UNL     1      -2.251  12.365  20.453  0.00  0.00    +0.000 C 
BRANCH  20  21
ATOM     21  C   UNL     1      -2.994  12.536  19.126  0.00  0.00    +0.000 C 
BRANCH  21  22
ATOM     22  O   UNL     1      -3.526  11.259  18.759  0.00  0.00    +0.000 OA
BRANCH  22  26
ATOM     23  C   UNL     1      -3.206  10.180  14.751  0.00  0.00    +0.000 A 
ATOM     24  C   UNL     1      -2.316   9.707  15.715  0.00  0.00    +0.000 A 
ATOM     25  C   UNL     1      -2.460  10.082  17.052  0.00  0.00    +0.000 A 
ATOM     26  C   UNL     1      -3.474  10.964  17.425  0.00  0.00    +0.000 A 
ATOM     27  C   UNL     1      -4.357  11.445  16.461  0.00  0.00    +0.000 A 
ATOM     28  C   UNL     1      -4.221  11.056  15.127  0.00  0.00    +0.000 A 
BRANCH  23  30
ATOM     29  C   UNL     1      -4.093   9.826  12.596  0.00  0.00    +0.000 C 
ATOM     30  O   UNL     1      -2.976   9.745  13.475  0.00  0.00    +0.000 OA
ENDBRANCH  23  30
ENDBRANCH  22  26
ENDBRANCH  21  22
ENDBRANCH  20  21
ENDBRANCH   1  20
TORSDOF 6
ENDMDL
MODEL 4
REMARK VINA RESULT:      -7.3      1.949      2.651
REMARK  Name = 
REMARK  8 active torsions:
REMARK  status: ('A' for Active; 'I' for Inactive)
REMARK    1  A    between atoms: C_1  and  O_2
REMARK    2  A    between atoms: O_2  and  C_3
REMARK    3  A    between atoms: C_6  and  O_7
REMARK    4  A    between atoms: O_7  and  C_8
REMARK    5  A    between atoms: C_8  and  C_9
REMARK    6  A    between atoms: C_9  and  N_10
REMARK    7  A    between atoms: C_14  and  C_16
REMARK    8  A    between atoms: C_24  and  C_25
REMARK                            x       y       z     vdW  Elec       q    Type
REMARK                         _______ _______ _______ _____ _____    ______ ____
ROOT
ATOM      1  N   UNL     1       1.290   9.908  19.501  0.00  0.00    +0.000 NA
ATOM      2  C   UNL     1       1.483   9.091  20.726  0.00  0.00    +0.000 C 
ATOM      3  C   UNL     1       1.350   7.564  20.536  0.00  0.00    +0.000 C 
ATOM      4  N   UNL     1       2.144   7.095  19.391  0.00  0.00    +0.000 N 
ATOM      5  C   UNL     1       2.881   5.929  19.518  0.00  0.00    +0.000 C 
ATOM      6  O   UNL     1       2.817   5.306  20.586  0.00  0.00    +0.000 OA
ATOM      7  C   UNL     1       1.864   7.834  18.176  0.00  0.00    +0.000 C 
ATOM      8  C   UNL     1       2.125   9.335  18.413  0.00  0.00    +0.000 C 
ENDROOT
BRANCH   5   9
ATOM      9  C   UNL     1       3.691   5.342  18.445  0.00  0.00    +0.000 A 
ATOM     10  N   UNL     1       4.910   5.978  18.240  0.00  0.00    +0.000 N 
ATOM     11  C   UNL     1       5.592   5.472  17.170  0.00  0.00    +0.000 A 
ATOM     12  C   UNL     1       6.852   5.806  16.676  0.00  0.00    +0.000 A 
ATOM     13  C   UNL     1       7.272   5.167  15.501  0.00  0.00    +0.000 A 
ATOM     14  C   UNL     1       6.440   4.260  14.854  0.00  0.00    +0.000 A 
ATOM     15  C   UNL     1       5.195   3.915  15.395  0.00  0.00    +0.000 A 
ATOM     16  C   UNL     1       4.768   4.508  16.603  0.00  0.00    +0.000 A 
ATOM     17  C   UNL     1       3.614   4.350  17.458  0.00  0.00    +0.000 A 
ATOM     18  C   UNL     1       2.592   3.298  17.183  0.00  0.00    +0.000 C 
ATOM     19  H   UNL     1       5.199   6.776  18.790  0.00  0.00    +0.000 HD
ENDBRANCH   5   9
BRANCH   1  20
ATOM     20  C   UNL     1      -0.111  10.001  19.053  0.00  0.00    +0.000 C 
BRANCH  20  21
ATOM     21  C   UNL     1      -0.602  11.412  18.720  0.00  0.00    +0.000 C 
BRANCH  21  22
ATOM     22  O   UNL     1      -0.316  12.248  19.845  0.00  0.00    +0.000 OA
BRANCH  22  26
ATOM     23  C   UNL     1      -3.392  12.326  22.650  0.00  0.00    +0.000 A 
ATOM     24  C   UNL     1      -3.581  12.754  21.336  0.00  0.00    +0.000 A 
ATOM     25  C   UNL     1      -2.529  12.704  20.419  0.00  0.00    +0.000 A 
ATOM     26  C   UNL     1      -1.270  12.260  20.824  0.00  0.00    +0.000 A 
ATOM     27  C   UNL     1      -1.078  11.842  22.138  0.00  0.00    +0.000 A 
ATOM     28  C   UNL     1      -2.135  11.878  23.049  0.00  0.00    +0.000 A 
BRANCH  23  30
ATOM     29  C   UNL     1      -4.227  12.832  24.795  0.00  0.00    +0.000 C 
ATOM     30  O   UNL     1      -4.489  12.412  23.460  0.00  0.00    +0.000 OA
ENDBRANCH  23  30
ENDBRANCH  22  26
ENDBRANCH  21  22
ENDBRANCH  20  21
ENDBRANCH   1  20
TORSDOF 6
ENDMDL
MODEL 5
REMARK VINA RESULT:      -7.3      1.856      2.727
REMARK  Name = 
REMARK  8 active torsions:
REMARK  status: ('A' for Active; 'I' for Inactive)
REMARK    1  A    between atoms: C_1  and  O_2
REMARK    2  A    between atoms: O_2  and  C_3
REMARK    3  A    between atoms: C_6  and  O_7
REMARK    4  A    between atoms: O_7  and  C_8
REMARK    5  A    between atoms: C_8  and  C_9
REMARK    6  A    between atoms: C_9  and  N_10
REMARK    7  A    between atoms: C_14  and  C_16
REMARK    8  A    between atoms: C_24  and  C_25
REMARK                            x       y       z     vdW  Elec       q    Type
REMARK                         _______ _______ _______ _____ _____    ______ ____
ROOT
ATOM      1  N   UNL     1      -0.682   9.933  21.137  0.00  0.00    +0.000 NA
ATOM      2  C   UNL     1      -0.522  10.366  19.725  0.00  0.00    +0.000 C 
ATOM      3  C   UNL     1       0.899  10.217  19.140  0.00  0.00    +0.000 C 
ATOM      4  N   UNL     1       1.452   8.882  19.406  0.00  0.00    +0.000 N 
ATOM      5  C   UNL     1       2.134   8.223  18.397  0.00  0.00    +0.000 C 
ATOM      6  O   UNL     1       2.280   8.802  17.311  0.00  0.00    +0.000 OA
ATOM      7  C   UNL     1       1.386   8.519  20.808  0.00  0.00    +0.000 C 
ATOM      8  C   UNL     1      -0.077   8.584  21.290  0.00  0.00    +0.000 C 
ENDROOT
BRANCH   5   9
ATOM      9  C   UNL     1       2.754   6.902  18.542  0.00  0.00    +0.000 A 
ATOM     10  N   UNL     1       2.039   6.023  19.349  0.00  0.00    +0.000 N 
ATOM     11  C   UNL     1       2.694   4.841  19.546  0.00  0.00    +0.000 A 
ATOM     12  C   UNL     1       2.292   3.704  20.246  0.00  0.00    +0.000 A 
ATOM     13  C   UNL     1       3.213   2.653  20.347  0.00  0.00    +0.000 A 
ATOM     14  C   UNL     1       4.482   2.768  19.789  0.00  0.00    +0.000 A 
ATOM     15  C   UNL     1       4.844   3.907  19.059  0.00  0.00    +0.000 A 
ATOM     16  C   UNL     1       3.917   4.961  18.900  0.00  0.00    +0.000 A 
ATOM     17  C   UNL     1       3.922   6.215  18.183  0.00  0.00    +0.000 A 
ATOM     18  C   UNL     1       5.058   6.585  17.289  0.00  0.00    +0.000 C 
ATOM     19  H   UNL     1       1.169   6.288  19.791  0.00  0.00    +0.000 HD
ENDBRANCH   5   9
BRANCH   1  20
ATOM     20  C   UNL     1      -0.089  10.857  22.121  0.00  0.00    +0.000 C 
BRANCH  20  21
ATOM     21  C   UNL     1      -0.793  12.209  22.260  0.00  0.00    +0.000 C 
BRANCH  21  22
ATOM     22  O   UNL     1      -1.600  12.159  23.440  0.00  0.00    +0.000 OA
BRANCH  22  26
ATOM     23  C   UNL     1      -5.600  12.992  22.638  0.00  0.00    +0.000 A 
ATOM     24  C   UNL     1      -4.643  12.924  21.625  0.00  0.00    +0.000 A 
ATOM     25  C   UNL     1      -3.313  12.631  21.930  0.00  0.00    +0.000 A 
ATOM     26  C   UNL     1      -2.925  12.444  23.257  0.00  0.00    +0.000 A 
ATOM     27  C   UNL     1      -3.877  12.522  24.270  0.00  0.00    +0.000 A 
ATOM     28  C   UNL     1      -5.210  12.799  23.961  0.00  0.00    +0.000 A 
BRANCH  23  30
ATOM     29  C   UNL     1      -7.305  12.587  21.061  0.00  0.00    +0.000 C 
ATOM     30  O   UNL     1      -6.871  13.279  22.228  0.00  0.00    +0.000 OA
ENDBRANCH  23  30
ENDBRANCH  22  26
ENDBRANCH  21  22
ENDBRANCH  20  21
ENDBRANCH   1  20
TORSDOF 6
ENDMDL
MODEL 6
REMARK VINA RESULT:      -7.3      1.931      2.932
REMARK  Name = 
REMARK  8 active torsions:
REMARK  status: ('A' for Active; 'I' for Inactive)
REMARK    1  A    between atoms: C_1  and  O_2
REMARK    2  A    between atoms: O_2  and  C_3
REMARK    3  A    between atoms: C_6  and  O_7
REMARK    4  A    between atoms: O_7  and  C_8
REMARK    5  A    between atoms: C_8  and  C_9
REMARK    6  A    between atoms: C_9  and  N_10
REMARK    7  A    between atoms: C_14  and  C_16
REMARK    8  A    between atoms: C_24  and  C_25
REMARK                            x       y       z     vdW  Elec       q    Type
REMARK                         _______ _______ _______ _____ _____    ______ ____
ROOT
ATOM      1  N   UNL     1      -0.698  10.490  20.694  0.00  0.00    +0.000 NA
ATOM      2  C   UNL     1      -0.317  10.803  19.293  0.00  0.00    +0.000 C 
ATOM      3  C   UNL     1       1.128  10.429  18.896  0.00  0.00    +0.000 C 
ATOM      4  N   UNL     1       1.454   9.052  19.295  0.00  0.00    +0.000 N 
ATOM      5  C   UNL     1       2.149   8.244  18.411  0.00  0.00    +0.000 C 
ATOM      6  O   UNL     1       2.499   8.725  17.324  0.00  0.00    +0.000 OA
ATOM      7  C   UNL     1       1.177   8.795  20.694  0.00  0.00    +0.000 C 
ATOM      8  C   UNL     1      -0.309   9.085  20.988  0.00  0.00    +0.000 C 
ENDROOT
BRANCH   5   9
ATOM      9  C   UNL     1       2.557   6.865  18.697  0.00  0.00    +0.000 A 
ATOM     10  N   UNL     1       1.846   6.263  19.728  0.00  0.00    +0.000 N 
ATOM     11  C   UNL     1       2.319   5.019  20.037  0.00  0.00    +0.000 A 
ATOM     12  C   UNL     1       1.852   4.092  20.967  0.00  0.00    +0.000 A 
ATOM     13  C   UNL     1       2.591   2.912  21.125  0.00  0.00    +0.000 A 
ATOM     14  C   UNL     1       3.755   2.703  20.393  0.00  0.00    +0.000 A 
ATOM     15  C   UNL     1       4.179   3.636  19.437  0.00  0.00    +0.000 A 
ATOM     16  C   UNL     1       3.426   4.812  19.225  0.00  0.00    +0.000 A 
ATOM     17  C   UNL     1       3.523   5.925  18.310  0.00  0.00    +0.000 A 
ATOM     18  C   UNL     1       4.546   5.941  17.223  0.00  0.00    +0.000 C 
ATOM     19  H   UNL     1       1.114   6.748  20.230  0.00  0.00    +0.000 HD
ENDBRANCH   5   9
BRANCH   1  20
ATOM     20  C   UNL     1      -0.099  11.390  21.697  0.00  0.00    +0.000 C 
BRANCH  20  21
ATOM     21  C   UNL     1      -1.032  11.824  22.830  0.00  0.00    +0.000 C 
BRANCH  21  22
ATOM     22  O   UNL     1      -1.831  12.907  22.344  0.00  0.00    +0.000 OA
BRANCH  22  26
ATOM     23  C   UNL     1      -5.808  12.736  23.564  0.00  0.00    +0.000 A 
ATOM     24  C   UNL     1      -4.753  12.581  24.464  0.00  0.00    +0.000 A 
ATOM     25  C   UNL     1      -3.432  12.655  24.020  0.00  0.00    +0.000 A 
ATOM     26  C   UNL     1      -3.158  12.846  22.665  0.00  0.00    +0.000 A 
ATOM     27  C   UNL     1      -4.211  12.990  21.765  0.00  0.00    +0.000 A 
ATOM     28  C   UNL     1      -5.532  12.931  22.213  0.00  0.00    +0.000 A 
BRANCH  23  30
ATOM     29  C   UNL     1      -7.731  13.895  24.283  0.00  0.00    +0.000 C 
ATOM     30  O   UNL     1      -7.060  12.652  24.105  0.00  0.00    +0.000 OA
ENDBRANCH  23  30
ENDBRANCH  22  26
ENDBRANCH  21  22
ENDBRANCH  20  21
ENDBRANCH   1  20
TORSDOF 6
ENDMDL
MODEL 7
REMARK VINA RESULT:      -7.2      3.248      3.939
REMARK  Name = 
REMARK  8 active torsions:
REMARK  status: ('A' for Active; 'I' for Inactive)
REMARK    1  A    between atoms: C_1  and  O_2
REMARK    2  A    between atoms: O_2  and  C_3
REMARK    3  A    between atoms: C_6  and  O_7
REMARK    4  A    between atoms: O_7  and  C_8
REMARK    5  A    between atoms: C_8  and  C_9
REMARK    6  A    between atoms: C_9  and  N_10
REMARK    7  A    between atoms: C_14  and  C_16
REMARK    8  A    between atoms: C_24  and  C_25
REMARK                            x       y       z     vdW  Elec       q    Type
REMARK                         _______ _______ _______ _____ _____    ______ ____
ROOT
ATOM      1  N   UNL     1       1.233   9.828  19.613  0.00  0.00    +0.000 NA
ATOM      2  C   UNL     1       1.446   9.002  20.829  0.00  0.00    +0.000 C 
ATOM      3  C   UNL     1       1.327   7.476  20.626  0.00  0.00    +0.000 C 
ATOM      4  N   UNL     1       2.115   7.025  19.470  0.00  0.00    +0.000 N 
ATOM      5  C   UNL     1       2.866   5.866  19.580  0.00  0.00    +0.000 C 
ATOM      6  O   UNL     1       2.818   5.233  20.643  0.00  0.00    +0.000 OA
ATOM      7  C   UNL     1       1.816   7.772  18.265  0.00  0.00    +0.000 C 
ATOM      8  C   UNL     1       2.065   9.273  18.512  0.00  0.00    +0.000 C 
ENDROOT
BRANCH   5   9
ATOM      9  C   UNL     1       3.672   5.297  18.495  0.00  0.00    +0.000 A 
ATOM     10  N   UNL     1       4.891   5.936  18.296  0.00  0.00    +0.000 N 
ATOM     11  C   UNL     1       5.569   5.448  17.215  0.00  0.00    +0.000 A 
ATOM     12  C   UNL     1       6.827   5.791  16.722  0.00  0.00    +0.000 A 
ATOM     13  C   UNL     1       7.243   5.172  15.536  0.00  0.00    +0.000 A 
ATOM     14  C   UNL     1       6.409   4.275  14.877  0.00  0.00    +0.000 A 
ATOM     15  C   UNL     1       5.166   3.921  15.417  0.00  0.00    +0.000 A 
ATOM     16  C   UNL     1       4.743   4.494  16.636  0.00  0.00    +0.000 A 
ATOM     17  C   UNL     1       3.592   4.322  17.491  0.00  0.00    +0.000 A 
ATOM     18  C   UNL     1       2.569   3.274  17.203  0.00  0.00    +0.000 C 
ATOM     19  H   UNL     1       5.181   6.725  18.858  0.00  0.00    +0.000 HD
ENDBRANCH   5   9
BRANCH   1  20
ATOM     20  C   UNL     1      -0.173   9.911  19.179  0.00  0.00    +0.000 C 
BRANCH  20  21
ATOM     21  C   UNL     1      -0.592  11.245  18.557  0.00  0.00    +0.000 C 
BRANCH  21  22
ATOM     22  O   UNL     1      -1.630  11.796  19.372  0.00  0.00    +0.000 OA
BRANCH  22  26
ATOM     23  C   UNL     1      -5.518  11.877  17.885  0.00  0.00    +0.000 A 
ATOM     24  C   UNL     1      -5.208  12.339  19.164  0.00  0.00    +0.000 A 
ATOM     25  C   UNL     1      -3.891  12.306  19.626  0.00  0.00    +0.000 A 
ATOM     26  C   UNL     1      -2.882  11.774  18.823  0.00  0.00    +0.000 A 
ATOM     27  C   UNL     1      -3.192  11.303  17.550  0.00  0.00    +0.000 A 
ATOM     28  C   UNL     1      -4.507  11.351  17.084  0.00  0.00    +0.000 A 
BRANCH  23  30
ATOM     29  C   UNL     1      -7.567  13.011  18.156  0.00  0.00    +0.000 C 
ATOM     30  O   UNL     1      -6.836  11.960  17.532  0.00  0.00    +0.000 OA
ENDBRANCH  23  30
ENDBRANCH  22  26
ENDBRANCH  21  22
ENDBRANCH  20  21
ENDBRANCH   1  20
TORSDOF 6
ENDMDL
MODEL 8
REMARK VINA RESULT:      -7.2      3.188     10.534
REMARK  Name = 
REMARK  8 active torsions:
REMARK  status: ('A' for Active; 'I' for Inactive)
REMARK    1  A    between atoms: C_1  and  O_2
REMARK    2  A    between atoms: O_2  and  C_3
REMARK    3  A    between atoms: C_6  and  O_7
REMARK    4  A    between atoms: O_7  and  C_8
REMARK    5  A    between atoms: C_8  and  C_9
REMARK    6  A    between atoms: C_9  and  N_10
REMARK    7  A    between atoms: C_14  and  C_16
REMARK    8  A    between atoms: C_24  and  C_25
REMARK                            x       y       z     vdW  Elec       q    Type
REMARK                         _______ _______ _______ _____ _____    ______ ____
ROOT
ATOM      1  N   UNL     1       1.331  10.340  19.495  0.00  0.00    +0.000 NA
ATOM      2  C   UNL     1       1.558  11.784  19.758  0.00  0.00    +0.000 C 
ATOM      3  C   UNL     1       0.455  12.736  19.245  0.00  0.00    +0.000 C 
ATOM      4  N   UNL     1      -0.881  12.274  19.646  0.00  0.00    +0.000 N 
ATOM      5  C   UNL     1      -1.801  13.200  20.110  0.00  0.00    +0.000 C 
ATOM      6  O   UNL     1      -1.471  14.393  20.139  0.00  0.00    +0.000 OA
ATOM      7  C   UNL     1      -1.126  10.891  19.286  0.00  0.00    +0.000 C 
ATOM      8  C   UNL     1      -0.049   9.992  19.925  0.00  0.00    +0.000 C 
ENDROOT
BRANCH   5   9
ATOM      9  C   UNL     1      -3.172  12.872  20.516  0.00  0.00    +0.000 A 
ATOM     10  N   UNL     1      -4.064  12.746  19.457  0.00  0.00    +0.000 N 
ATOM     11  C   UNL     1      -5.349  12.543  19.875  0.00  0.00    +0.000 A 
ATOM     12  C   UNL     1      -6.506  12.326  19.128  0.00  0.00    +0.000 A 
ATOM     13  C   UNL     1      -7.714  12.224  19.831  0.00  0.00    +0.000 A 
ATOM     14  C   UNL     1      -7.741  12.363  21.214  0.00  0.00    +0.000 A 
ATOM     15  C   UNL     1      -6.557  12.543  21.941  0.00  0.00    +0.000 A 
ATOM     16  C   UNL     1      -5.321  12.601  21.262  0.00  0.00    +0.000 A 
ATOM     17  C   UNL     1      -3.941  12.708  21.676  0.00  0.00    +0.000 A 
ATOM     18  C   UNL     1      -3.567  12.672  23.120  0.00  0.00    +0.000 C 
ATOM     19  H   UNL     1      -3.777  12.873  18.496  0.00  0.00    +0.000 HD
ENDBRANCH   5   9
BRANCH   1  20
ATOM     20  C   UNL     1       1.527   9.945  18.088  0.00  0.00    +0.000 C 
BRANCH  20  21
ATOM     21  C   UNL     1       1.731   8.448  17.848  0.00  0.00    +0.000 C 
BRANCH  21  22
ATOM     22  O   UNL     1       2.478   7.929  18.953  0.00  0.00    +0.000 OA
BRANCH  22  26
ATOM     23  C   UNL     1       2.224   3.795  19.381  0.00  0.00    +0.000 A 
ATOM     24  C   UNL     1       2.612   4.390  18.181  0.00  0.00    +0.000 A 
ATOM     25  C   UNL     1       2.697   5.779  18.077  0.00  0.00    +0.000 A 
ATOM     26  C   UNL     1       2.355   6.584  19.164  0.00  0.00    +0.000 A 
ATOM     27  C   UNL     1       1.957   5.992  20.360  0.00  0.00    +0.000 A 
ATOM     28  C   UNL     1       1.888   4.601  20.467  0.00  0.00    +0.000 A 
BRANCH  23  30
ATOM     29  C   UNL     1       3.112   1.796  18.503  0.00  0.00    +0.000 C 
ATOM     30  O   UNL     1       2.181   2.430  19.375  0.00  0.00    +0.000 OA
ENDBRANCH  23  30
ENDBRANCH  22  26
ENDBRANCH  21  22
ENDBRANCH  20  21
ENDBRANCH   1  20
TORSDOF 6
ENDMDL
MODEL 9
REMARK VINA RESULT:      -7.2      1.964      2.512
REMARK  Name = 
REMARK  8 active torsions:
REMARK  status: ('A' for Active; 'I' for Inactive)
REMARK    1  A    between atoms: C_1  and  O_2
REMARK    2  A    between atoms: O_2  and  C_3
REMARK    3  A    between atoms: C_6  and  O_7
REMARK    4  A    between atoms: O_7  and  C_8
REMARK    5  A    between atoms: C_8  and  C_9
REMARK    6  A    between atoms: C_9  and  N_10
REMARK    7  A    between atoms: C_14  and  C_16
REMARK    8  A    between atoms: C_24  and  C_25
REMARK                            x       y       z     vdW  Elec       q    Type
REMARK                         _______ _______ _______ _____ _____    ______ ____
ROOT
ATOM      1  N   UNL     1       1.083   9.896  20.018  0.00  0.00    +0.000 NA
ATOM      2  C   UNL     1       1.142   9.058  21.243  0.00  0.00    +0.000 C 
ATOM      3  C   UNL     1       0.972   7.539  21.020  0.00  0.00    +0.000 C 
ATOM      4  N   UNL     1       1.843   7.054  19.940  0.00  0.00    +0.000 N 
ATOM      5  C   UNL     1       2.525   5.861  20.112  0.00  0.00    +0.000 C 
ATOM      6  O   UNL     1       2.348   5.229  21.162  0.00  0.00    +0.000 OA
ATOM      7  C   UNL     1       1.694   7.817  18.717  0.00  0.00    +0.000 C 
ATOM      8  C   UNL     1       1.988   9.305  18.997  0.00  0.00    +0.000 C 
ENDROOT
BRANCH   5   9
ATOM      9  C   UNL     1       3.403   5.258  19.104  0.00  0.00    +0.000 A 
ATOM     10  N   UNL     1       4.754   5.527  19.290  0.00  0.00    +0.000 N 
ATOM     11  C   UNL     1       5.532   5.038  18.280  0.00  0.00    +0.000 A 
ATOM     12  C   UNL     1       6.917   5.063  18.127  0.00  0.00    +0.000 A 
ATOM     13  C   UNL     1       7.442   4.545  16.935  0.00  0.00    +0.000 A 
ATOM     14  C   UNL     1       6.597   4.054  15.945  0.00  0.00    +0.000 A 
ATOM     15  C   UNL     1       5.211   4.007  16.143  0.00  0.00    +0.000 A 
ATOM     16  C   UNL     1       4.660   4.478  17.355  0.00  0.00    +0.000 A 
ATOM     17  C   UNL     1       3.328   4.523  17.912  0.00  0.00    +0.000 A 
ATOM     18  C   UNL     1       2.177   3.888  17.206  0.00  0.00    +0.000 C 
ATOM     19  H   UNL     1       5.087   6.094  20.059  0.00  0.00    +0.000 HD
ENDBRANCH   5   9
BRANCH   1  20
ATOM     20  C   UNL     1      -0.271  10.045  19.454  0.00  0.00    +0.000 C 
BRANCH  20  21
ATOM     21  C   UNL     1      -0.703  11.482  19.154  0.00  0.00    +0.000 C 
BRANCH  21  22
ATOM     22  O   UNL     1      -0.528  12.247  20.351  0.00  0.00    +0.000 OA
BRANCH  22  26
ATOM     23  C   UNL     1      -3.725  12.444  23.011  0.00  0.00    +0.000 A 
ATOM     24  C   UNL     1      -2.484  11.927  23.385  0.00  0.00    +0.000 A 
ATOM     25  C   UNL     1      -1.431  11.887  22.470  0.00  0.00    +0.000 A 
ATOM     26  C   UNL     1      -1.626  12.328  21.160  0.00  0.00    +0.000 A 
ATOM     27  C   UNL     1      -2.867  12.834  20.783  0.00  0.00    +0.000 A 
ATOM     28  C   UNL     1      -3.914  12.889  21.704  0.00  0.00    +0.000 A 
BRANCH  23  30
ATOM     29  C   UNL     1      -5.903  13.088  23.642  0.00  0.00    +0.000 C 
ATOM     30  O   UNL     1      -4.682  12.442  23.986  0.00  0.00    +0.000 OA
ENDBRANCH  23  30
ENDBRANCH  22  26
ENDBRANCH  21  22
ENDBRANCH  20  21
ENDBRANCH   1  20
TORSDOF 6
ENDMDL
