MODEL 1
REMARK VINA RESULT:      -7.4      0.000      0.000
REMARK  Name = 
REMARK  2 active torsions:
REMARK  status: ('A' for Active; 'I' for Inactive)
REMARK    1  A    between atoms: N_3  and  C_4
REMARK    2  A    between atoms: C_4  and  C_5
REMARK                            x       y       z     vdW  Elec       q    Type
REMARK                         _______ _______ _______ _____ _____    ______ ____
ROOT
ATOM      1  O   UNL     1       4.683   2.649  20.590  0.00  0.00    +0.000 OA
ATOM      2  C   UNL     1       4.382   3.027  19.473  0.00  0.00    +0.000 C 
ATOM      3  N   UNL     1       2.809   2.582  18.612  0.00  0.00    +0.000 N 
ATOM      4  C   UNL     1       2.411   3.636  17.036  0.00  0.00    +0.000 C 
ATOM      5  C   UNL     1       4.049   4.875  16.864  0.00  0.00    +0.000 C 
ATOM      6  C   UNL     1       5.362   4.343  18.282  0.00  0.00    +0.000 C 
ATOM      7  C   UNL     1       6.087   5.580  19.035  0.00  0.00    +0.000 C 
ATOM      8  C   UNL     1       6.601   6.641  18.058  0.00  0.00    +0.000 C 
ATOM      9  C   UNL     1       7.655   6.069  17.120  0.00  0.00    +0.000 C 
ATOM     10  N   UNL     1       7.132   4.846  16.541  0.00  0.00    +0.000 N 
ATOM     11  C   UNL     1       7.137   4.683  15.176  0.00  0.00    +0.000 A 
ATOM     12  N   UNL     1       7.795   5.581  14.416  0.00  0.00    +0.000 NA
ATOM     13  C   UNL     1       7.731   5.462  13.072  0.00  0.00    +0.000 A 
ATOM     14  C   UNL     1       7.007   4.489  12.444  0.00  0.00    +0.000 A 
ATOM     15  F   UNL     1       6.937   4.397  11.113  0.00  0.00    +0.000 F 
ATOM     16  C   UNL     1       6.355   3.618  13.276  0.00  0.00    +0.000 A 
ATOM     17  N   UNL     1       6.415   3.676  14.634  0.00  0.00    +0.000 NA
ATOM     18  C   UNL     1       6.704   3.809  17.491  0.00  0.00    +0.000 C 
ENDROOT
BRANCH   3  19
ATOM     19  C   UNL     1       1.749   1.841  19.340  0.00  0.00    +0.000 C 
BRANCH  19  20
ATOM     20  C   UNL     1       0.914   2.753  20.178  0.00  0.00    +0.000 C 
ATOM     21  C   UNL     1       1.331   3.206  21.565  0.00  0.00    +0.000 C 
ATOM     22  C   UNL     1       1.401   4.166  20.416  0.00  0.00    +0.000 C 
ENDBRANCH  19  20
ENDBRANCH   3  19
TORSDOF 2
ENDMDL
MODEL 2
REMARK VINA RESULT:      -6.2      7.561      9.116
REMARK  Name = 
REMARK  2 active torsions:
REMARK  status: ('A' for Active; 'I' for Inactive)
REMARK    1  A    between atoms: N_3  and  C_4
REMARK    2  A    between atoms: C_4  and  C_5
REMARK                            x       y       z     vdW  Elec       q    Type
REMARK                         _______ _______ _______ _____ _____    ______ ____
ROOT
ATOM      1  O   UNL     1       1.097   7.308  21.401  0.00  0.00    +0.000 OA
ATOM      2  C   UNL     1       1.374   8.018  20.451  0.00  0.00    +0.000 C 
ATOM      3  N   UNL     1       2.532   7.537  19.095  0.00  0.00    +0.000 N 
ATOM      4  C   UNL     1       2.475   8.672  17.527  0.00  0.00    +0.000 C 
ATOM      5  C   UNL     1       1.114  10.132  18.044  0.00  0.00    +0.000 C 
ATOM      6  C   UNL     1       0.585   9.818  19.952  0.00  0.00    +0.000 C 
ATOM      7  C   UNL     1      -0.993  10.013  20.260  0.00  0.00    +0.000 C 
ATOM      8  C   UNL     1      -1.555  11.298  19.647  0.00  0.00    +0.000 C 
ATOM      9  C   UNL     1      -0.878  12.533  20.226  0.00  0.00    +0.000 C 
ATOM     10  N   UNL     1       0.559  12.343  20.144  0.00  0.00    +0.000 N 
ATOM     11  C   UNL     1       1.339  13.309  19.554  0.00  0.00    +0.000 A 
ATOM     12  N   UNL     1       0.779  14.491  19.231  0.00  0.00    +0.000 NA
ATOM     13  C   UNL     1       1.528  15.407  18.580  0.00  0.00    +0.000 A 
ATOM     14  C   UNL     1       2.823  15.180  18.208  0.00  0.00    +0.000 A 
ATOM     15  F   UNL     1       3.545  16.089  17.545  0.00  0.00    +0.000 F 
ATOM     16  C   UNL     1       3.326  13.955  18.558  0.00  0.00    +0.000 A 
ATOM     17  N   UNL     1       2.621  13.014  19.242  0.00  0.00    +0.000 NA
ATOM     18  C   UNL     1       1.093  11.138  20.794  0.00  0.00    +0.000 C 
ENDROOT
BRANCH   3  19
ATOM     19  C   UNL     1       3.070   6.155  19.035  0.00  0.00    +0.000 C 
BRANCH  19  20
ATOM     20  C   UNL     1       2.206   5.262  18.206  0.00  0.00    +0.000 C 
ATOM     21  C   UNL     1       2.653   3.889  17.739  0.00  0.00    +0.000 C 
ATOM     22  C   UNL     1       1.643   4.008  18.839  0.00  0.00    +0.000 C 
ENDBRANCH  19  20
ENDBRANCH   3  19
TORSDOF 2
ENDMDL
MODEL 3
REMARK VINA RESULT:      -6.0      9.184     11.097
REMARK  Name = 
REMARK  2 active torsions:
REMARK  status: ('A' for Active; 'I' for Inactive)
REMARK    1  A    between atoms: N_3  and  C_4
REMARK    2  A    between atoms: C_4  and  C_5
REMARK                            x       y       z     vdW  Elec       q    Type
REMARK                         _______ _______ _______ _____ _____    ______ ____
ROOT
ATOM      1  O   UNL     1      -2.603  14.487  20.736  0.00  0.00    +0.000 OA
ATOM      2  C   UNL     1      -1.474  14.098  20.500  0.00  0.00    +0.000 C 
ATOM      3  N   UNL     1      -0.151  15.141  19.741  0.00  0.00    +0.000 N 
ATOM      4  C   UNL     1       1.637  14.407  19.854  0.00  0.00    +0.000 C 
ATOM      5  C   UNL     1       1.347  12.580  20.763  0.00  0.00    +0.000 C 
ATOM      6  C   UNL     1      -0.629  12.319  20.979  0.00  0.00    +0.000 C 
ATOM      7  C   UNL     1      -1.077  11.676  22.397  0.00  0.00    +0.000 C 
ATOM      8  C   UNL     1      -0.228  10.463  22.785  0.00  0.00    +0.000 C 
ATOM      9  C   UNL     1      -0.372   9.336  21.771  0.00  0.00    +0.000 C 
ATOM     10  N   UNL     1      -0.156   9.888  20.446  0.00  0.00    +0.000 N 
ATOM     11  C   UNL     1       0.761   9.302  19.607  0.00  0.00    +0.000 A 
ATOM     12  N   UNL     1       1.306   8.121  19.961  0.00  0.00    +0.000 NA
ATOM     13  C   UNL     1       2.266   7.588  19.174  0.00  0.00    +0.000 A 
ATOM     14  C   UNL     1       2.730   8.205  18.047  0.00  0.00    +0.000 A 
ATOM     15  F   UNL     1       3.695   7.674  17.289  0.00  0.00    +0.000 F 
ATOM     16  C   UNL     1       2.141   9.406  17.752  0.00  0.00    +0.000 A 
ATOM     17  N   UNL     1       1.149   9.966  18.495  0.00  0.00    +0.000 NA
ATOM     18  C   UNL     1      -1.023  11.010  20.061  0.00  0.00    +0.000 C 
ENDROOT
BRANCH   3  19
ATOM     19  C   UNL     1      -0.385  16.591  19.522  0.00  0.00    +0.000 C 
BRANCH  19  20
ATOM     20  C   UNL     1      -0.438  16.928  18.068  0.00  0.00    +0.000 C 
ATOM     21  C   UNL     1      -0.906  18.277  17.554  0.00  0.00    +0.000 C 
ATOM     22  C   UNL     1       0.553  17.934  17.523  0.00  0.00    +0.000 C 
ENDBRANCH  19  20
ENDBRANCH   3  19
TORSDOF 2
ENDMDL
MODEL 4
REMARK VINA RESULT:      -5.8      8.874     10.823
REMARK  Name = 
REMARK  2 active torsions:
REMARK  status: ('A' for Active; 'I' for Inactive)
REMARK    1  A    between atoms: N_3  and  C_4
REMARK    2  A    between atoms: C_4  and  C_5
REMARK                            x       y       z     vdW  Elec       q    Type
REMARK                         _______ _______ _______ _____ _____    ______ ____
ROOT
ATOM      1  O   UNL     1       2.131   8.993  17.291  0.00  0.00    +0.000 OA
ATOM      2  C   UNL     1       1.730   9.338  18.388  0.00  0.00    +0.000 C 
ATOM      3  N   UNL     1       1.645   8.226  19.861  0.00  0.00    +0.000 N 
ATOM      4  C   UNL     1       1.360   9.128  21.551  0.00  0.00    +0.000 C 
ATOM      5  C   UNL     1       1.161  11.107  21.010  0.00  0.00    +0.000 C 
ATOM      6  C   UNL     1       1.198  11.193  19.007  0.00  0.00    +0.000 C 
ATOM      7  C   UNL     1       2.057  12.422  18.396  0.00  0.00    +0.000 C 
ATOM      8  C   UNL     1       1.748  13.753  19.085  0.00  0.00    +0.000 C 
ATOM      9  C   UNL     1       0.291  14.152  18.896  0.00  0.00    +0.000 C 
ATOM     10  N   UNL     1      -0.540  13.018  19.260  0.00  0.00    +0.000 N 
ATOM     11  C   UNL     1      -1.558  13.186  20.168  0.00  0.00    +0.000 A 
ATOM     12  N   UNL     1      -1.881  14.434  20.562  0.00  0.00    +0.000 NA
ATOM     13  C   UNL     1      -2.827  14.589  21.513  0.00  0.00    +0.000 A 
ATOM     14  C   UNL     1      -3.455  13.537  22.117  0.00  0.00    +0.000 A 
ATOM     15  F   UNL     1      -4.374  13.706  23.072  0.00  0.00    +0.000 F 
ATOM     16  C   UNL     1      -3.071  12.297  21.678  0.00  0.00    +0.000 A 
ATOM     17  N   UNL     1      -2.148  12.091  20.700  0.00  0.00    +0.000 NA
ATOM     18  C   UNL     1      -0.276  11.763  18.544  0.00  0.00    +0.000 C 
ENDROOT
BRANCH   3  19
ATOM     19  C   UNL     1       2.226   6.862  19.795  0.00  0.00    +0.000 C 
BRANCH  19  20
ATOM     20  C   UNL     1       1.508   5.912  20.697  0.00  0.00    +0.000 C 
ATOM     21  C   UNL     1       1.045   4.540  20.243  0.00  0.00    +0.000 C 
ATOM     22  C   UNL     1       2.230   4.663  21.154  0.00  0.00    +0.000 C 
ENDBRANCH  19  20
ENDBRANCH   3  19
TORSDOF 2
ENDMDL
MODEL 5
REMARK VINA RESULT:      -5.8      7.846      9.443
REMARK  Name = 
REMARK  2 active torsions:
REMARK  status: ('A' for Active; 'I' for Inactive)
REMARK    1  A    between atoms: N_3  and  C_4
REMARK    2  A    between atoms: C_4  and  C_5
REMARK                            x       y       z     vdW  Elec       q    Type
REMARK                         _______ _______ _______ _____ _____    ______ ____
ROOT
ATOM      1  O   UNL     1       1.100   7.746  21.654  0.00  0.00    +0.000 OA
ATOM      2  C   UNL     1       1.262   8.426  20.656  0.00  0.00    +0.000 C 
ATOM      3  N   UNL     1       2.109   7.839  19.123  0.00  0.00    +0.000 N 
ATOM      4  C   UNL     1       1.869   8.972  17.570  0.00  0.00    +0.000 C 
ATOM      5  C   UNL     1       0.758  10.549  18.296  0.00  0.00    +0.000 C 
ATOM      6  C   UNL     1       0.557  10.288  20.274  0.00  0.00    +0.000 C 
ATOM      7  C   UNL     1      -0.916  10.625  20.857  0.00  0.00    +0.000 C 
ATOM      8  C   UNL     1      -1.464  11.954  20.332  0.00  0.00    +0.000 C 
ATOM      9  C   UNL     1      -0.587  13.125  20.757  0.00  0.00    +0.000 C 
ATOM     10  N   UNL     1       0.788  12.806  20.421  0.00  0.00    +0.000 N 
ATOM     11  C   UNL     1       1.531  13.696  19.683  0.00  0.00    +0.000 A 
ATOM     12  N   UNL     1       1.028  14.924  19.444  0.00  0.00    +0.000 NA
ATOM     13  C   UNL     1       1.725  15.767  18.651  0.00  0.00    +0.000 A 
ATOM     14  C   UNL     1       2.906  15.424  18.057  0.00  0.00    +0.000 A 
ATOM     15  F   UNL     1       3.573  16.262  17.259  0.00  0.00    +0.000 F 
ATOM     16  C   UNL     1       3.354  14.159  18.333  0.00  0.00    +0.000 A 
ATOM     17  N   UNL     1       2.705  13.286  19.150  0.00  0.00    +0.000 NA
ATOM     18  C   UNL     1       1.323  11.559  20.986  0.00  0.00    +0.000 C 
ENDROOT
BRANCH   3  19
ATOM     19  C   UNL     1       2.503   6.414  18.993  0.00  0.00    +0.000 C 
BRANCH  19  20
ATOM     20  C   UNL     1       3.967   6.267  18.739  0.00  0.00    +0.000 C 
ATOM     21  C   UNL     1       4.568   5.033  18.093  0.00  0.00    +0.000 C 
ATOM     22  C   UNL     1       4.461   6.306  17.309  0.00  0.00    +0.000 C 
ENDBRANCH  19  20
ENDBRANCH   3  19
TORSDOF 2
ENDMDL
MODEL 6
REMARK VINA RESULT:      -5.6     10.717     12.108
REMARK  Name = 
REMARK  2 active torsions:
REMARK  status: ('A' for Active; 'I' for Inactive)
REMARK    1  A    between atoms: N_3  and  C_4
REMARK    2  A    between atoms: C_4  and  C_5
REMARK                            x       y       z     vdW  Elec       q    Type
REMARK                         _______ _______ _______ _____ _____    ______ ____
ROOT
ATOM      1  O   UNL     1       7.350  11.670  23.074  0.00  0.00    +0.000 OA
ATOM      2  C   UNL     1       7.974  12.686  22.824  0.00  0.00    +0.000 C 
ATOM      3  N   UNL     1       7.961  14.202  23.879  0.00  0.00    +0.000 N 
ATOM      4  C   UNL     1       9.339  15.499  23.468  0.00  0.00    +0.000 C 
ATOM      5  C   UNL     1      10.303  14.672  21.844  0.00  0.00    +0.000 C 
ATOM      6  C   UNL     1       9.309  13.008  21.333  0.00  0.00    +0.000 C 
ATOM      7  C   UNL     1      10.249  11.751  20.934  0.00  0.00    +0.000 C 
ATOM      8  C   UNL     1      11.373  12.142  19.972  0.00  0.00    +0.000 C 
ATOM      9  C   UNL     1      10.820  12.662  18.652  0.00  0.00    +0.000 C 
ATOM     10  N   UNL     1       9.828  13.680  18.946  0.00  0.00    +0.000 N 
ATOM     11  C   UNL     1       9.923  14.914  18.348  0.00  0.00    +0.000 A 
ATOM     12  N   UNL     1      10.826  15.093  17.364  0.00  0.00    +0.000 NA
ATOM     13  C   UNL     1      10.971  16.327  16.834  0.00  0.00    +0.000 A 
ATOM     14  C   UNL     1      10.263  17.411  17.269  0.00  0.00    +0.000 A 
ATOM     15  F   UNL     1      10.433  18.630  16.749  0.00  0.00    +0.000 F 
ATOM     16  C   UNL     1       9.372  17.161  18.279  0.00  0.00    +0.000 A 
ATOM     17  N   UNL     1       9.167  15.930  18.821  0.00  0.00    +0.000 NA
ATOM     18  C   UNL     1       8.718  13.272  19.819  0.00  0.00    +0.000 C 
ENDROOT
BRANCH   3  19
ATOM     19  C   UNL     1       7.282  14.181  25.199  0.00  0.00    +0.000 C 
BRANCH  19  20
ATOM     20  C   UNL     1       5.836  14.536  25.082  0.00  0.00    +0.000 C 
ATOM     21  C   UNL     1       5.254  15.811  25.662  0.00  0.00    +0.000 C 
ATOM     22  C   UNL     1       5.443  15.685  24.180  0.00  0.00    +0.000 C 
ENDBRANCH  19  20
ENDBRANCH   3  19
TORSDOF 2
ENDMDL
MODEL 7
REMARK VINA RESULT:      -5.6      8.605     10.102
REMARK  Name = 
REMARK  2 active torsions:
REMARK  status: ('A' for Active; 'I' for Inactive)
REMARK    1  A    between atoms: N_3  and  C_4
REMARK    2  A    between atoms: C_4  and  C_5
REMARK                            x       y       z     vdW  Elec       q    Type
REMARK                         _______ _______ _______ _____ _____    ______ ____
ROOT
ATOM      1  O   UNL     1       0.769   8.793  22.161  0.00  0.00    +0.000 OA
ATOM      2  C   UNL     1       0.939   9.380  21.107  0.00  0.00    +0.000 C 
ATOM      3  N   UNL     1       1.797   8.656  19.640  0.00  0.00    +0.000 N 
ATOM      4  C   UNL     1       1.569   9.643  17.989  0.00  0.00    +0.000 C 
ATOM      5  C   UNL     1       0.454  11.280  18.560  0.00  0.00    +0.000 C 
ATOM      6  C   UNL     1       0.238  11.200  20.552  0.00  0.00    +0.000 C 
ATOM      7  C   UNL     1      -1.238  11.589  21.091  0.00  0.00    +0.000 C 
ATOM      8  C   UNL     1      -1.782  12.864  20.443  0.00  0.00    +0.000 C 
ATOM      9  C   UNL     1      -0.907  14.068  20.767  0.00  0.00    +0.000 C 
ATOM     10  N   UNL     1       0.470  13.721  20.471  0.00  0.00    +0.000 N 
ATOM     11  C   UNL     1       1.219  14.540  19.661  0.00  0.00    +0.000 A 
ATOM     12  N   UNL     1       0.719  15.741  19.307  0.00  0.00    +0.000 NA
ATOM     13  C   UNL     1       1.422  16.508  18.447  0.00  0.00    +0.000 A 
ATOM     14  C   UNL     1       2.608  16.112  17.895  0.00  0.00    +0.000 A 
ATOM     15  F   UNL     1       3.282  16.875  17.029  0.00  0.00    +0.000 F 
ATOM     16  C   UNL     1       3.052  14.878  18.288  0.00  0.00    +0.000 A 
ATOM     17  N   UNL     1       2.397  14.083  19.177  0.00  0.00    +0.000 NA
ATOM     18  C   UNL     1       1.000  12.530  21.152  0.00  0.00    +0.000 C 
ENDROOT
BRANCH   3  19
ATOM     19  C   UNL     1       2.190   7.225  19.643  0.00  0.00    +0.000 C 
BRANCH  19  20
ATOM     20  C   UNL     1       2.475   6.728  18.264  0.00  0.00    +0.000 C 
ATOM     21  C   UNL     1       3.772   6.033  17.892  0.00  0.00    +0.000 C 
ATOM     22  C   UNL     1       2.510   5.234  18.026  0.00  0.00    +0.000 C 
ENDBRANCH  19  20
ENDBRANCH   3  19
TORSDOF 2
ENDMDL
MODEL 8
REMARK VINA RESULT:      -5.5      9.791     11.590
REMARK  Name = 
REMARK  2 active torsions:
REMARK  status: ('A' for Active; 'I' for Inactive)
REMARK    1  A    between atoms: N_3  and  C_4
REMARK    2  A    between atoms: C_4  and  C_5
REMARK                            x       y       z     vdW  Elec       q    Type
REMARK                         _______ _______ _______ _____ _____    ______ ____
ROOT
ATOM      1  O   UNL     1       1.168   9.464  22.789  0.00  0.00    +0.000 OA
ATOM      2  C   UNL     1       0.736  10.022  21.797  0.00  0.00    +0.000 C 
ATOM      3  N   UNL     1       1.066   9.469  20.065  0.00  0.00    +0.000 N 
ATOM      4  C   UNL     1      -0.061  10.283  18.717  0.00  0.00    +0.000 C 
ATOM      5  C   UNL     1      -1.214  11.608  19.795  0.00  0.00    +0.000 C 
ATOM      6  C   UNL     1      -0.564  11.574  21.691  0.00  0.00    +0.000 C 
ATOM      7  C   UNL     1      -1.733  11.601  22.810  0.00  0.00    +0.000 C 
ATOM      8  C   UNL     1      -2.797  12.663  22.521  0.00  0.00    +0.000 C 
ATOM      9  C   UNL     1      -2.201  14.064  22.532  0.00  0.00    +0.000 C 
ATOM     10  N   UNL     1      -1.028  14.064  21.677  0.00  0.00    +0.000 N 
ATOM     11  C   UNL     1      -0.911  15.006  20.683  0.00  0.00    +0.000 A 
ATOM     12  N   UNL     1      -1.797  16.021  20.640  0.00  0.00    +0.000 NA
ATOM     13  C   UNL     1      -1.728  16.899  19.616  0.00  0.00    +0.000 A 
ATOM     14  C   UNL     1      -0.817  16.791  18.603  0.00  0.00    +0.000 A 
ATOM     15  F   UNL     1      -0.775  17.656  17.586  0.00  0.00    +0.000 F 
ATOM     16  C   UNL     1       0.045  15.731  18.703  0.00  0.00    +0.000 A 
ATOM     17  N   UNL     1       0.036  14.840  19.732  0.00  0.00    +0.000 NA
ATOM     18  C   UNL     1       0.016  13.083  22.006  0.00  0.00    +0.000 C 
ENDROOT
BRANCH   3  19
ATOM     19  C   UNL     1       1.772   8.187  19.819  0.00  0.00    +0.000 C 
BRANCH  19  20
ATOM     20  C   UNL     1       2.110   8.011  18.375  0.00  0.00    +0.000 C 
ATOM     21  C   UNL     1       3.451   7.480  17.904  0.00  0.00    +0.000 C 
ATOM     22  C   UNL     1       2.235   6.607  17.826  0.00  0.00    +0.000 C 
ENDBRANCH  19  20
ENDBRANCH   3  19
TORSDOF 2
ENDMDL
MODEL 9
REMARK VINA RESULT:      -5.5     10.726     13.495
REMARK  Name = 
REMARK  2 active torsions:
REMARK  status: ('A' for Active; 'I' for Inactive)
REMARK    1  A    between atoms: N_3  and  C_4
REMARK    2  A    between atoms: C_4  and  C_5
REMARK                            x       y       z     vdW  Elec       q    Type
REMARK                         _______ _______ _______ _____ _____    ______ ____
ROOT
ATOM      1  O   UNL     1       1.038  15.001  21.680  0.00  0.00    +0.000 OA
ATOM      2  C   UNL     1       0.459  14.063  21.163  0.00  0.00    +0.000 C 
ATOM      3  N   UNL     1       1.130  13.073  19.755  0.00  0.00    +0.000 N 
ATOM      4  C   UNL     1       0.198  11.412  19.404  0.00  0.00    +0.000 C 
ATOM      5  C   UNL     1      -1.343  11.430  20.773  0.00  0.00    +0.000 C 
ATOM      6  C   UNL     1      -1.281  13.190  21.731  0.00  0.00    +0.000 C 
ATOM      7  C   UNL     1      -1.546  13.104  23.326  0.00  0.00    +0.000 C 
ATOM      8  C   UNL     1      -2.756  12.233  23.673  0.00  0.00    +0.000 C 
ATOM      9  C   UNL     1      -4.039  12.804  23.083  0.00  0.00    +0.000 C 
ATOM     10  N   UNL     1      -3.810  13.075  21.676  0.00  0.00    +0.000 N 
ATOM     11  C   UNL     1      -4.678  12.570  20.737  0.00  0.00    +0.000 A 
ATOM     12  N   UNL     1      -5.823  11.992  21.152  0.00  0.00    +0.000 NA
ATOM     13  C   UNL     1      -6.634  11.427  20.231  0.00  0.00    +0.000 A 
ATOM     14  C   UNL     1      -6.335  11.390  18.899  0.00  0.00    +0.000 A 
ATOM     15  F   UNL     1      -7.138  10.808  18.003  0.00  0.00    +0.000 F 
ATOM     16  C   UNL     1      -5.153  11.986  18.548  0.00  0.00    +0.000 A 
ATOM     17  N   UNL     1      -4.319  12.596  19.433  0.00  0.00    +0.000 NA
ATOM     18  C   UNL     1      -2.685  13.966  21.361  0.00  0.00    +0.000 C 
ENDROOT
BRANCH   3  19
ATOM     19  C   UNL     1       2.520  13.299  19.286  0.00  0.00    +0.000 C 
BRANCH  19  20
ATOM     20  C   UNL     1       2.574  14.305  18.183  0.00  0.00    +0.000 C 
ATOM     21  C   UNL     1       2.811  15.783  18.431  0.00  0.00    +0.000 C 
ATOM     22  C   UNL     1       3.906  14.941  17.848  0.00  0.00    +0.000 C 
ENDBRANCH  19  20
ENDBRANCH   3  19
TORSDOF 2
ENDMDL
