MODEL 1
REMARK VINA RESULT:      -7.7      0.000      0.000
REMARK  Name = 
REMARK  4 active torsions:
REMARK  status: ('A' for Active; 'I' for Inactive)
REMARK    1  A    between atoms: C_2  and  C_18
REMARK    2  A    between atoms: N_3  and  C_4
REMARK    3  A    between atoms: C_4  and  C_5
REMARK    4  A    between atoms: C_5  and  C_6
REMARK                            x       y       z     vdW  Elec       q    Type
REMARK                         _______ _______ _______ _____ _____    ______ ____
ROOT
ATOM      1  C   UNL     1       3.496   5.392  18.156  0.00  0.00    +0.000 C 
ATOM      2  C   UNL     1       2.219   4.668  17.631  0.00  0.00    +0.000 C 
ATOM      3  C   UNL     1       2.196   3.196  18.023  0.00  0.00    +0.000 C 
ATOM      4  O   UNL     1       2.190   3.077  19.442  0.00  0.00    +0.000 OA
ATOM      5  C   UNL     1       3.387   3.582  20.020  0.00  0.00    +0.000 C 
ATOM      6  C   UNL     1       3.565   5.066  19.691  0.00  0.00    +0.000 C 
ENDROOT
BRANCH   1   7
ATOM      7  C   UNL     1       4.766   4.925  17.358  0.00  0.00    +0.000 A 
ATOM      8  C   UNL     1       4.633   4.414  16.044  0.00  0.00    +0.000 A 
ATOM      9  C   UNL     1       5.732   4.091  15.237  0.00  0.00    +0.000 A 
ATOM     10  C   UNL     1       7.017   4.205  15.734  0.00  0.00    +0.000 A 
ATOM     11  C   UNL     1       7.194   4.631  17.044  0.00  0.00    +0.000 A 
ATOM     12  C   UNL     1       6.097   4.994  17.846  0.00  0.00    +0.000 A 
ATOM     13 CL   UNL     1       6.538   5.511  19.439  0.00  0.00    +0.000 Cl
ENDBRANCH   1   7
BRANCH   1  14
ATOM     14  C   UNL     1       3.354   6.946  18.019  0.00  0.00    +0.000 C 
BRANCH  14  17
ATOM     15  O   UNL     1       2.194   9.416  17.442  0.00  0.00    +0.000 OA
ATOM     16  C   UNL     1       1.804   8.815  18.444  0.00  0.00    +0.000 C 
ATOM     17  N   UNL     1       2.304   7.580  18.810  0.00  0.00    +0.000 N 
ATOM     18  H   UNL     1       2.024   7.214  19.713  0.00  0.00    +0.000 HD
BRANCH  16  19
ATOM     19  C   UNL     1       0.728   9.365  19.399  0.00  0.00    +0.000 C 
ATOM     20  C   UNL     1       0.960   8.952  20.851  0.00  0.00    +0.000 C 
ATOM     21  C   UNL     1       0.592  10.180  21.644  0.00  0.00    +0.000 C 
ATOM     22  F   UNL     1      -0.753  10.195  21.844  0.00  0.00    +0.000 F 
ATOM     23  C   UNL     1       0.987  11.320  20.721  0.00  0.00    +0.000 C 
ATOM     24  N   UNL     1       0.702  10.852  19.353  0.00  0.00    +0.000 NA
ATOM     25  H   UNL     1       1.419  11.206  18.717  0.00  0.00    +0.000 HD
ENDBRANCH  16  19
ENDBRANCH  14  17
ENDBRANCH   1  14
TORSDOF 4
ENDMDL
MODEL 2
REMARK VINA RESULT:      -7.7      3.796      6.784
REMARK  Name = 
REMARK  4 active torsions:
REMARK  status: ('A' for Active; 'I' for Inactive)
REMARK    1  A    between atoms: C_2  and  C_18
REMARK    2  A    between atoms: N_3  and  C_4
REMARK    3  A    between atoms: C_4  and  C_5
REMARK    4  A    between atoms: C_5  and  C_6
REMARK                            x       y       z     vdW  Elec       q    Type
REMARK                         _______ _______ _______ _____ _____    ______ ____
ROOT
ATOM      1  C   UNL     1       2.972   5.241  19.513  0.00  0.00    +0.000 C 
ATOM      2  C   UNL     1       2.685   4.301  20.722  0.00  0.00    +0.000 C 
ATOM      3  C   UNL     1       1.245   3.799  20.724  0.00  0.00    +0.000 C 
ATOM      4  O   UNL     1       0.998   3.045  19.541  0.00  0.00    +0.000 OA
ATOM      5  C   UNL     1       1.094   3.851  18.372  0.00  0.00    +0.000 C 
ATOM      6  C   UNL     1       2.495   4.452  18.241  0.00  0.00    +0.000 C 
ENDROOT
BRANCH   1   7
ATOM      7  C   UNL     1       2.250   6.624  19.701  0.00  0.00    +0.000 A 
ATOM      8  C   UNL     1       1.545   6.901  20.898  0.00  0.00    +0.000 A 
ATOM      9  C   UNL     1       0.981   8.153  21.176  0.00  0.00    +0.000 A 
ATOM     10  C   UNL     1       1.041   9.167  20.238  0.00  0.00    +0.000 A 
ATOM     11  C   UNL     1       1.657   8.918  19.019  0.00  0.00    +0.000 A 
ATOM     12  C   UNL     1       2.260   7.676  18.748  0.00  0.00    +0.000 A 
ATOM     13 CL   UNL     1       2.985   7.579  17.178  0.00  0.00    +0.000 Cl
ENDBRANCH   1   7
BRANCH   1  14
ATOM     14  C   UNL     1       4.511   5.490  19.352  0.00  0.00    +0.000 C 
BRANCH  14  17
ATOM     15  O   UNL     1       7.125   4.597  18.969  0.00  0.00    +0.000 OA
ATOM     16  C   UNL     1       6.409   4.731  17.975  0.00  0.00    +0.000 C 
ATOM     17  N   UNL     1       5.096   5.154  18.058  0.00  0.00    +0.000 N 
ATOM     18  H   UNL     1       4.618   5.361  17.188  0.00  0.00    +0.000 HD
BRANCH  16  19
ATOM     19  C   UNL     1       6.889   4.450  16.539  0.00  0.00    +0.000 C 
ATOM     20  C   UNL     1       5.882   3.635  15.729  0.00  0.00    +0.000 C 
ATOM     21  C   UNL     1       5.937   4.249  14.353  0.00  0.00    +0.000 C 
ATOM     22  F   UNL     1       6.969   3.699  13.660  0.00  0.00    +0.000 F 
ATOM     23  C   UNL     1       6.231   5.712  14.639  0.00  0.00    +0.000 C 
ATOM     24  N   UNL     1       7.125   5.725  15.810  0.00  0.00    +0.000 NA
ATOM     25  H   UNL     1       6.897   6.526  16.401  0.00  0.00    +0.000 HD
ENDBRANCH  16  19
ENDBRANCH  14  17
ENDBRANCH   1  14
TORSDOF 4
ENDMDL
MODEL 3
REMARK VINA RESULT:      -7.6      1.328      1.585
REMARK  Name = 
REMARK  4 active torsions:
REMARK  status: ('A' for Active; 'I' for Inactive)
REMARK    1  A    between atoms: C_2  and  C_18
REMARK    2  A    between atoms: N_3  and  C_4
REMARK    3  A    between atoms: C_4  and  C_5
REMARK    4  A    between atoms: C_5  and  C_6
REMARK                            x       y       z     vdW  Elec       q    Type
REMARK                         _______ _______ _______ _____ _____    ______ ____
ROOT
ATOM      1  C   UNL     1       3.855   4.448  18.630  0.00  0.00    +0.000 C 
ATOM      2  C   UNL     1       2.459   4.227  17.974  0.00  0.00    +0.000 C 
ATOM      3  C   UNL     1       2.298   2.808  17.439  0.00  0.00    +0.000 C 
ATOM      4  O   UNL     1       2.409   1.876  18.511  0.00  0.00    +0.000 OA
ATOM      5  C   UNL     1       3.705   1.894  19.095  0.00  0.00    +0.000 C 
ATOM      6  C   UNL     1       4.026   3.278  19.664  0.00  0.00    +0.000 C 
ENDROOT
BRANCH   1   7
ATOM      7  C   UNL     1       4.982   4.489  17.537  0.00  0.00    +0.000 A 
ATOM      8  C   UNL     1       4.689   4.130  16.198  0.00  0.00    +0.000 A 
ATOM      9  C   UNL     1       5.615   4.257  15.155  0.00  0.00    +0.000 A 
ATOM     10  C   UNL     1       6.902   4.688  15.417  0.00  0.00    +0.000 A 
ATOM     11  C   UNL     1       7.259   4.980  16.727  0.00  0.00    +0.000 A 
ATOM     12  C   UNL     1       6.322   4.892  17.773  0.00  0.00    +0.000 A 
ATOM     13 CL   UNL     1       6.967   5.314  19.324  0.00  0.00    +0.000 Cl
ENDBRANCH   1   7
BRANCH   1  14
ATOM     14  C   UNL     1       3.886   5.788  19.441  0.00  0.00    +0.000 C 
BRANCH  14  17
ATOM     15  O   UNL     1       3.855   7.778  17.486  0.00  0.00    +0.000 OA
ATOM     16  C   UNL     1       2.873   7.677  18.223  0.00  0.00    +0.000 C 
ATOM     17  N   UNL     1       2.783   6.717  19.213  0.00  0.00    +0.000 N 
ATOM     18  H   UNL     1       2.002   6.782  19.855  0.00  0.00    +0.000 HD
BRANCH  16  19
ATOM     19  C   UNL     1       1.645   8.601  18.131  0.00  0.00    +0.000 C 
ATOM     20  C   UNL     1       1.084   8.976  19.501  0.00  0.00    +0.000 C 
ATOM     21  C   UNL     1       0.696  10.425  19.354  0.00  0.00    +0.000 C 
ATOM     22  F   UNL     1      -0.545  10.501  18.804  0.00  0.00    +0.000 F 
ATOM     23  C   UNL     1       1.726  10.961  18.375  0.00  0.00    +0.000 C 
ATOM     24  N   UNL     1       1.995   9.865  17.428  0.00  0.00    +0.000 NA
ATOM     25  H   UNL     1       2.984   9.873  17.172  0.00  0.00    +0.000 HD
ENDBRANCH  16  19
ENDBRANCH  14  17
ENDBRANCH   1  14
TORSDOF 4
ENDMDL
MODEL 4
REMARK VINA RESULT:      -7.5      1.545      2.049
REMARK  Name = 
REMARK  4 active torsions:
REMARK  status: ('A' for Active; 'I' for Inactive)
REMARK    1  A    between atoms: C_2  and  C_18
REMARK    2  A    between atoms: N_3  and  C_4
REMARK    3  A    between atoms: C_4  and  C_5
REMARK    4  A    between atoms: C_5  and  C_6
REMARK                            x       y       z     vdW  Elec       q    Type
REMARK                         _______ _______ _______ _____ _____    ______ ____
ROOT
ATOM      1  C   UNL     1       3.414   4.748  18.255  0.00  0.00    +0.000 C 
ATOM      2  C   UNL     1       2.941   3.551  17.378  0.00  0.00    +0.000 C 
ATOM      3  C   UNL     1       3.341   2.209  17.980  0.00  0.00    +0.000 C 
ATOM      4  O   UNL     1       2.733   2.055  19.259  0.00  0.00    +0.000 OA
ATOM      5  C   UNL     1       3.208   3.021  20.189  0.00  0.00    +0.000 C 
ATOM      6  C   UNL     1       2.896   4.440  19.706  0.00  0.00    +0.000 C 
ENDROOT
BRANCH   1   7
ATOM      7  C   UNL     1       4.973   4.917  18.169  0.00  0.00    +0.000 A 
ATOM      8  C   UNL     1       5.711   5.306  19.314  0.00  0.00    +0.000 A 
ATOM      9  C   UNL     1       7.111   5.361  19.336  0.00  0.00    +0.000 A 
ATOM     10  C   UNL     1       7.835   5.092  18.190  0.00  0.00    +0.000 A 
ATOM     11  C   UNL     1       7.152   4.779  17.022  0.00  0.00    +0.000 A 
ATOM     12  C   UNL     1       5.748   4.683  17.003  0.00  0.00    +0.000 A 
ATOM     13 CL   UNL     1       5.098   4.267  15.453  0.00  0.00    +0.000 Cl
ENDBRANCH   1   7
BRANCH   1  14
ATOM     14  C   UNL     1       2.733   6.082  17.796  0.00  0.00    +0.000 C 
BRANCH  14  17
ATOM     15  O   UNL     1       2.042   8.753  17.389  0.00  0.00    +0.000 OA
ATOM     16  C   UNL     1       2.023   8.321  18.542  0.00  0.00    +0.000 C 
ATOM     17  N   UNL     1       2.335   7.010  18.849  0.00  0.00    +0.000 N 
ATOM     18  H   UNL     1       2.419   6.770  19.830  0.00  0.00    +0.000 HD
BRANCH  16  19
ATOM     19  C   UNL     1       1.657   9.182  19.765  0.00  0.00    +0.000 C 
ATOM     20  C   UNL     1       0.334   9.924  19.590  0.00  0.00    +0.000 C 
ATOM     21  C   UNL     1      -0.314   9.843  20.949  0.00  0.00    +0.000 C 
ATOM     22  F   UNL     1       0.165  10.846  21.732  0.00  0.00    +0.000 F 
ATOM     23  C   UNL     1       0.162   8.502  21.480  0.00  0.00    +0.000 C 
ATOM     24  N   UNL     1       1.539   8.335  20.983  0.00  0.00    +0.000 NA
ATOM     25  H   UNL     1       1.700   7.352  20.755  0.00  0.00    +0.000 HD
ENDBRANCH  16  19
ENDBRANCH  14  17
ENDBRANCH   1  14
TORSDOF 4
ENDMDL
MODEL 5
REMARK VINA RESULT:      -7.4      0.948      1.162
REMARK  Name = 
REMARK  4 active torsions:
REMARK  status: ('A' for Active; 'I' for Inactive)
REMARK    1  A    between atoms: C_2  and  C_18
REMARK    2  A    between atoms: N_3  and  C_4
REMARK    3  A    between atoms: C_4  and  C_5
REMARK    4  A    between atoms: C_5  and  C_6
REMARK                            x       y       z     vdW  Elec       q    Type
REMARK                         _______ _______ _______ _____ _____    ______ ____
ROOT
ATOM      1  C   UNL     1       3.374   5.051  18.077  0.00  0.00    +0.000 C 
ATOM      2  C   UNL     1       2.215   4.154  17.548  0.00  0.00    +0.000 C 
ATOM      3  C   UNL     1       2.366   2.704  17.993  0.00  0.00    +0.000 C 
ATOM      4  O   UNL     1       2.334   2.632  19.416  0.00  0.00    +0.000 OA
ATOM      5  C   UNL     1       3.441   3.305  20.003  0.00  0.00    +0.000 C 
ATOM      6  C   UNL     1       3.440   4.788  19.624  0.00  0.00    +0.000 C 
ENDROOT
BRANCH   1   7
ATOM      7  C   UNL     1       4.716   4.723  17.328  0.00  0.00    +0.000 A 
ATOM      8  C   UNL     1       4.686   4.213  16.006  0.00  0.00    +0.000 A 
ATOM      9  C   UNL     1       5.843   4.011  15.242  0.00  0.00    +0.000 A 
ATOM     10  C   UNL     1       7.089   4.249  15.791  0.00  0.00    +0.000 A 
ATOM     11  C   UNL     1       7.171   4.678  17.109  0.00  0.00    +0.000 A 
ATOM     12  C   UNL     1       6.012   4.921  17.869  0.00  0.00    +0.000 A 
ATOM     13 CL   UNL     1       6.337   5.464  19.481  0.00  0.00    +0.000 Cl
ENDBRANCH   1   7
BRANCH   1  14
ATOM     14  C   UNL     1       3.042   6.569  17.880  0.00  0.00    +0.000 C 
BRANCH  14  17
ATOM     15  O   UNL     1       1.524   8.908  17.827  0.00  0.00    +0.000 OA
ATOM     16  C   UNL     1       1.854   8.458  18.925  0.00  0.00    +0.000 C 
ATOM     17  N   UNL     1       2.594   7.299  19.062  0.00  0.00    +0.000 N 
ATOM     18  H   UNL     1       2.931   7.069  19.989  0.00  0.00    +0.000 HD
BRANCH  16  19
ATOM     19  C   UNL     1       1.488   9.130  20.262  0.00  0.00    +0.000 C 
ATOM     20  C   UNL     1       0.365  10.155  20.120  0.00  0.00    +0.000 C 
ATOM     21  C   UNL     1      -0.470   9.958  21.360  0.00  0.00    +0.000 C 
ATOM     22  F   UNL     1       0.075  10.669  22.382  0.00  0.00    +0.000 F 
ATOM     23  C   UNL     1      -0.333   8.471  21.636  0.00  0.00    +0.000 C 
ATOM     24  N   UNL     1       1.045   8.112  21.253  0.00  0.00    +0.000 NA
ATOM     25  H   UNL     1       1.049   7.179  20.837  0.00  0.00    +0.000 HD
ENDBRANCH  16  19
ENDBRANCH  14  17
ENDBRANCH   1  14
TORSDOF 4
ENDMDL
MODEL 6
REMARK VINA RESULT:      -7.4      1.423      1.531
REMARK  Name = 
REMARK  4 active torsions:
REMARK  status: ('A' for Active; 'I' for Inactive)
REMARK    1  A    between atoms: C_2  and  C_18
REMARK    2  A    between atoms: N_3  and  C_4
REMARK    3  A    between atoms: C_4  and  C_5
REMARK    4  A    between atoms: C_5  and  C_6
REMARK                            x       y       z     vdW  Elec       q    Type
REMARK                         _______ _______ _______ _____ _____    ______ ____
ROOT
ATOM      1  C   UNL     1       3.415   4.620  18.250  0.00  0.00    +0.000 C 
ATOM      2  C   UNL     1       2.296   3.771  17.574  0.00  0.00    +0.000 C 
ATOM      3  C   UNL     1       2.575   2.276  17.676  0.00  0.00    +0.000 C 
ATOM      4  O   UNL     1       2.623   1.889  19.046  0.00  0.00    +0.000 OA
ATOM      5  C   UNL     1       3.708   2.503  19.731  0.00  0.00    +0.000 C 
ATOM      6  C   UNL     1       3.580   4.027  19.695  0.00  0.00    +0.000 C 
ENDROOT
BRANCH   1   7
ATOM      7  C   UNL     1       4.735   4.577  17.399  0.00  0.00    +0.000 A 
ATOM      8  C   UNL     1       4.699   4.145  16.051  0.00  0.00    +0.000 A 
ATOM      9  C   UNL     1       5.815   4.194  15.205  0.00  0.00    +0.000 A 
ATOM     10  C   UNL     1       7.037   4.618  15.692  0.00  0.00    +0.000 A 
ATOM     11  C   UNL     1       7.139   4.980  17.028  0.00  0.00    +0.000 A 
ATOM     12  C   UNL     1       6.013   4.970  17.873  0.00  0.00    +0.000 A 
ATOM     13 CL   UNL     1       6.355   5.471  19.495  0.00  0.00    +0.000 Cl
ENDBRANCH   1   7
BRANCH   1  14
ATOM     14  C   UNL     1       2.964   6.112  18.411  0.00  0.00    +0.000 C 
BRANCH  14  17
ATOM     15  O   UNL     1       1.949   8.635  19.028  0.00  0.00    +0.000 OA
ATOM     16  C   UNL     1       1.903   7.765  19.899  0.00  0.00    +0.000 C 
ATOM     17  N   UNL     1       2.367   6.480  19.691  0.00  0.00    +0.000 N 
ATOM     18  H   UNL     1       2.410   5.865  20.495  0.00  0.00    +0.000 HD
BRANCH  16  19
ATOM     19  C   UNL     1       1.334   8.006  21.310  0.00  0.00    +0.000 C 
ATOM     20  C   UNL     1       1.616   9.415  21.828  0.00  0.00    +0.000 C 
ATOM     21  C   UNL     1       0.349   9.801  22.548  0.00  0.00    +0.000 C 
ATOM     22  F   UNL     1       0.387   9.307  23.814  0.00  0.00    +0.000 F 
ATOM     23  C   UNL     1      -0.731   9.091  21.751  0.00  0.00    +0.000 C 
ATOM     24  N   UNL     1      -0.141   7.813  21.316  0.00  0.00    +0.000 NA
ATOM     25  H   UNL     1      -0.479   7.585  20.380  0.00  0.00    +0.000 HD
ENDBRANCH  16  19
ENDBRANCH  14  17
ENDBRANCH   1  14
TORSDOF 4
ENDMDL
MODEL 7
REMARK VINA RESULT:      -7.4      4.352      7.201
REMARK  Name = 
REMARK  4 active torsions:
REMARK  status: ('A' for Active; 'I' for Inactive)
REMARK    1  A    between atoms: C_2  and  C_18
REMARK    2  A    between atoms: N_3  and  C_4
REMARK    3  A    between atoms: C_4  and  C_5
REMARK    4  A    between atoms: C_5  and  C_6
REMARK                            x       y       z     vdW  Elec       q    Type
REMARK                         _______ _______ _______ _____ _____    ______ ____
ROOT
ATOM      1  C   UNL     1       4.233   4.225  18.417  0.00  0.00    +0.000 C 
ATOM      2  C   UNL     1       4.409   3.189  19.567  0.00  0.00    +0.000 C 
ATOM      3  C   UNL     1       3.120   2.424  19.847  0.00  0.00    +0.000 C 
ATOM      4  O   UNL     1       2.731   1.697  18.686  0.00  0.00    +0.000 OA
ATOM      5  C   UNL     1       2.405   2.563  17.605  0.00  0.00    +0.000 C 
ATOM      6  C   UNL     1       3.609   3.425  17.218  0.00  0.00    +0.000 C 
ENDROOT
BRANCH   1   7
ATOM      7  C   UNL     1       3.349   5.435  18.890  0.00  0.00    +0.000 A 
ATOM      8  C   UNL     1       2.599   5.342  20.088  0.00  0.00    +0.000 A 
ATOM      9  C   UNL     1       1.885   6.422  20.626  0.00  0.00    +0.000 A 
ATOM     10  C   UNL     1       1.838   7.628  19.952  0.00  0.00    +0.000 A 
ATOM     11  C   UNL     1       2.497   7.744  18.736  0.00  0.00    +0.000 A 
ATOM     12  C   UNL     1       3.248   6.676  18.209  0.00  0.00    +0.000 A 
ATOM     13 CL   UNL     1       4.001   7.034  16.692  0.00  0.00    +0.000 Cl
ENDBRANCH   1   7
BRANCH   1  14
ATOM     14  C   UNL     1       5.621   4.770  17.937  0.00  0.00    +0.000 C 
BRANCH  14  17
ATOM     15  O   UNL     1       7.202   6.183  16.125  0.00  0.00    +0.000 OA
ATOM     16  C   UNL     1       6.903   5.021  15.847  0.00  0.00    +0.000 C 
ATOM     17  N   UNL     1       6.137   4.231  16.682  0.00  0.00    +0.000 N 
ATOM     18  H   UNL     1       5.830   3.334  16.322  0.00  0.00    +0.000 HD
BRANCH  16  19
ATOM     19  C   UNL     1       7.341   4.321  14.547  0.00  0.00    +0.000 C 
ATOM     20  C   UNL     1       6.159   3.844  13.706  0.00  0.00    +0.000 C 
ATOM     21  C   UNL     1       6.580   4.130  12.286  0.00  0.00    +0.000 C 
ATOM     22  F   UNL     1       7.343   3.099  11.832  0.00  0.00    +0.000 F 
ATOM     23  C   UNL     1       7.433   5.379  12.424  0.00  0.00    +0.000 C 
ATOM     24  N   UNL     1       8.149   5.244  13.705  0.00  0.00    +0.000 NA
ATOM     25  H   UNL     1       8.227   6.161  14.147  0.00  0.00    +0.000 HD
ENDBRANCH  16  19
ENDBRANCH  14  17
ENDBRANCH   1  14
TORSDOF 4
ENDMDL
MODEL 8
REMARK VINA RESULT:      -7.3      3.323      4.714
REMARK  Name = 
REMARK  4 active torsions:
REMARK  status: ('A' for Active; 'I' for Inactive)
REMARK    1  A    between atoms: C_2  and  C_18
REMARK    2  A    between atoms: N_3  and  C_4
REMARK    3  A    between atoms: C_4  and  C_5
REMARK    4  A    between atoms: C_5  and  C_6
REMARK                            x       y       z     vdW  Elec       q    Type
REMARK                         _______ _______ _______ _____ _____    ______ ____
ROOT
ATOM      1  C   UNL     1       5.506   6.249  17.557  0.00  0.00    +0.000 C 
ATOM      2  C   UNL     1       6.077   5.555  18.830  0.00  0.00    +0.000 C 
ATOM      3  C   UNL     1       7.600   5.518  18.825  0.00  0.00    +0.000 C 
ATOM      4  O   UNL     1       8.114   6.846  18.807  0.00  0.00    +0.000 OA
ATOM      5  C   UNL     1       7.768   7.530  17.608  0.00  0.00    +0.000 C 
ATOM      6  C   UNL     1       6.249   7.629  17.458  0.00  0.00    +0.000 C 
ENDROOT
BRANCH   1   7
ATOM      7  C   UNL     1       5.706   5.338  16.292  0.00  0.00    +0.000 A 
ATOM      8  C   UNL     1       6.403   5.833  15.162  0.00  0.00    +0.000 A 
ATOM      9  C   UNL     1       6.717   5.037  14.052  0.00  0.00    +0.000 A 
ATOM     10  C   UNL     1       6.289   3.723  13.996  0.00  0.00    +0.000 A 
ATOM     11  C   UNL     1       5.538   3.216  15.047  0.00  0.00    +0.000 A 
ATOM     12  C   UNL     1       5.253   3.998  16.182  0.00  0.00    +0.000 A 
ATOM     13 CL   UNL     1       4.318   3.170  17.382  0.00  0.00    +0.000 Cl
ENDBRANCH   1   7
BRANCH   1  14
ATOM     14  C   UNL     1       3.979   6.556  17.723  0.00  0.00    +0.000 C 
BRANCH  14  17
ATOM     15  O   UNL     1       2.296   7.428  19.769  0.00  0.00    +0.000 OA
ATOM     16  C   UNL     1       2.430   6.215  19.609  0.00  0.00    +0.000 C 
ATOM     17  N   UNL     1       3.229   5.679  18.617  0.00  0.00    +0.000 N 
ATOM     18  H   UNL     1       3.384   4.678  18.634  0.00  0.00    +0.000 HD
BRANCH  16  19
ATOM     19  C   UNL     1       1.732   5.161  20.490  0.00  0.00    +0.000 C 
ATOM     20  C   UNL     1       1.214   3.969  19.687  0.00  0.00    +0.000 C 
ATOM     21  C   UNL     1       1.501   2.781  20.570  0.00  0.00    +0.000 C 
ATOM     22  F   UNL     1       0.490   2.639  21.468  0.00  0.00    +0.000 F 
ATOM     23  C   UNL     1       2.776   3.184  21.289  0.00  0.00    +0.000 C 
ATOM     24  N   UNL     1       2.672   4.636  21.517  0.00  0.00    +0.000 NA
ATOM     25  H   UNL     1       3.595   5.062  21.413  0.00  0.00    +0.000 HD
ENDBRANCH  16  19
ENDBRANCH  14  17
ENDBRANCH   1  14
TORSDOF 4
ENDMDL
MODEL 9
REMARK VINA RESULT:      -7.3      1.166      1.660
REMARK  Name = 
REMARK  4 active torsions:
REMARK  status: ('A' for Active; 'I' for Inactive)
REMARK    1  A    between atoms: C_2  and  C_18
REMARK    2  A    between atoms: N_3  and  C_4
REMARK    3  A    between atoms: C_4  and  C_5
REMARK    4  A    between atoms: C_5  and  C_6
REMARK                            x       y       z     vdW  Elec       q    Type
REMARK                         _______ _______ _______ _____ _____    ______ ____
ROOT
ATOM      1  C   UNL     1       3.513   5.569  18.350  0.00  0.00    +0.000 C 
ATOM      2  C   UNL     1       2.713   4.511  17.532  0.00  0.00    +0.000 C 
ATOM      3  C   UNL     1       2.800   3.123  18.155  0.00  0.00    +0.000 C 
ATOM      4  O   UNL     1       2.242   3.148  19.465  0.00  0.00    +0.000 OA
ATOM      5  C   UNL     1       2.989   3.982  20.342  0.00  0.00    +0.000 C 
ATOM      6  C   UNL     1       3.013   5.424  19.832  0.00  0.00    +0.000 C 
ENDROOT
BRANCH   1   7
ATOM      7  C   UNL     1       5.059   5.344  18.186  0.00  0.00    +0.000 A 
ATOM      8  C   UNL     1       5.928   5.541  19.288  0.00  0.00    +0.000 A 
ATOM      9  C   UNL     1       7.297   5.246  19.241  0.00  0.00    +0.000 A 
ATOM     10  C   UNL     1       7.872   4.800  18.065  0.00  0.00    +0.000 A 
ATOM     11  C   UNL     1       7.074   4.663  16.937  0.00  0.00    +0.000 A 
ATOM     12  C   UNL     1       5.691   4.920  16.988  0.00  0.00    +0.000 A 
ATOM     13 CL   UNL     1       4.880   4.674  15.478  0.00  0.00    +0.000 Cl
ENDBRANCH   1   7
BRANCH   1  14
ATOM     14  C   UNL     1       3.160   7.022  17.883  0.00  0.00    +0.000 C 
BRANCH  14  17
ATOM     15  O   UNL     1       2.248   9.600  17.335  0.00  0.00    +0.000 OA
ATOM     16  C   UNL     1       1.764   9.009  18.301  0.00  0.00    +0.000 C 
ATOM     17  N   UNL     1       2.136   7.725  18.650  0.00  0.00    +0.000 N 
ATOM     18  H   UNL     1       1.786   7.361  19.528  0.00  0.00    +0.000 HD
BRANCH  16  19
ATOM     19  C   UNL     1       0.699   9.628  19.227  0.00  0.00    +0.000 C 
ATOM     20  C   UNL     1       0.877   9.216  20.687  0.00  0.00    +0.000 C 
ATOM     21  C   UNL     1       0.560  10.470  21.462  0.00  0.00    +0.000 C 
ATOM     22  F   UNL     1      -0.786  10.562  21.631  0.00  0.00    +0.000 F 
ATOM     23  C   UNL     1       1.039  11.577  20.539  0.00  0.00    +0.000 C 
ATOM     24  N   UNL     1       0.758  11.113  19.169  0.00  0.00    +0.000 NA
ATOM     25  H   UNL     1       1.507  11.421  18.546  0.00  0.00    +0.000 HD
ENDBRANCH  16  19
ENDBRANCH  14  17
ENDBRANCH   1  14
TORSDOF 4
ENDMDL
