MODEL 1
REMARK VINA RESULT:      -7.1      0.000      0.000
REMARK  Name = 
REMARK  4 active torsions:
REMARK  status: ('A' for Active; 'I' for Inactive)
REMARK    1  A    between atoms: C_1  and  C_2
REMARK    2  A    between atoms: N_4  and  C_5
REMARK    3  A    between atoms: C_10  and  C_11
REMARK    4  A    between atoms: C_12  and  C_13
REMARK                            x       y       z     vdW  Elec       q    Type
REMARK                         _______ _______ _______ _____ _____    ______ ____
ROOT
ATOM      1  C   UNL     1       4.832   4.434  18.274  0.00  0.00    +0.000 A 
ATOM      2  C   UNL     1       5.798   5.413  18.480  0.00  0.00    +0.000 A 
ATOM      3  C   UNL     1       6.672   5.767  17.453  0.00  0.00    +0.000 A 
ATOM      4  C   UNL     1       6.591   5.172  16.208  0.00  0.00    +0.000 A 
ATOM      5  N   UNL     1       7.428   5.583  15.246  0.00  0.00    +0.000 NA
ATOM      6  C   UNL     1       7.293   5.024  14.017  0.00  0.00    +0.000 A 
ATOM      7  C   UNL     1       8.233   5.530  12.968  0.00  0.00    +0.000 C 
ATOM      8  C   UNL     1       6.323   4.054  13.770  0.00  0.00    +0.000 A 
ATOM      9  C   UNL     1       6.079   3.473  12.409  0.00  0.00    +0.000 C 
ATOM     10  N   UNL     1       5.497   3.606  14.759  0.00  0.00    +0.000 NA
ATOM     11  C   UNL     1       5.626   4.169  15.980  0.00  0.00    +0.000 A 
ATOM     12  C   UNL     1       4.784   3.791  17.029  0.00  0.00    +0.000 A 
ENDROOT
BRANCH   1  16
ATOM     13  C   UNL     1       2.800   2.804  21.008  0.00  0.00    +0.000 C 
ATOM     14  C   UNL     1       3.978   2.948  20.082  0.00  0.00    +0.000 C 
ATOM     15  O   UNL     1       4.891   2.128  20.109  0.00  0.00    +0.000 OA
ATOM     16  N   UNL     1       3.893   4.065  19.264  0.00  0.00    +0.000 N 
ATOM     17  H   UNL     1       3.164   4.736  19.474  0.00  0.00    +0.000 HD
ENDBRANCH   1  16
TORSDOF 1
ENDMDL
MODEL 2
REMARK VINA RESULT:      -7.0      1.384      1.384
REMARK  Name = 
REMARK  4 active torsions:
REMARK  status: ('A' for Active; 'I' for Inactive)
REMARK    1  A    between atoms: C_1  and  C_2
REMARK    2  A    between atoms: N_4  and  C_5
REMARK    3  A    between atoms: C_10  and  C_11
REMARK    4  A    between atoms: C_12  and  C_13
REMARK                            x       y       z     vdW  Elec       q    Type
REMARK                         _______ _______ _______ _____ _____    ______ ____
ROOT
ATOM      1  C   UNL     1       5.038   4.578  18.440  0.00  0.00    +0.000 A 
ATOM      2  C   UNL     1       6.092   5.478  18.565  0.00  0.00    +0.000 A 
ATOM      3  C   UNL     1       6.919   5.749  17.477  0.00  0.00    +0.000 A 
ATOM      4  C   UNL     1       6.706   5.150  16.249  0.00  0.00    +0.000 A 
ATOM      5  N   UNL     1       7.506   5.482  15.227  0.00  0.00    +0.000 NA
ATOM      6  C   UNL     1       7.242   4.923  14.019  0.00  0.00    +0.000 A 
ATOM      7  C   UNL     1       8.147   5.341  12.902  0.00  0.00    +0.000 C 
ATOM      8  C   UNL     1       6.183   4.034  13.852  0.00  0.00    +0.000 A 
ATOM      9  C   UNL     1       5.800   3.461  12.520  0.00  0.00    +0.000 C 
ATOM     10  N   UNL     1       5.393   3.664  14.902  0.00  0.00    +0.000 NA
ATOM     11  C   UNL     1       5.649   4.227  16.102  0.00  0.00    +0.000 A 
ATOM     12  C   UNL     1       4.853   3.930  17.211  0.00  0.00    +0.000 A 
ENDROOT
BRANCH   1  16
ATOM     13  C   UNL     1       2.298   4.521  21.038  0.00  0.00    +0.000 C 
ATOM     14  C   UNL     1       3.029   5.053  19.834  0.00  0.00    +0.000 C 
ATOM     15  O   UNL     1       2.619   6.052  19.252  0.00  0.00    +0.000 OA
ATOM     16  N   UNL     1       4.143   4.297  19.497  0.00  0.00    +0.000 N 
ATOM     17  H   UNL     1       4.257   3.409  19.968  0.00  0.00    +0.000 HD
ENDBRANCH   1  16
TORSDOF 1
ENDMDL
MODEL 3
REMARK VINA RESULT:      -6.6      2.832      5.990
REMARK  Name = 
REMARK  4 active torsions:
REMARK  status: ('A' for Active; 'I' for Inactive)
REMARK    1  A    between atoms: C_1  and  C_2
REMARK    2  A    between atoms: N_4  and  C_5
REMARK    3  A    between atoms: C_10  and  C_11
REMARK    4  A    between atoms: C_12  and  C_13
REMARK                            x       y       z     vdW  Elec       q    Type
REMARK                         _______ _______ _______ _____ _____    ______ ____
ROOT
ATOM      1  C   UNL     1       5.631   6.265  17.222  0.00  0.00    +0.000 A 
ATOM      2  C   UNL     1       5.595   5.253  16.269  0.00  0.00    +0.000 A 
ATOM      3  C   UNL     1       4.691   4.199  16.395  0.00  0.00    +0.000 A 
ATOM      4  C   UNL     1       3.803   4.142  17.453  0.00  0.00    +0.000 A 
ATOM      5  N   UNL     1       2.927   3.128  17.499  0.00  0.00    +0.000 NA
ATOM      6  C   UNL     1       2.029   3.124  18.516  0.00  0.00    +0.000 A 
ATOM      7  C   UNL     1       1.056   1.986  18.515  0.00  0.00    +0.000 C 
ATOM      8  C   UNL     1       2.023   4.133  19.478  0.00  0.00    +0.000 A 
ATOM      9  C   UNL     1       0.996   4.216  20.566  0.00  0.00    +0.000 C 
ATOM     10  N   UNL     1       2.940   5.143  19.453  0.00  0.00    +0.000 NA
ATOM     11  C   UNL     1       3.829   5.153  18.436  0.00  0.00    +0.000 A 
ATOM     12  C   UNL     1       4.768   6.181  18.323  0.00  0.00    +0.000 A 
ENDROOT
BRANCH   1  16
ATOM     13  C   UNL     1       8.331   8.883  17.565  0.00  0.00    +0.000 C 
ATOM     14  C   UNL     1       7.647   7.578  17.872  0.00  0.00    +0.000 C 
ATOM     15  O   UNL     1       8.119   6.811  18.705  0.00  0.00    +0.000 OA
ATOM     16  N   UNL     1       6.496   7.379  17.122  0.00  0.00    +0.000 N 
ATOM     17  H   UNL     1       6.327   8.022  16.359  0.00  0.00    +0.000 HD
ENDBRANCH   1  16
TORSDOF 1
ENDMDL
MODEL 4
REMARK VINA RESULT:      -6.6      2.147      5.834
REMARK  Name = 
REMARK  4 active torsions:
REMARK  status: ('A' for Active; 'I' for Inactive)
REMARK    1  A    between atoms: C_1  and  C_2
REMARK    2  A    between atoms: N_4  and  C_5
REMARK    3  A    between atoms: C_10  and  C_11
REMARK    4  A    between atoms: C_12  and  C_13
REMARK                            x       y       z     vdW  Elec       q    Type
REMARK                         _______ _______ _______ _____ _____    ______ ____
ROOT
ATOM      1  C   UNL     1       6.587   5.053  16.149  0.00  0.00    +0.000 A 
ATOM      2  C   UNL     1       7.286   4.940  17.347  0.00  0.00    +0.000 A 
ATOM      3  C   UNL     1       6.628   4.550  18.512  0.00  0.00    +0.000 A 
ATOM      4  C   UNL     1       5.279   4.250  18.505  0.00  0.00    +0.000 A 
ATOM      5  N   UNL     1       4.708   3.838  19.646  0.00  0.00    +0.000 NA
ATOM      6  C   UNL     1       3.396   3.497  19.602  0.00  0.00    +0.000 A 
ATOM      7  C   UNL     1       2.808   3.020  20.893  0.00  0.00    +0.000 C 
ATOM      8  C   UNL     1       2.670   3.578  18.415  0.00  0.00    +0.000 A 
ATOM      9  C   UNL     1       1.244   3.129  18.299  0.00  0.00    +0.000 C 
ATOM     10  N   UNL     1       3.239   4.036  17.263  0.00  0.00    +0.000 NA
ATOM     11  C   UNL     1       4.548   4.368  17.304  0.00  0.00    +0.000 A 
ATOM     12  C   UNL     1       5.208   4.801  16.152  0.00  0.00    +0.000 A 
ENDROOT
BRANCH   1  16
ATOM     13  C   UNL     1       7.902   5.313  12.619  0.00  0.00    +0.000 C 
ATOM     14  C   UNL     1       7.077   4.719  13.729  0.00  0.00    +0.000 C 
ATOM     15  O   UNL     1       6.372   3.737  13.520  0.00  0.00    +0.000 OA
ATOM     16  N   UNL     1       7.211   5.402  14.930  0.00  0.00    +0.000 N 
ATOM     17  H   UNL     1       7.697   6.290  14.904  0.00  0.00    +0.000 HD
ENDBRANCH   1  16
TORSDOF 1
ENDMDL
MODEL 5
REMARK VINA RESULT:      -6.5      2.515      6.003
REMARK  Name = 
REMARK  4 active torsions:
REMARK  status: ('A' for Active; 'I' for Inactive)
REMARK    1  A    between atoms: C_1  and  C_2
REMARK    2  A    between atoms: N_4  and  C_5
REMARK    3  A    between atoms: C_10  and  C_11
REMARK    4  A    between atoms: C_12  and  C_13
REMARK                            x       y       z     vdW  Elec       q    Type
REMARK                         _______ _______ _______ _____ _____    ______ ____
ROOT
ATOM      1  C   UNL     1       5.607   4.620  15.165  0.00  0.00    +0.000 A 
ATOM      2  C   UNL     1       5.471   5.972  15.464  0.00  0.00    +0.000 A 
ATOM      3  C   UNL     1       4.702   6.379  16.553  0.00  0.00    +0.000 A 
ATOM      4  C   UNL     1       4.074   5.456  17.370  0.00  0.00    +0.000 A 
ATOM      5  N   UNL     1       3.384   5.903  18.428  0.00  0.00    +0.000 NA
ATOM      6  C   UNL     1       2.823   4.977  19.246  0.00  0.00    +0.000 A 
ATOM      7  C   UNL     1       2.083   5.521  20.428  0.00  0.00    +0.000 C 
ATOM      8  C   UNL     1       2.956   3.613  18.988  0.00  0.00    +0.000 A 
ATOM      9  C   UNL     1       2.429   2.554  19.910  0.00  0.00    +0.000 C 
ATOM     10  N   UNL     1       3.624   3.160  17.888  0.00  0.00    +0.000 NA
ATOM     11  C   UNL     1       4.190   4.081  17.079  0.00  0.00    +0.000 A 
ATOM     12  C   UNL     1       4.927   3.687  15.960  0.00  0.00    +0.000 A 
ENDROOT
BRANCH   1  16
ATOM     13  C   UNL     1       7.036   3.218  11.964  0.00  0.00    +0.000 C 
ATOM     14  C   UNL     1       5.938   3.694  12.876  0.00  0.00    +0.000 C 
ATOM     15  O   UNL     1       4.768   3.666  12.506  0.00  0.00    +0.000 OA
ATOM     16  N   UNL     1       6.407   4.149  14.100  0.00  0.00    +0.000 N 
ATOM     17  H   UNL     1       7.409   4.266  14.195  0.00  0.00    +0.000 HD
ENDBRANCH   1  16
TORSDOF 1
ENDMDL
MODEL 6
REMARK VINA RESULT:      -6.4      2.304      5.982
REMARK  Name = 
REMARK  4 active torsions:
REMARK  status: ('A' for Active; 'I' for Inactive)
REMARK    1  A    between atoms: C_1  and  C_2
REMARK    2  A    between atoms: N_4  and  C_5
REMARK    3  A    between atoms: C_10  and  C_11
REMARK    4  A    between atoms: C_12  and  C_13
REMARK                            x       y       z     vdW  Elec       q    Type
REMARK                         _______ _______ _______ _____ _____    ______ ____
ROOT
ATOM      1  C   UNL     1       5.077   5.599  15.788  0.00  0.00    +0.000 A 
ATOM      2  C   UNL     1       4.865   6.745  16.548  0.00  0.00    +0.000 A 
ATOM      3  C   UNL     1       4.026   6.707  17.660  0.00  0.00    +0.000 A 
ATOM      4  C   UNL     1       3.401   5.535  18.045  0.00  0.00    +0.000 A 
ATOM      5  N   UNL     1       2.640   5.548  19.148  0.00  0.00    +0.000 NA
ATOM      6  C   UNL     1       2.082   4.374  19.537  0.00  0.00    +0.000 A 
ATOM      7  C   UNL     1       1.260   4.431  20.786  0.00  0.00    +0.000 C 
ATOM      8  C   UNL     1       2.289   3.202  18.811  0.00  0.00    +0.000 A 
ATOM      9  C   UNL     1       1.766   1.867  19.250  0.00  0.00    +0.000 C 
ATOM     10  N   UNL     1       3.030   3.197  17.665  0.00  0.00    +0.000 NA
ATOM     11  C   UNL     1       3.593   4.364  17.283  0.00  0.00    +0.000 A 
ATOM     12  C   UNL     1       4.402   4.424  16.146  0.00  0.00    +0.000 A 
ENDROOT
BRANCH   1  16
ATOM     13  C   UNL     1       7.940   5.230  13.354  0.00  0.00    +0.000 C 
ATOM     14  C   UNL     1       7.250   5.085  14.684  0.00  0.00    +0.000 C 
ATOM     15  O   UNL     1       7.834   4.570  15.632  0.00  0.00    +0.000 OA
ATOM     16  N   UNL     1       5.950   5.569  14.677  0.00  0.00    +0.000 N 
ATOM     17  H   UNL     1       5.553   5.810  13.777  0.00  0.00    +0.000 HD
ENDBRANCH   1  16
TORSDOF 1
ENDMDL
MODEL 7
REMARK VINA RESULT:      -6.3      2.269      6.108
REMARK  Name = 
REMARK  4 active torsions:
REMARK  status: ('A' for Active; 'I' for Inactive)
REMARK    1  A    between atoms: C_1  and  C_2
REMARK    2  A    between atoms: N_4  and  C_5
REMARK    3  A    between atoms: C_10  and  C_11
REMARK    4  A    between atoms: C_12  and  C_13
REMARK                            x       y       z     vdW  Elec       q    Type
REMARK                         _______ _______ _______ _____ _____    ______ ____
ROOT
ATOM      1  C   UNL     1       5.847   4.225  16.817  0.00  0.00    +0.000 A 
ATOM      2  C   UNL     1       6.316   4.674  18.048  0.00  0.00    +0.000 A 
ATOM      3  C   UNL     1       5.511   4.586  19.182  0.00  0.00    +0.000 A 
ATOM      4  C   UNL     1       4.243   4.039  19.120  0.00  0.00    +0.000 A 
ATOM      5  N   UNL     1       3.532   3.940  20.251  0.00  0.00    +0.000 NA
ATOM      6  C   UNL     1       2.313   3.349  20.174  0.00  0.00    +0.000 A 
ATOM      7  C   UNL     1       1.564   3.239  21.466  0.00  0.00    +0.000 C 
ATOM      8  C   UNL     1       1.820   2.869  18.961  0.00  0.00    +0.000 A 
ATOM      9  C   UNL     1       0.519   2.132  18.844  0.00  0.00    +0.000 C 
ATOM     10  N   UNL     1       2.526   3.006  17.803  0.00  0.00    +0.000 NA
ATOM     11  C   UNL     1       3.743   3.587  17.880  0.00  0.00    +0.000 A 
ATOM     12  C   UNL     1       4.542   3.719  16.741  0.00  0.00    +0.000 A 
ENDROOT
BRANCH   1  16
ATOM     13  C   UNL     1       7.495   4.932  13.494  0.00  0.00    +0.000 C 
ATOM     14  C   UNL     1       6.554   5.202  14.637  0.00  0.00    +0.000 C 
ATOM     15  O   UNL     1       5.826   6.190  14.620  0.00  0.00    +0.000 OA
ATOM     16  N   UNL     1       6.634   4.250  15.643  0.00  0.00    +0.000 N 
ATOM     17  H   UNL     1       7.398   3.588  15.592  0.00  0.00    +0.000 HD
ENDBRANCH   1  16
TORSDOF 1
ENDMDL
MODEL 8
REMARK VINA RESULT:      -6.2      4.584      5.961
REMARK  Name = 
REMARK  4 active torsions:
REMARK  status: ('A' for Active; 'I' for Inactive)
REMARK    1  A    between atoms: C_1  and  C_2
REMARK    2  A    between atoms: N_4  and  C_5
REMARK    3  A    between atoms: C_10  and  C_11
REMARK    4  A    between atoms: C_12  and  C_13
REMARK                            x       y       z     vdW  Elec       q    Type
REMARK                         _______ _______ _______ _____ _____    ______ ____
ROOT
ATOM      1  C   UNL     1       1.326   7.971  20.340  0.00  0.00    +0.000 A 
ATOM      2  C   UNL     1       1.711   8.599  19.159  0.00  0.00    +0.000 A 
ATOM      3  C   UNL     1       2.544   7.945  18.254  0.00  0.00    +0.000 A 
ATOM      4  C   UNL     1       2.992   6.659  18.493  0.00  0.00    +0.000 A 
ATOM      5  N   UNL     1       3.755   6.064  17.567  0.00  0.00    +0.000 NA
ATOM      6  C   UNL     1       4.136   4.782  17.799  0.00  0.00    +0.000 A 
ATOM      7  C   UNL     1       4.968   4.150  16.727  0.00  0.00    +0.000 C 
ATOM      8  C   UNL     1       3.752   4.116  18.961  0.00  0.00    +0.000 A 
ATOM      9  C   UNL     1       4.075   2.674  19.219  0.00  0.00    +0.000 C 
ATOM     10  N   UNL     1       3.009   4.735  19.923  0.00  0.00    +0.000 NA
ATOM     11  C   UNL     1       2.622   6.007  19.689  0.00  0.00    +0.000 A 
ATOM     12  C   UNL     1       1.822   6.688  20.609  0.00  0.00    +0.000 A 
ENDROOT
BRANCH   1  16
ATOM     13  C   UNL     1      -0.336   9.745  23.230  0.00  0.00    +0.000 C 
ATOM     14  C   UNL     1       0.832   9.262  22.412  0.00  0.00    +0.000 C 
ATOM     15  O   UNL     1       1.981   9.504  22.770  0.00  0.00    +0.000 OA
ATOM     16  N   UNL     1       0.449   8.569  21.273  0.00  0.00    +0.000 N 
ATOM     17  H   UNL     1      -0.533   8.596  21.026  0.00  0.00    +0.000 HD
ENDBRANCH   1  16
TORSDOF 1
ENDMDL
MODEL 9
REMARK VINA RESULT:      -6.2      2.199      6.040
REMARK  Name = 
REMARK  4 active torsions:
REMARK  status: ('A' for Active; 'I' for Inactive)
REMARK    1  A    between atoms: C_1  and  C_2
REMARK    2  A    between atoms: N_4  and  C_5
REMARK    3  A    between atoms: C_10  and  C_11
REMARK    4  A    between atoms: C_12  and  C_13
REMARK                            x       y       z     vdW  Elec       q    Type
REMARK                         _______ _______ _______ _____ _____    ______ ____
ROOT
ATOM      1  C   UNL     1       5.788   5.654  15.918  0.00  0.00    +0.000 A 
ATOM      2  C   UNL     1       5.004   6.766  16.209  0.00  0.00    +0.000 A 
ATOM      3  C   UNL     1       4.105   6.733  17.274  0.00  0.00    +0.000 A 
ATOM      4  C   UNL     1       3.983   5.612  18.073  0.00  0.00    +0.000 A 
ATOM      5  N   UNL     1       3.135   5.654  19.110  0.00  0.00    +0.000 NA
ATOM      6  C   UNL     1       3.073   4.562  19.913  0.00  0.00    +0.000 A 
ATOM      7  C   UNL     1       2.130   4.662  21.071  0.00  0.00    +0.000 C 
ATOM      8  C   UNL     1       3.860   3.438  19.663  0.00  0.00    +0.000 A 
ATOM      9  C   UNL     1       3.890   2.246  20.571  0.00  0.00    +0.000 C 
ATOM     10  N   UNL     1       4.693   3.380  18.584  0.00  0.00    +0.000 NA
ATOM     11  C   UNL     1       4.761   4.470  17.790  0.00  0.00    +0.000 A 
ATOM     12  C   UNL     1       5.627   4.498  16.694  0.00  0.00    +0.000 A 
ENDROOT
BRANCH   1  16
ATOM     13  C   UNL     1       7.923   4.997  12.873  0.00  0.00    +0.000 C 
ATOM     14  C   UNL     1       6.745   4.788  13.787  0.00  0.00    +0.000 C 
ATOM     15  O   UNL     1       5.902   3.936  13.526  0.00  0.00    +0.000 OA
ATOM     16  N   UNL     1       6.745   5.645  14.878  0.00  0.00    +0.000 N 
ATOM     17  H   UNL     1       7.416   6.404  14.867  0.00  0.00    +0.000 HD
ENDBRANCH   1  16
TORSDOF 1
ENDMDL
