MODEL 1
REMARK VINA RESULT:      -9.0      0.000      0.000
REMARK  Name = 
REMARK  7 active torsions:
REMARK  status: ('A' for Active; 'I' for Inactive)
REMARK    1  A    between atoms: C_1  and  C_2
REMARK    2  A    between atoms: C_2  and  C_12
REMARK    3  A    between atoms: N_3  and  C_4
REMARK    4  A    between atoms: C_4  and  C_5
REMARK    5  A    between atoms: C_5  and  C_6
REMARK    6  A    between atoms: C_13  and  O_14
REMARK    7  A    between atoms: C_16  and  C_17
REMARK                            x       y       z     vdW  Elec       q    Type
REMARK                         _______ _______ _______ _____ _____    ______ ____
ROOT
ATOM      1  C   UNL     1       6.412   5.784  17.079  0.00  0.00    +0.000 C 
ATOM      2  C   UNL     1       6.688   4.607  16.518  0.00  0.00    +0.000 C 
ATOM      3  O   UNL     1       5.667   3.975  15.815  0.00  0.00    +0.000 OA
ATOM      4  C   UNL     1       4.455   4.670  16.181  0.00  0.00    +0.000 C 
ATOM      5  C   UNL     1       5.008   5.963  16.715  0.00  0.00    +0.000 C 
ATOM      6  O   UNL     1       4.383   7.004  16.858  0.00  0.00    +0.000 OA
ENDROOT
BRANCH   4   7
ATOM      7  C   UNL     1       3.649   3.907  17.218  0.00  0.00    +0.000 A 
ATOM      8  C   UNL     1       2.396   4.367  17.657  0.00  0.00    +0.000 A 
ATOM      9  C   UNL     1       1.667   3.663  18.614  0.00  0.00    +0.000 A 
ATOM     10  C   UNL     1       2.179   2.486  19.151  0.00  0.00    +0.000 A 
ATOM     11  C   UNL     1       3.413   2.004  18.717  0.00  0.00    +0.000 A 
ATOM     12  C   UNL     1       4.143   2.706  17.755  0.00  0.00    +0.000 A 
ENDBRANCH   4   7
BRANCH   1  14
ATOM     13  C   UNL     1       7.774   6.020  19.211  0.00  0.00    +0.000 C 
ATOM     14  C   UNL     1       7.277   6.640  17.920  0.00  0.00    +0.000 C 
ATOM     15  N   UNL     1       7.565   7.841  17.504  0.00  0.00    +0.000 NA
BRANCH  15  16
ATOM     16  C   UNL     1       8.473   8.639  18.345  0.00  0.00    +0.000 C 
BRANCH  16  17
ATOM     17  C   UNL     1       8.454  10.108  17.915  0.00  0.00    +0.000 C 
BRANCH  17  18
ATOM     18  C   UNL     1       9.571  10.882  18.581  0.00  0.00    +0.000 A 
ATOM     19  C   UNL     1      10.632  11.401  17.826  0.00  0.00    +0.000 A 
ATOM     20  C   UNL     1      11.682  12.078  18.450  0.00  0.00    +0.000 A 
ATOM     21  C   UNL     1      11.685  12.241  19.834  0.00  0.00    +0.000 A 
ATOM     22  C   UNL     1      10.637  11.727  20.594  0.00  0.00    +0.000 A 
ATOM     23  C   UNL     1       9.588  11.047  19.972  0.00  0.00    +0.000 A 
ENDBRANCH  17  18
ENDBRANCH  16  17
ENDBRANCH  15  16
ENDBRANCH   1  14
BRANCH   2  24
ATOM     24  O   UNL     1       7.897   3.967  16.613  0.00  0.00    +0.000 OA
ATOM     25  H   UNL     1       8.132   3.930  17.564  0.00  0.00    +0.000 HD
ENDBRANCH   2  24
TORSDOF 6
ENDMDL
MODEL 2
REMARK VINA RESULT:      -9.0      0.074      1.393
REMARK  Name = 
REMARK  7 active torsions:
REMARK  status: ('A' for Active; 'I' for Inactive)
REMARK    1  A    between atoms: C_1  and  C_2
REMARK    2  A    between atoms: C_2  and  C_12
REMARK    3  A    between atoms: N_3  and  C_4
REMARK    4  A    between atoms: C_4  and  C_5
REMARK    5  A    between atoms: C_5  and  C_6
REMARK    6  A    between atoms: C_13  and  O_14
REMARK    7  A    between atoms: C_16  and  C_17
REMARK                            x       y       z     vdW  Elec       q    Type
REMARK                         _______ _______ _______ _____ _____    ______ ____
ROOT
ATOM      1  C   UNL     1       6.408   5.781  17.090  0.00  0.00    +0.000 C 
ATOM      2  C   UNL     1       6.672   4.605  16.521  0.00  0.00    +0.000 C 
ATOM      3  O   UNL     1       5.643   3.987  15.816  0.00  0.00    +0.000 OA
ATOM      4  C   UNL     1       4.439   4.693  16.188  0.00  0.00    +0.000 C 
ATOM      5  C   UNL     1       5.006   5.976  16.729  0.00  0.00    +0.000 C 
ATOM      6  O   UNL     1       4.391   7.022  16.880  0.00  0.00    +0.000 OA
ENDROOT
BRANCH   4   7
ATOM      7  C   UNL     1       3.627   3.930  17.220  0.00  0.00    +0.000 A 
ATOM      8  C   UNL     1       4.055   2.687  17.717  0.00  0.00    +0.000 A 
ATOM      9  C   UNL     1       3.298   1.992  18.659  0.00  0.00    +0.000 A 
ATOM     10  C   UNL     1       2.100   2.526  19.121  0.00  0.00    +0.000 A 
ATOM     11  C   UNL     1       1.666   3.765  18.653  0.00  0.00    +0.000 A 
ATOM     12  C   UNL     1       2.424   4.466  17.711  0.00  0.00    +0.000 A 
ENDBRANCH   4   7
BRANCH   1  14
ATOM     13  C   UNL     1       7.747   6.002  19.238  0.00  0.00    +0.000 C 
ATOM     14  C   UNL     1       7.283   6.623  17.935  0.00  0.00    +0.000 C 
ATOM     15  N   UNL     1       7.606   7.813  17.512  0.00  0.00    +0.000 NA
BRANCH  15  16
ATOM     16  C   UNL     1       8.522   8.595  18.358  0.00  0.00    +0.000 C 
BRANCH  16  17
ATOM     17  C   UNL     1       8.436  10.084  18.013  0.00  0.00    +0.000 C 
BRANCH  17  18
ATOM     18  C   UNL     1       9.577  10.853  18.641  0.00  0.00    +0.000 A 
ATOM     19  C   UNL     1       9.624  11.062  20.027  0.00  0.00    +0.000 A 
ATOM     20  C   UNL     1      10.658  11.807  20.597  0.00  0.00    +0.000 A 
ATOM     21  C   UNL     1      11.653  12.356  19.790  0.00  0.00    +0.000 A 
ATOM     22  C   UNL     1      11.614  12.158  18.412  0.00  0.00    +0.000 A 
ATOM     23  C   UNL     1      10.581  11.414  17.840  0.00  0.00    +0.000 A 
ENDBRANCH  17  18
ENDBRANCH  16  17
ENDBRANCH  15  16
ENDBRANCH   1  14
BRANCH   2  24
ATOM     24  O   UNL     1       7.875   3.953  16.609  0.00  0.00    +0.000 OA
ATOM     25  H   UNL     1       8.464   4.505  17.166  0.00  0.00    +0.000 HD
ENDBRANCH   2  24
TORSDOF 6
ENDMDL
MODEL 3
REMARK VINA RESULT:      -8.6      1.150      1.593
REMARK  Name = 
REMARK  7 active torsions:
REMARK  status: ('A' for Active; 'I' for Inactive)
REMARK    1  A    between atoms: C_1  and  C_2
REMARK    2  A    between atoms: C_2  and  C_12
REMARK    3  A    between atoms: N_3  and  C_4
REMARK    4  A    between atoms: C_4  and  C_5
REMARK    5  A    between atoms: C_5  and  C_6
REMARK    6  A    between atoms: C_13  and  O_14
REMARK    7  A    between atoms: C_16  and  C_17
REMARK                            x       y       z     vdW  Elec       q    Type
REMARK                         _______ _______ _______ _____ _____    ______ ____
ROOT
ATOM      1  C   UNL     1       5.744   5.921  17.486  0.00  0.00    +0.000 C 
ATOM      2  C   UNL     1       5.681   4.679  17.009  0.00  0.00    +0.000 C 
ATOM      3  O   UNL     1       4.417   4.144  16.773  0.00  0.00    +0.000 OA
ATOM      4  C   UNL     1       3.491   5.029  17.441  0.00  0.00    +0.000 C 
ATOM      5  C   UNL     1       4.329   6.268  17.599  0.00  0.00    +0.000 C 
ATOM      6  O   UNL     1       3.907   7.393  17.819  0.00  0.00    +0.000 OA
ENDROOT
BRANCH   4   7
ATOM      7  C   UNL     1       3.023   4.466  18.772  0.00  0.00    +0.000 A 
ATOM      8  C   UNL     1       2.102   5.158  19.577  0.00  0.00    +0.000 A 
ATOM      9  C   UNL     1       1.685   4.636  20.800  0.00  0.00    +0.000 A 
ATOM     10  C   UNL     1       2.182   3.414  21.241  0.00  0.00    +0.000 A 
ATOM     11  C   UNL     1       3.083   2.704  20.450  0.00  0.00    +0.000 A 
ATOM     12  C   UNL     1       3.500   3.223  19.222  0.00  0.00    +0.000 A 
ENDBRANCH   4   7
BRANCH   1  14
ATOM     13  C   UNL     1       7.800   6.108  18.966  0.00  0.00    +0.000 C 
ATOM     14  C   UNL     1       6.935   6.708  17.876  0.00  0.00    +0.000 C 
ATOM     15  N   UNL     1       7.169   7.835  17.266  0.00  0.00    +0.000 NA
BRANCH  15  16
ATOM     16  C   UNL     1       8.393   8.559  17.648  0.00  0.00    +0.000 C 
BRANCH  16  17
ATOM     17  C   UNL     1       8.060   9.988  18.085  0.00  0.00    +0.000 C 
BRANCH  17  18
ATOM     18  C   UNL     1       9.277  10.673  18.668  0.00  0.00    +0.000 A 
ATOM     19  C   UNL     1       9.382  10.896  20.048  0.00  0.00    +0.000 A 
ATOM     20  C   UNL     1      10.487  11.566  20.576  0.00  0.00    +0.000 A 
ATOM     21  C   UNL     1      11.498  12.024  19.732  0.00  0.00    +0.000 A 
ATOM     22  C   UNL     1      11.402  11.810  18.359  0.00  0.00    +0.000 A 
ATOM     23  C   UNL     1      10.297  11.142  17.829  0.00  0.00    +0.000 A 
ENDBRANCH  17  18
ENDBRANCH  16  17
ENDBRANCH  15  16
ENDBRANCH   1  14
BRANCH   2  24
ATOM     24  O   UNL     1       6.771   3.884  16.765  0.00  0.00    +0.000 OA
ATOM     25  H   UNL     1       6.869   3.816  15.791  0.00  0.00    +0.000 HD
ENDBRANCH   2  24
TORSDOF 6
ENDMDL
MODEL 4
REMARK VINA RESULT:      -8.5      0.481      1.093
REMARK  Name = 
REMARK  7 active torsions:
REMARK  status: ('A' for Active; 'I' for Inactive)
REMARK    1  A    between atoms: C_1  and  C_2
REMARK    2  A    between atoms: C_2  and  C_12
REMARK    3  A    between atoms: N_3  and  C_4
REMARK    4  A    between atoms: C_4  and  C_5
REMARK    5  A    between atoms: C_5  and  C_6
REMARK    6  A    between atoms: C_13  and  O_14
REMARK    7  A    between atoms: C_16  and  C_17
REMARK                            x       y       z     vdW  Elec       q    Type
REMARK                         _______ _______ _______ _____ _____    ______ ____
ROOT
ATOM      1  C   UNL     1       6.486   5.820  17.086  0.00  0.00    +0.000 C 
ATOM      2  C   UNL     1       6.767   4.606  16.614  0.00  0.00    +0.000 C 
ATOM      3  O   UNL     1       5.747   3.916  15.966  0.00  0.00    +0.000 OA
ATOM      4  C   UNL     1       4.532   4.630  16.284  0.00  0.00    +0.000 C 
ATOM      5  C   UNL     1       5.079   5.962  16.716  0.00  0.00    +0.000 C 
ATOM      6  O   UNL     1       4.448   7.007  16.782  0.00  0.00    +0.000 OA
ENDROOT
BRANCH   4   7
ATOM      7  C   UNL     1       3.735   3.941  17.379  0.00  0.00    +0.000 A 
ATOM      8  C   UNL     1       4.257   2.844  18.085  0.00  0.00    +0.000 A 
ATOM      9  C   UNL     1       3.515   2.215  19.083  0.00  0.00    +0.000 A 
ATOM     10  C   UNL     1       2.237   2.670  19.392  0.00  0.00    +0.000 A 
ATOM     11  C   UNL     1       1.708   3.767  18.714  0.00  0.00    +0.000 A 
ATOM     12  C   UNL     1       2.451   4.401  17.715  0.00  0.00    +0.000 A 
ENDBRANCH   4   7
BRANCH   1  14
ATOM     13  C   UNL     1       7.963   6.178  19.121  0.00  0.00    +0.000 C 
ATOM     14  C   UNL     1       7.349   6.742  17.855  0.00  0.00    +0.000 C 
ATOM     15  N   UNL     1       7.535   7.950  17.403  0.00  0.00    +0.000 NA
BRANCH  15  16
ATOM     16  C   UNL     1       8.445   8.817  18.171  0.00  0.00    +0.000 C 
BRANCH  16  17
ATOM     17  C   UNL     1       8.175  10.292  17.860  0.00  0.00    +0.000 C 
BRANCH  17  18
ATOM     18  C   UNL     1       9.182  11.184  18.550  0.00  0.00    +0.000 A 
ATOM     19  C   UNL     1       9.715  12.304  17.896  0.00  0.00    +0.000 A 
ATOM     20  C   UNL     1      10.675  13.102  18.521  0.00  0.00    +0.000 A 
ATOM     21  C   UNL     1      11.118  12.787  19.805  0.00  0.00    +0.000 A 
ATOM     22  C   UNL     1      10.598  11.674  20.463  0.00  0.00    +0.000 A 
ATOM     23  C   UNL     1       9.639  10.875  19.839  0.00  0.00    +0.000 A 
ENDBRANCH  17  18
ENDBRANCH  16  17
ENDBRANCH  15  16
ENDBRANCH   1  14
BRANCH   2  24
ATOM     24  O   UNL     1       7.981   3.983  16.751  0.00  0.00    +0.000 OA
ATOM     25  H   UNL     1       8.066   3.347  16.008  0.00  0.00    +0.000 HD
ENDBRANCH   2  24
TORSDOF 6
ENDMDL
MODEL 5
REMARK VINA RESULT:      -8.4      1.136      1.425
REMARK  Name = 
REMARK  7 active torsions:
REMARK  status: ('A' for Active; 'I' for Inactive)
REMARK    1  A    between atoms: C_1  and  C_2
REMARK    2  A    between atoms: C_2  and  C_12
REMARK    3  A    between atoms: N_3  and  C_4
REMARK    4  A    between atoms: C_4  and  C_5
REMARK    5  A    between atoms: C_5  and  C_6
REMARK    6  A    between atoms: C_13  and  O_14
REMARK    7  A    between atoms: C_16  and  C_17
REMARK                            x       y       z     vdW  Elec       q    Type
REMARK                         _______ _______ _______ _____ _____    ______ ____
ROOT
ATOM      1  C   UNL     1       5.701   5.861  17.467  0.00  0.00    +0.000 C 
ATOM      2  C   UNL     1       5.664   4.608  17.014  0.00  0.00    +0.000 C 
ATOM      3  O   UNL     1       4.418   4.076  16.698  0.00  0.00    +0.000 OA
ATOM      4  C   UNL     1       3.451   4.980  17.276  0.00  0.00    +0.000 C 
ATOM      5  C   UNL     1       4.284   6.217  17.468  0.00  0.00    +0.000 C 
ATOM      6  O   UNL     1       3.854   7.350  17.632  0.00  0.00    +0.000 OA
ENDROOT
BRANCH   4   7
ATOM      7  C   UNL     1       2.882   4.449  18.581  0.00  0.00    +0.000 A 
ATOM      8  C   UNL     1       2.198   3.222  18.637  0.00  0.00    +0.000 A 
ATOM      9  C   UNL     1       1.674   2.748  19.838  0.00  0.00    +0.000 A 
ATOM     10  C   UNL     1       1.822   3.491  21.004  0.00  0.00    +0.000 A 
ATOM     11  C   UNL     1       2.511   4.703  20.973  0.00  0.00    +0.000 A 
ATOM     12  C   UNL     1       3.041   5.179  19.771  0.00  0.00    +0.000 A 
ENDBRANCH   4   7
BRANCH   1  14
ATOM     13  C   UNL     1       7.612   6.097  19.125  0.00  0.00    +0.000 C 
ATOM     14  C   UNL     1       6.865   6.650  17.927  0.00  0.00    +0.000 C 
ATOM     15  N   UNL     1       7.177   7.739  17.284  0.00  0.00    +0.000 NA
BRANCH  15  16
ATOM     16  C   UNL     1       8.374   8.464  17.742  0.00  0.00    +0.000 C 
BRANCH  16  17
ATOM     17  C   UNL     1       8.042   9.933  18.018  0.00  0.00    +0.000 C 
BRANCH  17  18
ATOM     18  C   UNL     1       9.221  10.648  18.640  0.00  0.00    +0.000 A 
ATOM     19  C   UNL     1      10.296  11.079  17.849  0.00  0.00    +0.000 A 
ATOM     20  C   UNL     1      11.401  11.702  18.433  0.00  0.00    +0.000 A 
ATOM     21  C   UNL     1      11.448  11.896  19.813  0.00  0.00    +0.000 A 
ATOM     22  C   UNL     1      10.386  11.468  20.608  0.00  0.00    +0.000 A 
ATOM     23  C   UNL     1       9.282  10.844  20.026  0.00  0.00    +0.000 A 
ENDBRANCH  17  18
ENDBRANCH  16  17
ENDBRANCH  15  16
ENDBRANCH   1  14
BRANCH   2  24
ATOM     24  O   UNL     1       6.764   3.803  16.869  0.00  0.00    +0.000 OA
ATOM     25  H   UNL     1       6.449   2.938  16.530  0.00  0.00    +0.000 HD
ENDBRANCH   2  24
TORSDOF 6
ENDMDL
MODEL 6
REMARK VINA RESULT:      -8.3      2.178      3.993
REMARK  Name = 
REMARK  7 active torsions:
REMARK  status: ('A' for Active; 'I' for Inactive)
REMARK    1  A    between atoms: C_1  and  C_2
REMARK    2  A    between atoms: C_2  and  C_12
REMARK    3  A    between atoms: N_3  and  C_4
REMARK    4  A    between atoms: C_4  and  C_5
REMARK    5  A    between atoms: C_5  and  C_6
REMARK    6  A    between atoms: C_13  and  O_14
REMARK    7  A    between atoms: C_16  and  C_17
REMARK                            x       y       z     vdW  Elec       q    Type
REMARK                         _______ _______ _______ _____ _____    ______ ____
ROOT
ATOM      1  C   UNL     1       6.696   5.894  17.266  0.00  0.00    +0.000 C 
ATOM      2  C   UNL     1       5.446   6.008  16.820  0.00  0.00    +0.000 C 
ATOM      3  O   UNL     1       4.914   4.930  16.117  0.00  0.00    +0.000 OA
ATOM      4  C   UNL     1       6.039   4.083  15.794  0.00  0.00    +0.000 C 
ATOM      5  C   UNL     1       7.061   4.563  16.788  0.00  0.00    +0.000 C 
ATOM      6  O   UNL     1       8.066   3.956  17.129  0.00  0.00    +0.000 OA
ENDROOT
BRANCH   4   7
ATOM      7  C   UNL     1       6.493   4.261  14.356  0.00  0.00    +0.000 A 
ATOM      8  C   UNL     1       7.494   5.186  14.012  0.00  0.00    +0.000 A 
ATOM      9  C   UNL     1       7.898   5.347  12.688  0.00  0.00    +0.000 A 
ATOM     10  C   UNL     1       7.307   4.588  11.683  0.00  0.00    +0.000 A 
ATOM     11  C   UNL     1       6.324   3.654  12.005  0.00  0.00    +0.000 A 
ATOM     12  C   UNL     1       5.920   3.488  13.332  0.00  0.00    +0.000 A 
ENDBRANCH   4   7
BRANCH   1  14
ATOM     13  C   UNL     1       8.167   6.416  19.271  0.00  0.00    +0.000 C 
ATOM     14  C   UNL     1       7.522   6.890  17.983  0.00  0.00    +0.000 C 
ATOM     15  N   UNL     1       7.653   8.082  17.472  0.00  0.00    +0.000 NA
BRANCH  15  16
ATOM     16  C   UNL     1       8.527   9.024  18.190  0.00  0.00    +0.000 C 
BRANCH  16  17
ATOM     17  C   UNL     1       8.210  10.467  17.788  0.00  0.00    +0.000 C 
BRANCH  17  18
ATOM     18  C   UNL     1       9.288  11.412  18.270  0.00  0.00    +0.000 A 
ATOM     19  C   UNL     1      10.082  11.089  19.380  0.00  0.00    +0.000 A 
ATOM     20  C   UNL     1      11.048  11.984  19.846  0.00  0.00    +0.000 A 
ATOM     21  C   UNL     1      11.229  13.212  19.212  0.00  0.00    +0.000 A 
ATOM     22  C   UNL     1      10.444  13.544  18.110  0.00  0.00    +0.000 A 
ATOM     23  C   UNL     1       9.477  12.652  17.643  0.00  0.00    +0.000 A 
ENDBRANCH  17  18
ENDBRANCH  16  17
ENDBRANCH  15  16
ENDBRANCH   1  14
BRANCH   2  24
ATOM     24  O   UNL     1       4.663   7.122  16.980  0.00  0.00    +0.000 OA
ATOM     25  H   UNL     1       3.846   6.838  17.443  0.00  0.00    +0.000 HD
ENDBRANCH   2  24
TORSDOF 6
ENDMDL
MODEL 7
REMARK VINA RESULT:      -8.2      2.170      3.903
REMARK  Name = 
REMARK  7 active torsions:
REMARK  status: ('A' for Active; 'I' for Inactive)
REMARK    1  A    between atoms: C_1  and  C_2
REMARK    2  A    between atoms: C_2  and  C_12
REMARK    3  A    between atoms: N_3  and  C_4
REMARK    4  A    between atoms: C_4  and  C_5
REMARK    5  A    between atoms: C_5  and  C_6
REMARK    6  A    between atoms: C_13  and  O_14
REMARK    7  A    between atoms: C_16  and  C_17
REMARK                            x       y       z     vdW  Elec       q    Type
REMARK                         _______ _______ _______ _____ _____    ______ ____
ROOT
ATOM      1  C   UNL     1       6.684   5.877  17.267  0.00  0.00    +0.000 C 
ATOM      2  C   UNL     1       5.436   5.998  16.819  0.00  0.00    +0.000 C 
ATOM      3  O   UNL     1       4.901   4.929  16.106  0.00  0.00    +0.000 OA
ATOM      4  C   UNL     1       6.024   4.080  15.780  0.00  0.00    +0.000 C 
ATOM      5  C   UNL     1       7.046   4.547  16.780  0.00  0.00    +0.000 C 
ATOM      6  O   UNL     1       8.047   3.934  17.119  0.00  0.00    +0.000 OA
ENDROOT
BRANCH   4   7
ATOM      7  C   UNL     1       6.482   4.267  14.344  0.00  0.00    +0.000 A 
ATOM      8  C   UNL     1       5.917   3.526  13.292  0.00  0.00    +0.000 A 
ATOM      9  C   UNL     1       6.350   3.699  11.978  0.00  0.00    +0.000 A 
ATOM     10  C   UNL     1       7.356   4.616  11.693  0.00  0.00    +0.000 A 
ATOM     11  C   UNL     1       7.919   5.372  12.720  0.00  0.00    +0.000 A 
ATOM     12  C   UNL     1       7.484   5.202  14.037  0.00  0.00    +0.000 A 
ENDBRANCH   4   7
BRANCH   1  14
ATOM     13  C   UNL     1       8.136   6.384  19.290  0.00  0.00    +0.000 C 
ATOM     14  C   UNL     1       7.513   6.864  17.994  0.00  0.00    +0.000 C 
ATOM     15  N   UNL     1       7.663   8.053  17.483  0.00  0.00    +0.000 NA
BRANCH  15  16
ATOM     16  C   UNL     1       8.540   8.986  18.211  0.00  0.00    +0.000 C 
BRANCH  16  17
ATOM     17  C   UNL     1       8.280  10.428  17.767  0.00  0.00    +0.000 C 
BRANCH  17  18
ATOM     18  C   UNL     1       9.287  11.374  18.382  0.00  0.00    +0.000 A 
ATOM     19  C   UNL     1       9.704  12.524  17.694  0.00  0.00    +0.000 A 
ATOM     20  C   UNL     1      10.664  13.372  18.248  0.00  0.00    +0.000 A 
ATOM     21  C   UNL     1      11.223  13.080  19.491  0.00  0.00    +0.000 A 
ATOM     22  C   UNL     1      10.819  11.939  20.181  0.00  0.00    +0.000 A 
ATOM     23  C   UNL     1       9.860  11.089  19.629  0.00  0.00    +0.000 A 
ENDBRANCH  17  18
ENDBRANCH  16  17
ENDBRANCH  15  16
ENDBRANCH   1  14
BRANCH   2  24
ATOM     24  O   UNL     1       4.657   7.114  16.985  0.00  0.00    +0.000 OA
ATOM     25  H   UNL     1       4.022   7.140  16.238  0.00  0.00    +0.000 HD
ENDBRANCH   2  24
TORSDOF 6
ENDMDL
MODEL 8
REMARK VINA RESULT:      -8.1      4.134      7.630
REMARK  Name = 
REMARK  7 active torsions:
REMARK  status: ('A' for Active; 'I' for Inactive)
REMARK    1  A    between atoms: C_1  and  C_2
REMARK    2  A    between atoms: C_2  and  C_12
REMARK    3  A    between atoms: N_3  and  C_4
REMARK    4  A    between atoms: C_4  and  C_5
REMARK    5  A    between atoms: C_5  and  C_6
REMARK    6  A    between atoms: C_13  and  O_14
REMARK    7  A    between atoms: C_16  and  C_17
REMARK                            x       y       z     vdW  Elec       q    Type
REMARK                         _______ _______ _______ _____ _____    ______ ____
ROOT
ATOM      1  C   UNL     1       5.393   5.732  17.680  0.00  0.00    +0.000 C 
ATOM      2  C   UNL     1       5.723   4.451  17.844  0.00  0.00    +0.000 C 
ATOM      3  O   UNL     1       6.934   4.025  17.307  0.00  0.00    +0.000 OA
ATOM      4  C   UNL     1       7.356   5.080  16.415  0.00  0.00    +0.000 C 
ATOM      5  C   UNL     1       6.533   6.235  16.917  0.00  0.00    +0.000 C 
ATOM      6  O   UNL     1       6.755   7.418  16.701  0.00  0.00    +0.000 OA
ENDROOT
BRANCH   4   7
ATOM      7  C   UNL     1       7.071   4.747  14.961  0.00  0.00    +0.000 A 
ATOM      8  C   UNL     1       6.038   3.866  14.600  0.00  0.00    +0.000 A 
ATOM      9  C   UNL     1       5.789   3.561  13.263  0.00  0.00    +0.000 A 
ATOM     10  C   UNL     1       6.570   4.130  12.262  0.00  0.00    +0.000 A 
ATOM     11  C   UNL     1       7.590   5.019  12.598  0.00  0.00    +0.000 A 
ATOM     12  C   UNL     1       7.838   5.329  13.938  0.00  0.00    +0.000 A 
ENDBRANCH   4   7
BRANCH   1  14
ATOM     13  C   UNL     1       3.528   7.336  17.048  0.00  0.00    +0.000 C 
ATOM     14  C   UNL     1       4.158   6.435  18.091  0.00  0.00    +0.000 C 
ATOM     15  N   UNL     1       3.692   6.233  19.291  0.00  0.00    +0.000 NA
BRANCH  15  16
ATOM     16  C   UNL     1       2.431   6.910  19.639  0.00  0.00    +0.000 C 
BRANCH  16  17
ATOM     17  C   UNL     1       1.619   6.064  20.622  0.00  0.00    +0.000 C 
BRANCH  17  18
ATOM     18  C   UNL     1       1.614   4.608  20.209  0.00  0.00    +0.000 A 
ATOM     19  C   UNL     1       1.957   3.602  21.124  0.00  0.00    +0.000 A 
ATOM     20  C   UNL     1       1.992   2.264  20.726  0.00  0.00    +0.000 A 
ATOM     21  C   UNL     1       1.688   1.916  19.411  0.00  0.00    +0.000 A 
ATOM     22  C   UNL     1       1.349   2.908  18.494  0.00  0.00    +0.000 A 
ATOM     23  C   UNL     1       1.316   4.246  18.888  0.00  0.00    +0.000 A 
ENDBRANCH  17  18
ENDBRANCH  16  17
ENDBRANCH  15  16
ENDBRANCH   1  14
BRANCH   2  24
ATOM     24  O   UNL     1       4.937   3.523  18.477  0.00  0.00    +0.000 OA
ATOM     25  H   UNL     1       5.323   3.374  19.367  0.00  0.00    +0.000 HD
ENDBRANCH   2  24
TORSDOF 6
ENDMDL
MODEL 9
REMARK VINA RESULT:      -7.9      5.021      7.484
REMARK  Name = 
REMARK  7 active torsions:
REMARK  status: ('A' for Active; 'I' for Inactive)
REMARK    1  A    between atoms: C_1  and  C_2
REMARK    2  A    between atoms: C_2  and  C_12
REMARK    3  A    between atoms: N_3  and  C_4
REMARK    4  A    between atoms: C_4  and  C_5
REMARK    5  A    between atoms: C_5  and  C_6
REMARK    6  A    between atoms: C_13  and  O_14
REMARK    7  A    between atoms: C_16  and  C_17
REMARK                            x       y       z     vdW  Elec       q    Type
REMARK                         _______ _______ _______ _____ _____    ______ ____
ROOT
ATOM      1  C   UNL     1       3.116   5.633  18.598  0.00  0.00    +0.000 C 
ATOM      2  C   UNL     1       2.552   4.621  17.940  0.00  0.00    +0.000 C 
ATOM      3  O   UNL     1       3.327   3.487  17.716  0.00  0.00    +0.000 OA
ATOM      4  C   UNL     1       4.686   3.882  18.007  0.00  0.00    +0.000 C 
ATOM      5  C   UNL     1       4.461   5.115  18.839  0.00  0.00    +0.000 C 
ATOM      6  O   UNL     1       5.280   5.634  19.583  0.00  0.00    +0.000 OA
ENDROOT
BRANCH   4   7
ATOM      7  C   UNL     1       5.480   4.165  16.744  0.00  0.00    +0.000 A 
ATOM      8  C   UNL     1       4.947   3.907  15.469  0.00  0.00    +0.000 A 
ATOM      9  C   UNL     1       5.687   4.164  14.316  0.00  0.00    +0.000 A 
ATOM     10  C   UNL     1       6.974   4.682  14.417  0.00  0.00    +0.000 A 
ATOM     11  C   UNL     1       7.516   4.960  15.671  0.00  0.00    +0.000 A 
ATOM     12  C   UNL     1       6.774   4.707  16.827  0.00  0.00    +0.000 A 
ENDBRANCH   4   7
BRANCH   1  14
ATOM     13  C   UNL     1       2.608   7.996  17.814  0.00  0.00    +0.000 C 
ATOM     14  C   UNL     1       2.553   6.962  18.922  0.00  0.00    +0.000 C 
ATOM     15  N   UNL     1       2.045   7.155  20.106  0.00  0.00    +0.000 NA
BRANCH  15  16
ATOM     16  C   UNL     1       1.447   8.475  20.367  0.00  0.00    +0.000 C 
BRANCH  16  17
ATOM     17  C   UNL     1       0.626   8.449  21.660  0.00  0.00    +0.000 C 
BRANCH  17  18
ATOM     18  C   UNL     1      -0.216   9.698  21.793  0.00  0.00    +0.000 A 
ATOM     19  C   UNL     1      -0.459  10.521  20.683  0.00  0.00    +0.000 A 
ATOM     20  C   UNL     1      -1.202  11.695  20.819  0.00  0.00    +0.000 A 
ATOM     21  C   UNL     1      -1.708  12.062  22.065  0.00  0.00    +0.000 A 
ATOM     22  C   UNL     1      -1.471  11.254  23.175  0.00  0.00    +0.000 A 
ATOM     23  C   UNL     1      -0.726  10.081  23.041  0.00  0.00    +0.000 A 
ENDBRANCH  17  18
ENDBRANCH  16  17
ENDBRANCH  15  16
ENDBRANCH   1  14
BRANCH   2  24
ATOM     24  O   UNL     1       1.272   4.634  17.446  0.00  0.00    +0.000 OA
ATOM     25  H   UNL     1       0.711   5.095  18.106  0.00  0.00    +0.000 HD
ENDBRANCH   2  24
TORSDOF 6
ENDMDL
