MODEL 1
REMARK VINA RESULT:      -9.8      0.000      0.000
REMARK  Name = 
REMARK  5 active torsions:
REMARK  status: ('A' for Active; 'I' for Inactive)
REMARK    1  A    between atoms: O_1  and  C_2
REMARK    2  A    between atoms: C_2  and  C_3
REMARK    3  A    between atoms: C_2  and  C_19
REMARK    4  A    between atoms: C_2  and  C_26
REMARK    5  A    between atoms: N_10  and  C_11
REMARK                            x       y       z     vdW  Elec       q    Type
REMARK                         _______ _______ _______ _____ _____    ______ ____
ROOT
ATOM      1  C   UNL     1       2.996   5.606  18.979  0.00  0.00    +0.000 A 
ATOM      2  C   UNL     1       2.212   5.690  20.147  0.00  0.00    +0.000 A 
ATOM      3  C   UNL     1       1.531   6.860  20.516  0.00  0.00    +0.000 A 
ATOM      4  C   UNL     1       1.633   7.972  19.665  0.00  0.00    +0.000 A 
ATOM      5  C   UNL     1       2.371   7.916  18.490  0.00  0.00    +0.000 A 
ATOM      6  C   UNL     1       2.123   9.148  17.852  0.00  0.00    +0.000 A 
ATOM      7  N   UNL     1       1.265   9.914  18.526  0.00  0.00    +0.000 NA
ATOM      8  N   UNL     1       1.056   9.238  19.686  0.00  0.00    +0.000 N 
ATOM      9  C   UNL     1       3.102   6.758  18.173  0.00  0.00    +0.000 A 
ENDROOT
BRANCH   8  10
ATOM     10  C   UNL     1       0.329   9.856  20.736  0.00  0.00    +0.000 A 
ATOM     11  C   UNL     1      -0.379  11.039  20.479  0.00  0.00    +0.000 A 
ATOM     12  C   UNL     1      -1.104  11.649  21.502  0.00  0.00    +0.000 A 
ATOM     13  C   UNL     1      -1.079  11.105  22.780  0.00  0.00    +0.000 A 
ATOM     14  F   UNL     1      -1.760  11.705  23.768  0.00  0.00    +0.000 F 
ATOM     15  C   UNL     1      -0.350   9.953  23.057  0.00  0.00    +0.000 A 
ATOM     16  C   UNL     1       0.348   9.316  22.033  0.00  0.00    +0.000 A 
ENDBRANCH   8  10
BRANCH   1  17
ATOM     17  C   UNL     1       3.669   4.248  18.631  0.00  0.00    +0.000 C 
BRANCH  17  18
ATOM     18  C   UNL     1       4.919   4.350  17.742  0.00  0.00    +0.000 A 
ATOM     19  C   UNL     1       4.900   4.036  16.370  0.00  0.00    +0.000 A 
ATOM     20  C   UNL     1       6.069   4.066  15.605  0.00  0.00    +0.000 A 
ATOM     21  C   UNL     1       7.282   4.419  16.191  0.00  0.00    +0.000 A 
ATOM     22  C   UNL     1       7.319   4.775  17.535  0.00  0.00    +0.000 A 
ATOM     23  C   UNL     1       6.147   4.756  18.287  0.00  0.00    +0.000 A 
ATOM     24  F   UNL     1       6.220   5.082  19.586  0.00  0.00    +0.000 F 
ENDBRANCH  17  18
BRANCH  17  25
ATOM     25  C   UNL     1       2.624   3.209  18.031  0.00  0.00    +0.000 C 
ATOM     26  F   UNL     1       1.775   2.751  18.992  0.00  0.00    +0.000 F 
ATOM     27  F   UNL     1       1.838   3.746  17.064  0.00  0.00    +0.000 F 
ATOM     28  F   UNL     1       3.202   2.107  17.490  0.00  0.00    +0.000 F 
ENDBRANCH  17  25
BRANCH  17  29
ATOM     29  O   UNL     1       4.145   3.763  19.926  0.00  0.00    +0.000 OA
ATOM     30  H   UNL     1       4.837   4.383  20.220  0.00  0.00    +0.000 HD
ENDBRANCH  17  29
ENDBRANCH   1  17
TORSDOF 5
ENDMDL
MODEL 2
REMARK VINA RESULT:      -9.7      0.097      1.145
REMARK  Name = 
REMARK  5 active torsions:
REMARK  status: ('A' for Active; 'I' for Inactive)
REMARK    1  A    between atoms: O_1  and  C_2
REMARK    2  A    between atoms: C_2  and  C_3
REMARK    3  A    between atoms: C_2  and  C_19
REMARK    4  A    between atoms: C_2  and  C_26
REMARK    5  A    between atoms: N_10  and  C_11
REMARK                            x       y       z     vdW  Elec       q    Type
REMARK                         _______ _______ _______ _____ _____    ______ ____
ROOT
ATOM      1  C   UNL     1       3.017   5.594  18.954  0.00  0.00    +0.000 A 
ATOM      2  C   UNL     1       2.256   5.690  20.136  0.00  0.00    +0.000 A 
ATOM      3  C   UNL     1       1.582   6.864  20.505  0.00  0.00    +0.000 A 
ATOM      4  C   UNL     1       1.667   7.967  19.641  0.00  0.00    +0.000 A 
ATOM      5  C   UNL     1       2.383   7.898  18.452  0.00  0.00    +0.000 A 
ATOM      6  C   UNL     1       2.122   9.123  17.806  0.00  0.00    +0.000 A 
ATOM      7  N   UNL     1       1.276   9.897  18.488  0.00  0.00    +0.000 NA
ATOM      8  N   UNL     1       1.090   9.233  19.659  0.00  0.00    +0.000 N 
ATOM      9  C   UNL     1       3.108   6.738  18.134  0.00  0.00    +0.000 A 
ENDROOT
BRANCH   8  10
ATOM     10  C   UNL     1       0.384   9.862  20.716  0.00  0.00    +0.000 A 
ATOM     11  C   UNL     1       0.233   9.191  21.939  0.00  0.00    +0.000 A 
ATOM     12  C   UNL     1      -0.452   9.804  22.987  0.00  0.00    +0.000 A 
ATOM     13  C   UNL     1      -1.021  11.056  22.796  0.00  0.00    +0.000 A 
ATOM     14  F   UNL     1      -1.698  11.635  23.798  0.00  0.00    +0.000 F 
ATOM     15  C   UNL     1      -0.911  11.717  21.576  0.00  0.00    +0.000 A 
ATOM     16  C   UNL     1      -0.198  11.128  20.534  0.00  0.00    +0.000 A 
ENDBRANCH   8  10
BRANCH   1  17
ATOM     17  C   UNL     1       3.684   4.232  18.609  0.00  0.00    +0.000 C 
BRANCH  17  18
ATOM     18  C   UNL     1       4.917   4.326  17.694  0.00  0.00    +0.000 A 
ATOM     19  C   UNL     1       4.869   4.004  16.324  0.00  0.00    +0.000 A 
ATOM     20  C   UNL     1       6.023   4.026  15.536  0.00  0.00    +0.000 A 
ATOM     21  C   UNL     1       7.249   4.377  16.096  0.00  0.00    +0.000 A 
ATOM     22  C   UNL     1       7.314   4.739  17.438  0.00  0.00    +0.000 A 
ATOM     23  C   UNL     1       6.157   4.729  18.213  0.00  0.00    +0.000 A 
ATOM     24  F   UNL     1       6.257   5.061  19.508  0.00  0.00    +0.000 F 
ENDBRANCH  17  18
BRANCH  17  25
ATOM     25  C   UNL     1       2.628   3.186  18.041  0.00  0.00    +0.000 C 
ATOM     26  F   UNL     1       1.899   3.723  17.025  0.00  0.00    +0.000 F 
ATOM     27  F   UNL     1       3.209   2.069  17.534  0.00  0.00    +0.000 F 
ATOM     28  F   UNL     1       1.727   2.768  18.965  0.00  0.00    +0.000 F 
ENDBRANCH  17  25
BRANCH  17  29
ATOM     29  O   UNL     1       4.186   3.762  19.899  0.00  0.00    +0.000 OA
ATOM     30  H   UNL     1       4.291   2.797  19.825  0.00  0.00    +0.000 HD
ENDBRANCH  17  29
ENDBRANCH   1  17
TORSDOF 5
ENDMDL
MODEL 3
REMARK VINA RESULT:      -9.4      0.993      1.400
REMARK  Name = 
REMARK  5 active torsions:
REMARK  status: ('A' for Active; 'I' for Inactive)
REMARK    1  A    between atoms: O_1  and  C_2
REMARK    2  A    between atoms: C_2  and  C_3
REMARK    3  A    between atoms: C_2  and  C_19
REMARK    4  A    between atoms: C_2  and  C_26
REMARK    5  A    between atoms: N_10  and  C_11
REMARK                            x       y       z     vdW  Elec       q    Type
REMARK                         _______ _______ _______ _____ _____    ______ ____
ROOT
ATOM      1  C   UNL     1       3.516   5.454  18.957  0.00  0.00    +0.000 A 
ATOM      2  C   UNL     1       2.774   5.516  20.153  0.00  0.00    +0.000 A 
ATOM      3  C   UNL     1       1.993   6.630  20.499  0.00  0.00    +0.000 A 
ATOM      4  C   UNL     1       1.951   7.705  19.598  0.00  0.00    +0.000 A 
ATOM      5  C   UNL     1       2.646   7.666  18.396  0.00  0.00    +0.000 A 
ATOM      6  C   UNL     1       2.251   8.836  17.716  0.00  0.00    +0.000 A 
ATOM      7  N   UNL     1       1.347   9.546  18.392  0.00  0.00    +0.000 NA
ATOM      8  N   UNL     1       1.251   8.908  19.589  0.00  0.00    +0.000 N 
ATOM      9  C   UNL     1       3.476   6.572  18.098  0.00  0.00    +0.000 A 
ENDROOT
BRANCH   8  10
ATOM     10  C   UNL     1       0.508   9.500  20.641  0.00  0.00    +0.000 A 
ATOM     11  C   UNL     1      -0.235  10.664  20.389  0.00  0.00    +0.000 A 
ATOM     12  C   UNL     1      -0.977  11.249  21.414  0.00  0.00    +0.000 A 
ATOM     13  C   UNL     1      -0.936  10.701  22.690  0.00  0.00    +0.000 A 
ATOM     14  F   UNL     1      -1.633  11.277  23.680  0.00  0.00    +0.000 F 
ATOM     15  C   UNL     1      -0.174   9.569  22.962  0.00  0.00    +0.000 A 
ATOM     16  C   UNL     1       0.542   8.956  21.936  0.00  0.00    +0.000 A 
ENDBRANCH   8  10
BRANCH   1  17
ATOM     17  C   UNL     1       4.308   4.154  18.640  0.00  0.00    +0.000 C 
BRANCH  17  18
ATOM     18  C   UNL     1       5.275   4.255  17.450  0.00  0.00    +0.000 A 
ATOM     19  C   UNL     1       6.664   4.424  17.615  0.00  0.00    +0.000 A 
ATOM     20  C   UNL     1       7.508   4.588  16.513  0.00  0.00    +0.000 A 
ATOM     21  C   UNL     1       6.986   4.581  15.222  0.00  0.00    +0.000 A 
ATOM     22  C   UNL     1       5.623   4.373  15.032  0.00  0.00    +0.000 A 
ATOM     23  C   UNL     1       4.791   4.196  16.134  0.00  0.00    +0.000 A 
ATOM     24  F   UNL     1       3.479   4.021  15.918  0.00  0.00    +0.000 F 
ENDBRANCH  17  18
BRANCH  17  25
ATOM     25  C   UNL     1       3.342   2.898  18.488  0.00  0.00    +0.000 C 
ATOM     26  F   UNL     1       3.062   2.340  19.697  0.00  0.00    +0.000 F 
ATOM     27  F   UNL     1       2.143   3.216  17.937  0.00  0.00    +0.000 F 
ATOM     28  F   UNL     1       3.863   1.901  17.729  0.00  0.00    +0.000 F 
ENDBRANCH  17  25
BRANCH  17  29
ATOM     29  O   UNL     1       5.153   3.974  19.820  0.00  0.00    +0.000 OA
ATOM     30  H   UNL     1       4.635   3.454  20.460  0.00  0.00    +0.000 HD
ENDBRANCH  17  29
ENDBRANCH   1  17
TORSDOF 5
ENDMDL
MODEL 4
REMARK VINA RESULT:      -9.2      1.883      2.637
REMARK  Name = 
REMARK  5 active torsions:
REMARK  status: ('A' for Active; 'I' for Inactive)
REMARK    1  A    between atoms: O_1  and  C_2
REMARK    2  A    between atoms: C_2  and  C_3
REMARK    3  A    between atoms: C_2  and  C_19
REMARK    4  A    between atoms: C_2  and  C_26
REMARK    5  A    between atoms: N_10  and  C_11
REMARK                            x       y       z     vdW  Elec       q    Type
REMARK                         _______ _______ _______ _____ _____    ______ ____
ROOT
ATOM      1  C   UNL     1       2.387   6.218  19.164  0.00  0.00    +0.000 A 
ATOM      2  C   UNL     1       2.373   7.231  18.184  0.00  0.00    +0.000 A 
ATOM      3  C   UNL     1       1.916   8.531  18.451  0.00  0.00    +0.000 A 
ATOM      4  C   UNL     1       1.478   8.817  19.754  0.00  0.00    +0.000 A 
ATOM      5  C   UNL     1       1.508   7.852  20.752  0.00  0.00    +0.000 A 
ATOM      6  C   UNL     1       1.135   8.538  21.925  0.00  0.00    +0.000 A 
ATOM      7  N   UNL     1       0.930   9.840  21.718  0.00  0.00    +0.000 NA
ATOM      8  N   UNL     1       1.032   9.982  20.370  0.00  0.00    +0.000 N 
ATOM      9  C   UNL     1       1.903   6.538  20.449  0.00  0.00    +0.000 A 
ENDROOT
BRANCH   8  10
ATOM     10  C   UNL     1       0.686  11.218  19.768  0.00  0.00    +0.000 A 
ATOM     11  C   UNL     1       1.509  12.336  19.967  0.00  0.00    +0.000 A 
ATOM     12  C   UNL     1       1.181  13.554  19.372  0.00  0.00    +0.000 A 
ATOM     13  C   UNL     1       0.015  13.661  18.624  0.00  0.00    +0.000 A 
ATOM     14  F   UNL     1      -0.308  14.838  18.069  0.00  0.00    +0.000 F 
ATOM     15  C   UNL     1      -0.829  12.569  18.449  0.00  0.00    +0.000 A 
ATOM     16  C   UNL     1      -0.492  11.339  19.011  0.00  0.00    +0.000 A 
ENDBRANCH   8  10
BRANCH   1  17
ATOM     17  C   UNL     1       2.961   4.824  18.783  0.00  0.00    +0.000 C 
BRANCH  17  18
ATOM     18  C   UNL     1       4.235   4.859  17.921  0.00  0.00    +0.000 A 
ATOM     19  C   UNL     1       4.246   4.458  16.572  0.00  0.00    +0.000 A 
ATOM     20  C   UNL     1       5.434   4.429  15.836  0.00  0.00    +0.000 A 
ATOM     21  C   UNL     1       6.636   4.807  16.430  0.00  0.00    +0.000 A 
ATOM     22  C   UNL     1       6.643   5.247  17.750  0.00  0.00    +0.000 A 
ATOM     23  C   UNL     1       5.453   5.287  18.471  0.00  0.00    +0.000 A 
ATOM     24  F   UNL     1       5.497   5.693  19.748  0.00  0.00    +0.000 F 
ENDBRANCH  17  18
BRANCH  17  25
ATOM     25  C   UNL     1       1.852   3.889  18.128  0.00  0.00    +0.000 C 
ATOM     26  F   UNL     1       0.922   3.510  19.046  0.00  0.00    +0.000 F 
ATOM     27  F   UNL     1       1.166   4.501  17.130  0.00  0.00    +0.000 F 
ATOM     28  F   UNL     1       2.350   2.740  17.606  0.00  0.00    +0.000 F 
ENDBRANCH  17  25
BRANCH  17  29
ATOM     29  O   UNL     1       3.371   4.262  20.069  0.00  0.00    +0.000 OA
ATOM     30  H   UNL     1       2.759   3.532  20.264  0.00  0.00    +0.000 HD
ENDBRANCH  17  29
ENDBRANCH   1  17
TORSDOF 5
ENDMDL
MODEL 5
REMARK VINA RESULT:      -9.1      1.923      2.738
REMARK  Name = 
REMARK  5 active torsions:
REMARK  status: ('A' for Active; 'I' for Inactive)
REMARK    1  A    between atoms: O_1  and  C_2
REMARK    2  A    between atoms: C_2  and  C_3
REMARK    3  A    between atoms: C_2  and  C_19
REMARK    4  A    between atoms: C_2  and  C_26
REMARK    5  A    between atoms: N_10  and  C_11
REMARK                            x       y       z     vdW  Elec       q    Type
REMARK                         _______ _______ _______ _____ _____    ______ ____
ROOT
ATOM      1  C   UNL     1       2.366   6.288  19.184  0.00  0.00    +0.000 A 
ATOM      2  C   UNL     1       2.326   7.292  18.196  0.00  0.00    +0.000 A 
ATOM      3  C   UNL     1       1.881   8.596  18.463  0.00  0.00    +0.000 A 
ATOM      4  C   UNL     1       1.483   8.896  19.775  0.00  0.00    +0.000 A 
ATOM      5  C   UNL     1       1.539   7.940  20.782  0.00  0.00    +0.000 A 
ATOM      6  C   UNL     1       1.203   8.639  21.958  0.00  0.00    +0.000 A 
ATOM      7  N   UNL     1       0.996   9.939  21.745  0.00  0.00    +0.000 NA
ATOM      8  N   UNL     1       1.059  10.068  20.394  0.00  0.00    +0.000 N 
ATOM      9  C   UNL     1       1.921   6.622  20.480  0.00  0.00    +0.000 A 
ENDROOT
BRANCH   8  10
ATOM     10  C   UNL     1       0.698  11.299  19.790  0.00  0.00    +0.000 A 
ATOM     11  C   UNL     1      -0.497  11.384  19.060  0.00  0.00    +0.000 A 
ATOM     12  C   UNL     1      -0.865  12.592  18.469  0.00  0.00    +0.000 A 
ATOM     13  C   UNL     1      -0.021  13.691  18.569  0.00  0.00    +0.000 A 
ATOM     14  F   UNL     1      -0.367  14.846  17.983  0.00  0.00    +0.000 F 
ATOM     15  C   UNL     1       1.185  13.610  19.259  0.00  0.00    +0.000 A 
ATOM     16  C   UNL     1       1.545  12.417  19.882  0.00  0.00    +0.000 A 
ENDBRANCH   8  10
BRANCH   1  17
ATOM     17  C   UNL     1       2.925   4.889  18.800  0.00  0.00    +0.000 C 
BRANCH  17  18
ATOM     18  C   UNL     1       4.184   4.911  17.917  0.00  0.00    +0.000 A 
ATOM     19  C   UNL     1       4.163   4.533  16.561  0.00  0.00    +0.000 A 
ATOM     20  C   UNL     1       5.338   4.492  15.805  0.00  0.00    +0.000 A 
ATOM     21  C   UNL     1       6.558   4.833  16.384  0.00  0.00    +0.000 A 
ATOM     22  C   UNL     1       6.597   5.251  17.710  0.00  0.00    +0.000 A 
ATOM     23  C   UNL     1       5.420   5.304  18.453  0.00  0.00    +0.000 A 
ATOM     24  F   UNL     1       5.494   5.688  19.735  0.00  0.00    +0.000 F 
ENDBRANCH  17  18
BRANCH  17  25
ATOM     25  C   UNL     1       1.799   3.958  18.169  0.00  0.00    +0.000 C 
ATOM     26  F   UNL     1       1.119   4.605  17.183  0.00  0.00    +0.000 F 
ATOM     27  F   UNL     1       2.299   2.832  17.601  0.00  0.00    +0.000 F 
ATOM     28  F   UNL     1       0.862   3.555  19.063  0.00  0.00    +0.000 F 
ENDBRANCH  17  25
BRANCH  17  29
ATOM     29  O   UNL     1       3.353   4.330  20.082  0.00  0.00    +0.000 OA
ATOM     30  H   UNL     1       4.300   4.534  20.175  0.00  0.00    +0.000 HD
ENDBRANCH  17  29
ENDBRANCH   1  17
TORSDOF 5
ENDMDL
MODEL 6
REMARK VINA RESULT:      -9.0      3.405      8.773
REMARK  Name = 
REMARK  5 active torsions:
REMARK  status: ('A' for Active; 'I' for Inactive)
REMARK    1  A    between atoms: O_1  and  C_2
REMARK    2  A    between atoms: C_2  and  C_3
REMARK    3  A    between atoms: C_2  and  C_19
REMARK    4  A    between atoms: C_2  and  C_26
REMARK    5  A    between atoms: N_10  and  C_11
REMARK                            x       y       z     vdW  Elec       q    Type
REMARK                         _______ _______ _______ _____ _____    ______ ____
ROOT
ATOM      1  C   UNL     1       0.896   9.611  19.224  0.00  0.00    +0.000 A 
ATOM      2  C   UNL     1       1.563   9.511  17.987  0.00  0.00    +0.000 A 
ATOM      3  C   UNL     1       2.428   8.449  17.681  0.00  0.00    +0.000 A 
ATOM      4  C   UNL     1       2.607   7.450  18.651  0.00  0.00    +0.000 A 
ATOM      5  C   UNL     1       1.942   7.501  19.869  0.00  0.00    +0.000 A 
ATOM      6  C   UNL     1       2.260   6.282  20.501  0.00  0.00    +0.000 A 
ATOM      7  N   UNL     1       3.021   5.491  19.744  0.00  0.00    +0.000 NA
ATOM      8  N   UNL     1       3.322   6.256  18.661  0.00  0.00    +0.000 N 
ATOM      9  C   UNL     1       1.135   8.607  20.185  0.00  0.00    +0.000 A 
ENDROOT
BRANCH   8  10
ATOM     10  C   UNL     1       4.279   5.796  17.722  0.00  0.00    +0.000 A 
ATOM     11  C   UNL     1       4.099   4.545  17.113  0.00  0.00    +0.000 A 
ATOM     12  C   UNL     1       5.030   4.087  16.181  0.00  0.00    +0.000 A 
ATOM     13  C   UNL     1       6.153   4.854  15.898  0.00  0.00    +0.000 A 
ATOM     14  F   UNL     1       7.057   4.403  15.017  0.00  0.00    +0.000 F 
ATOM     15  C   UNL     1       6.362   6.080  16.522  0.00  0.00    +0.000 A 
ATOM     16  C   UNL     1       5.419   6.562  17.429  0.00  0.00    +0.000 A 
ENDBRANCH   8  10
BRANCH   1  17
ATOM     17  C   UNL     1      -0.083  10.799  19.447  0.00  0.00    +0.000 C 
BRANCH  17  18
ATOM     18  C   UNL     1      -1.362  10.757  18.594  0.00  0.00    +0.000 A 
ATOM     19  C   UNL     1      -1.480   9.948  17.448  0.00  0.00    +0.000 A 
ATOM     20  C   UNL     1      -2.628   9.989  16.651  0.00  0.00    +0.000 A 
ATOM     21  C   UNL     1      -3.685  10.832  16.984  0.00  0.00    +0.000 A 
ATOM     22  C   UNL     1      -3.608  11.609  18.136  0.00  0.00    +0.000 A 
ATOM     23  C   UNL     1      -2.467  11.552  18.933  0.00  0.00    +0.000 A 
ATOM     24  F   UNL     1      -2.414  12.331  20.023  0.00  0.00    +0.000 F 
ENDBRANCH  17  18
BRANCH  17  25
ATOM     25  C   UNL     1       0.654  12.203  19.307  0.00  0.00    +0.000 C 
ATOM     26  F   UNL     1       0.439  12.753  18.080  0.00  0.00    +0.000 F 
ATOM     27  F   UNL     1       0.221  13.120  20.208  0.00  0.00    +0.000 F 
ATOM     28  F   UNL     1       2.000  12.127  19.450  0.00  0.00    +0.000 F 
ENDBRANCH  17  25
BRANCH  17  29
ATOM     29  O   UNL     1      -0.525  10.620  20.829  0.00  0.00    +0.000 OA
ATOM     30  H   UNL     1      -0.813  11.494  21.147  0.00  0.00    +0.000 HD
ENDBRANCH  17  29
ENDBRANCH   1  17
TORSDOF 5
ENDMDL
MODEL 7
REMARK VINA RESULT:      -8.9      3.411      8.748
REMARK  Name = 
REMARK  5 active torsions:
REMARK  status: ('A' for Active; 'I' for Inactive)
REMARK    1  A    between atoms: O_1  and  C_2
REMARK    2  A    between atoms: C_2  and  C_3
REMARK    3  A    between atoms: C_2  and  C_19
REMARK    4  A    between atoms: C_2  and  C_26
REMARK    5  A    between atoms: N_10  and  C_11
REMARK                            x       y       z     vdW  Elec       q    Type
REMARK                         _______ _______ _______ _____ _____    ______ ____
ROOT
ATOM      1  C   UNL     1       0.890   9.601  19.226  0.00  0.00    +0.000 A 
ATOM      2  C   UNL     1       1.567   9.487  17.995  0.00  0.00    +0.000 A 
ATOM      3  C   UNL     1       2.424   8.415  17.703  0.00  0.00    +0.000 A 
ATOM      4  C   UNL     1       2.584   7.419  18.680  0.00  0.00    +0.000 A 
ATOM      5  C   UNL     1       1.908   7.484  19.892  0.00  0.00    +0.000 A 
ATOM      6  C   UNL     1       2.207   6.265  20.533  0.00  0.00    +0.000 A 
ATOM      7  N   UNL     1       2.967   5.461  19.787  0.00  0.00    +0.000 NA
ATOM      8  N   UNL     1       3.285   6.218  18.703  0.00  0.00    +0.000 N 
ATOM      9  C   UNL     1       1.110   8.600  20.194  0.00  0.00    +0.000 A 
ENDROOT
BRANCH   8  10
ATOM     10  C   UNL     1       4.246   5.742  17.775  0.00  0.00    +0.000 A 
ATOM     11  C   UNL     1       5.356   6.542  17.462  0.00  0.00    +0.000 A 
ATOM     12  C   UNL     1       6.311   6.080  16.558  0.00  0.00    +0.000 A 
ATOM     13  C   UNL     1       6.130   4.850  15.937  0.00  0.00    +0.000 A 
ATOM     14  F   UNL     1       7.039   4.417  15.051  0.00  0.00    +0.000 F 
ATOM     15  C   UNL     1       5.015   4.064  16.210  0.00  0.00    +0.000 A 
ATOM     16  C   UNL     1       4.073   4.501  17.140  0.00  0.00    +0.000 A 
ENDBRANCH   8  10
BRANCH   1  17
ATOM     17  C   UNL     1      -0.077  10.801  19.433  0.00  0.00    +0.000 C 
BRANCH  17  18
ATOM     18  C   UNL     1      -1.360  10.756  18.586  0.00  0.00    +0.000 A 
ATOM     19  C   UNL     1      -1.488   9.933  17.451  0.00  0.00    +0.000 A 
ATOM     20  C   UNL     1      -2.639   9.970  16.658  0.00  0.00    +0.000 A 
ATOM     21  C   UNL     1      -3.689  10.824  16.985  0.00  0.00    +0.000 A 
ATOM     22  C   UNL     1      -3.603  11.615  18.126  0.00  0.00    +0.000 A 
ATOM     23  C   UNL     1      -2.460  11.562  18.919  0.00  0.00    +0.000 A 
ATOM     24  F   UNL     1      -2.397  12.354  19.999  0.00  0.00    +0.000 F 
ENDBRANCH  17  18
BRANCH  17  25
ATOM     25  C   UNL     1       0.670  12.196  19.267  0.00  0.00    +0.000 C 
ATOM     26  F   UNL     1       0.271  13.086  20.216  0.00  0.00    +0.000 F 
ATOM     27  F   UNL     1       2.017  12.094  19.393  0.00  0.00    +0.000 F 
ATOM     28  F   UNL     1       0.439  12.797  18.073  0.00  0.00    +0.000 F 
ENDBRANCH  17  25
BRANCH  17  29
ATOM     29  O   UNL     1      -0.516  10.648  20.820  0.00  0.00    +0.000 OA
ATOM     30  H   UNL     1      -1.457  10.898  20.846  0.00  0.00    +0.000 HD
ENDBRANCH  17  29
ENDBRANCH   1  17
TORSDOF 5
ENDMDL
MODEL 8
REMARK VINA RESULT:      -8.8      1.484      1.779
REMARK  Name = 
REMARK  5 active torsions:
REMARK  status: ('A' for Active; 'I' for Inactive)
REMARK    1  A    between atoms: O_1  and  C_2
REMARK    2  A    between atoms: C_2  and  C_3
REMARK    3  A    between atoms: C_2  and  C_19
REMARK    4  A    between atoms: C_2  and  C_26
REMARK    5  A    between atoms: N_10  and  C_11
REMARK                            x       y       z     vdW  Elec       q    Type
REMARK                         _______ _______ _______ _____ _____    ______ ____
ROOT
ATOM      1  C   UNL     1       2.646   6.687  19.371  0.00  0.00    +0.000 A 
ATOM      2  C   UNL     1       1.880   6.763  20.551  0.00  0.00    +0.000 A 
ATOM      3  C   UNL     1       1.066   7.866  20.852  0.00  0.00    +0.000 A 
ATOM      4  C   UNL     1       1.013   8.915  19.920  0.00  0.00    +0.000 A 
ATOM      5  C   UNL     1       1.731   8.860  18.732  0.00  0.00    +0.000 A 
ATOM      6  C   UNL     1       1.321  10.000  18.013  0.00  0.00    +0.000 A 
ATOM      7  N   UNL     1       0.387  10.705  18.652  0.00  0.00    +0.000 NA
ATOM      8  N   UNL     1       0.285  10.099  19.864  0.00  0.00    +0.000 N 
ATOM      9  C   UNL     1       2.594   7.779  18.480  0.00  0.00    +0.000 A 
ENDROOT
BRANCH   8  10
ATOM     10  C   UNL     1      -0.493  10.701  20.885  0.00  0.00    +0.000 A 
ATOM     11  C   UNL     1      -1.300  11.806  20.575  0.00  0.00    +0.000 A 
ATOM     12  C   UNL     1      -2.075  12.400  21.570  0.00  0.00    +0.000 A 
ATOM     13  C   UNL     1      -2.005  11.921  22.873  0.00  0.00    +0.000 A 
ATOM     14  F   UNL     1      -2.735  12.507  23.833  0.00  0.00    +0.000 F 
ATOM     15  C   UNL     1      -1.181  10.850  23.201  0.00  0.00    +0.000 A 
ATOM     16  C   UNL     1      -0.429  10.227  22.206  0.00  0.00    +0.000 A 
ENDBRANCH   8  10
BRANCH   1  17
ATOM     17  C   UNL     1       3.475   5.399  19.105  0.00  0.00    +0.000 C 
BRANCH  17  18
ATOM     18  C   UNL     1       4.907   5.640  18.599  0.00  0.00    +0.000 A 
ATOM     19  C   UNL     1       6.044   5.345  19.376  0.00  0.00    +0.000 A 
ATOM     20  C   UNL     1       7.330   5.645  18.918  0.00  0.00    +0.000 A 
ATOM     21  C   UNL     1       7.510   6.241  17.671  0.00  0.00    +0.000 A 
ATOM     22  C   UNL     1       6.404   6.503  16.868  0.00  0.00    +0.000 A 
ATOM     23  C   UNL     1       5.128   6.187  17.326  0.00  0.00    +0.000 A 
ATOM     24  F   UNL     1       4.081   6.474  16.538  0.00  0.00    +0.000 F 
ENDBRANCH  17  18
BRANCH  17  25
ATOM     25  C   UNL     1       2.698   4.382  18.160  0.00  0.00    +0.000 C 
ATOM     26  F   UNL     1       2.083   3.407  18.883  0.00  0.00    +0.000 F 
ATOM     27  F   UNL     1       1.722   4.978  17.430  0.00  0.00    +0.000 F 
ATOM     28  F   UNL     1       3.502   3.739  17.276  0.00  0.00    +0.000 F 
ENDBRANCH  17  25
BRANCH  17  29
ATOM     29  O   UNL     1       3.622   4.809  20.435  0.00  0.00    +0.000 OA
ATOM     30  H   UNL     1       4.333   4.146  20.371  0.00  0.00    +0.000 HD
ENDBRANCH  17  29
ENDBRANCH   1  17
TORSDOF 5
ENDMDL
MODEL 9
REMARK VINA RESULT:      -8.8      2.033      2.886
REMARK  Name = 
REMARK  5 active torsions:
REMARK  status: ('A' for Active; 'I' for Inactive)
REMARK    1  A    between atoms: O_1  and  C_2
REMARK    2  A    between atoms: C_2  and  C_3
REMARK    3  A    between atoms: C_2  and  C_19
REMARK    4  A    between atoms: C_2  and  C_26
REMARK    5  A    between atoms: N_10  and  C_11
REMARK                            x       y       z     vdW  Elec       q    Type
REMARK                         _______ _______ _______ _____ _____    ______ ____
ROOT
ATOM      1  C   UNL     1       2.418   6.596  19.104  0.00  0.00    +0.000 A 
ATOM      2  C   UNL     1       2.380   7.631  18.149  0.00  0.00    +0.000 A 
ATOM      3  C   UNL     1       1.893   8.913  18.445  0.00  0.00    +0.000 A 
ATOM      4  C   UNL     1       1.450   9.159  19.754  0.00  0.00    +0.000 A 
ATOM      5  C   UNL     1       1.501   8.171  20.730  0.00  0.00    +0.000 A 
ATOM      6  C   UNL     1       1.113   8.822  21.918  0.00  0.00    +0.000 A 
ATOM      7  N   UNL     1       0.878  10.123  21.742  0.00  0.00    +0.000 NA
ATOM      8  N   UNL     1       0.977  10.299  20.397  0.00  0.00    +0.000 N 
ATOM      9  C   UNL     1       1.926   6.874  20.396  0.00  0.00    +0.000 A 
ENDROOT
BRANCH   8  10
ATOM     10  C   UNL     1       0.602  11.540  19.824  0.00  0.00    +0.000 A 
ATOM     11  C   UNL     1       1.311  12.701  20.169  0.00  0.00    +0.000 A 
ATOM     12  C   UNL     1       0.956  13.924  19.603  0.00  0.00    +0.000 A 
ATOM     13  C   UNL     1      -0.129  13.992  18.738  0.00  0.00    +0.000 A 
ATOM     14  F   UNL     1      -0.482  15.174  18.212  0.00  0.00    +0.000 F 
ATOM     15  C   UNL     1      -0.864  12.855  18.416  0.00  0.00    +0.000 A 
ATOM     16  C   UNL     1      -0.495  11.621  18.949  0.00  0.00    +0.000 A 
ENDBRANCH   8  10
BRANCH   1  17
ATOM     17  C   UNL     1       3.023   5.225  18.691  0.00  0.00    +0.000 C 
BRANCH  17  18
ATOM     18  C   UNL     1       4.325   5.308  17.876  0.00  0.00    +0.000 A 
ATOM     19  C   UNL     1       4.477   6.179  16.781  0.00  0.00    +0.000 A 
ATOM     20  C   UNL     1       5.646   6.177  16.014  0.00  0.00    +0.000 A 
ATOM     21  C   UNL     1       6.690   5.311  16.328  0.00  0.00    +0.000 A 
ATOM     22  C   UNL     1       6.579   4.471  17.431  0.00  0.00    +0.000 A 
ATOM     23  C   UNL     1       5.418   4.489  18.199  0.00  0.00    +0.000 A 
ATOM     24  F   UNL     1       5.333   3.651  19.242  0.00  0.00    +0.000 F 
ENDBRANCH  17  18
BRANCH  17  25
ATOM     25  C   UNL     1       1.950   4.302  17.964  0.00  0.00    +0.000 C 
ATOM     26  F   UNL     1       2.546   3.444  17.091  0.00  0.00    +0.000 F 
ATOM     27  F   UNL     1       1.246   3.527  18.827  0.00  0.00    +0.000 F 
ATOM     28  F   UNL     1       1.039   4.997  17.238  0.00  0.00    +0.000 F 
ENDBRANCH  17  25
BRANCH  17  29
ATOM     29  O   UNL     1       3.397   4.619  19.969  0.00  0.00    +0.000 OA
ATOM     30  H   UNL     1       3.753   3.736  19.767  0.00  0.00    +0.000 HD
ENDBRANCH  17  29
ENDBRANCH   1  17
TORSDOF 5
ENDMDL
