MODEL 1
REMARK VINA RESULT:      -8.5      0.000      0.000
REMARK  Name = 
REMARK  6 active torsions:
REMARK  status: ('A' for Active; 'I' for Inactive)
REMARK    1  A    between atoms: C_1  and  C_2
REMARK    2  A    between atoms: C_2  and  C_3
REMARK    3  A    between atoms: C_3  and  C_4
REMARK    4  A    between atoms: C_6  and  C_7
REMARK    5  A    between atoms: N_9  and  C_10
REMARK    6  A    between atoms: C_23  and  O_24
REMARK                            x       y       z     vdW  Elec       q    Type
REMARK                         _______ _______ _______ _____ _____    ______ ____
ROOT
ATOM      1  C   UNL     1       2.950   6.266  17.678  0.00  0.00    +0.000 C 
ATOM      2  C   UNL     1       2.613   4.829  17.907  0.00  0.00    +0.000 A 
ATOM      3  C   UNL     1       1.324   4.303  17.977  0.00  0.00    +0.000 A 
ATOM      4  C   UNL     1       1.165   2.958  18.283  0.00  0.00    +0.000 A 
ATOM      5  C   UNL     1       2.287   2.155  18.512  0.00  0.00    +0.000 A 
ATOM      6  C   UNL     1       3.579   2.683  18.414  0.00  0.00    +0.000 A 
ATOM      7  C   UNL     1       3.741   4.026  18.098  0.00  0.00    +0.000 A 
ATOM      8  C   UNL     1       5.035   4.805  17.934  0.00  0.00    +0.000 C 
ATOM      9  C   UNL     1       5.835   4.844  19.257  0.00  0.00    +0.000 C 
ATOM     10  C   UNL     1       7.201   5.516  19.072  0.00  0.00    +0.000 C 
ATOM     11  N   UNL     1       8.002   4.860  18.038  0.00  0.00    +0.000 NA
ATOM     12  C   UNL     1       7.303   4.851  16.753  0.00  0.00    +0.000 C 
ATOM     13  C   UNL     1       5.941   4.159  16.858  0.00  0.00    +0.000 C 
ATOM     14  C   UNL     1       4.507   6.246  17.553  0.00  0.00    +0.000 C 
ATOM     15  H   UNL     1       8.204   3.901  18.319  0.00  0.00    +0.000 HD
ENDROOT
BRANCH   1  18
ATOM     16  C   UNL     1       1.960   8.338  18.580  0.00  0.00    +0.000 C 
ATOM     17  O   UNL     1       1.977   8.923  17.503  0.00  0.00    +0.000 OA
ATOM     18  N   UNL     1       2.454   7.072  18.770  0.00  0.00    +0.000 N 
ATOM     19  H   UNL     1       2.336   6.670  19.695  0.00  0.00    +0.000 HD
BRANCH  16  22
ATOM     20  C   UNL     1       0.281  10.446  20.990  0.00  0.00    +0.000 A 
ATOM     21  N   UNL     1       0.700  10.149  19.778  0.00  0.00    +0.000 NA
ATOM     22  C   UNL     1       1.369   8.918  19.793  0.00  0.00    +0.000 A 
ATOM     23  C   UNL     1       1.442   8.322  21.038  0.00  0.00    +0.000 A 
ATOM     24  S   UNL     1       0.650   9.286  22.207  0.00  0.00    +0.000 S 
BRANCH  20  25
ATOM     25  C   UNL     1      -0.444  11.710  21.358  0.00  0.00    +0.000 C 
BRANCH  25  27
ATOM     26  C   UNL     1      -2.424  12.221  22.830  0.00  0.00    +0.000 C 
ATOM     27  C   UNL     1      -1.018  11.641  22.773  0.00  0.00    +0.000 C 
ENDBRANCH  25  27
ENDBRANCH  20  25
ENDBRANCH  16  22
ENDBRANCH   1  18
BRANCH  14  28
ATOM     28  O   UNL     1       4.886   6.623  16.220  0.00  0.00    +0.000 OA
ATOM     29  H   UNL     1       5.349   7.477  16.265  0.00  0.00    +0.000 HD
ENDBRANCH  14  28
TORSDOF 5
ENDMDL
MODEL 2
REMARK VINA RESULT:      -8.0      0.985      1.197
REMARK  Name = 
REMARK  6 active torsions:
REMARK  status: ('A' for Active; 'I' for Inactive)
REMARK    1  A    between atoms: C_1  and  C_2
REMARK    2  A    between atoms: C_2  and  C_3
REMARK    3  A    between atoms: C_3  and  C_4
REMARK    4  A    between atoms: C_6  and  C_7
REMARK    5  A    between atoms: N_9  and  C_10
REMARK    6  A    between atoms: C_23  and  O_24
REMARK                            x       y       z     vdW  Elec       q    Type
REMARK                         _______ _______ _______ _____ _____    ______ ____
ROOT
ATOM      1  C   UNL     1       2.946   6.026  17.515  0.00  0.00    +0.000 C 
ATOM      2  C   UNL     1       2.626   4.632  17.945  0.00  0.00    +0.000 A 
ATOM      3  C   UNL     1       1.345   4.090  18.036  0.00  0.00    +0.000 A 
ATOM      4  C   UNL     1       1.196   2.803  18.536  0.00  0.00    +0.000 A 
ATOM      5  C   UNL     1       2.320   2.074  18.936  0.00  0.00    +0.000 A 
ATOM      6  C   UNL     1       3.606   2.613  18.816  0.00  0.00    +0.000 A 
ATOM      7  C   UNL     1       3.757   3.897  18.307  0.00  0.00    +0.000 A 
ATOM      8  C   UNL     1       5.043   4.675  18.085  0.00  0.00    +0.000 C 
ATOM      9  C   UNL     1       5.777   4.934  19.421  0.00  0.00    +0.000 C 
ATOM     10  C   UNL     1       7.138   5.605  19.197  0.00  0.00    +0.000 C 
ATOM     11  N   UNL     1       8.000   4.822  18.313  0.00  0.00    +0.000 NA
ATOM     12  C   UNL     1       7.364   4.599  17.014  0.00  0.00    +0.000 C 
ATOM     13  C   UNL     1       6.012   3.897  17.162  0.00  0.00    +0.000 C 
ATOM     14  C   UNL     1       4.508   6.028  17.465  0.00  0.00    +0.000 C 
ATOM     15  H   UNL     1       8.206   3.921  18.745  0.00  0.00    +0.000 HD
ENDROOT
BRANCH   1  18
ATOM     16  C   UNL     1       2.195   8.296  18.126  0.00  0.00    +0.000 C 
ATOM     17  O   UNL     1       2.563   8.799  17.070  0.00  0.00    +0.000 OA
ATOM     18  N   UNL     1       2.383   6.976  18.448  0.00  0.00    +0.000 N 
ATOM     19  H   UNL     1       1.987   6.659  19.328  0.00  0.00    +0.000 HD
BRANCH  16  22
ATOM     20  C   UNL     1       0.800   9.527  21.225  0.00  0.00    +0.000 A 
ATOM     21  N   UNL     1       1.550   8.710  20.516  0.00  0.00    +0.000 NA
ATOM     22  C   UNL     1       1.471   9.047  19.158  0.00  0.00    +0.000 A 
ATOM     23  C   UNL     1       0.641  10.118  18.883  0.00  0.00    +0.000 A 
ATOM     24  S   UNL     1      -0.034  10.735  20.327  0.00  0.00    +0.000 S 
BRANCH  20  25
ATOM     25  C   UNL     1       0.614   9.440  22.714  0.00  0.00    +0.000 C 
BRANCH  25  27
ATOM     26  C   UNL     1      -1.257  11.052  23.217  0.00  0.00    +0.000 C 
ATOM     27  C   UNL     1      -0.855   9.587  23.110  0.00  0.00    +0.000 C 
ENDBRANCH  25  27
ENDBRANCH  20  25
ENDBRANCH  16  22
ENDBRANCH   1  18
BRANCH  14  28
ATOM     28  O   UNL     1       4.944   6.208  16.108  0.00  0.00    +0.000 OA
ATOM     29  H   UNL     1       5.521   6.990  16.075  0.00  0.00    +0.000 HD
ENDBRANCH  14  28
TORSDOF 5
ENDMDL
MODEL 3
REMARK VINA RESULT:      -8.0      2.788      7.809
REMARK  Name = 
REMARK  6 active torsions:
REMARK  status: ('A' for Active; 'I' for Inactive)
REMARK    1  A    between atoms: C_1  and  C_2
REMARK    2  A    between atoms: C_2  and  C_3
REMARK    3  A    between atoms: C_3  and  C_4
REMARK    4  A    between atoms: C_6  and  C_7
REMARK    5  A    between atoms: N_9  and  C_10
REMARK    6  A    between atoms: C_23  and  O_24
REMARK                            x       y       z     vdW  Elec       q    Type
REMARK                         _______ _______ _______ _____ _____    ______ ____
ROOT
ATOM      1  C   UNL     1       1.732   9.286  19.575  0.00  0.00    +0.000 C 
ATOM      2  C   UNL     1       0.993   9.534  20.850  0.00  0.00    +0.000 A 
ATOM      3  C   UNL     1       1.369   9.059  22.105  0.00  0.00    +0.000 A 
ATOM      4  C   UNL     1       0.534   9.298  23.189  0.00  0.00    +0.000 A 
ATOM      5  C   UNL     1      -0.658  10.006  23.011  0.00  0.00    +0.000 A 
ATOM      6  C   UNL     1      -1.016  10.505  21.753  0.00  0.00    +0.000 A 
ATOM      7  C   UNL     1      -0.177  10.275  20.670  0.00  0.00    +0.000 A 
ATOM      8  C   UNL     1      -0.358  10.721  19.228  0.00  0.00    +0.000 C 
ATOM      9  C   UNL     1      -1.622  10.088  18.602  0.00  0.00    +0.000 C 
ATOM     10  C   UNL     1      -1.887  10.630  17.192  0.00  0.00    +0.000 C 
ATOM     11  N   UNL     1      -2.014  12.087  17.177  0.00  0.00    +0.000 NA
ATOM     12  C   UNL     1      -0.814  12.730  17.712  0.00  0.00    +0.000 C 
ATOM     13  C   UNL     1      -0.511  12.259  19.137  0.00  0.00    +0.000 C 
ATOM     14  C   UNL     1       0.952  10.161  18.542  0.00  0.00    +0.000 C 
ATOM     15  H   UNL     1      -2.822  12.366  17.734  0.00  0.00    +0.000 HD
ENDROOT
BRANCH   1  18
ATOM     16  C   UNL     1       2.632   7.317  18.393  0.00  0.00    +0.000 C 
ATOM     17  O   UNL     1       3.434   7.967  17.732  0.00  0.00    +0.000 OA
ATOM     18  N   UNL     1       1.737   7.874  19.271  0.00  0.00    +0.000 N 
ATOM     19  H   UNL     1       1.158   7.230  19.803  0.00  0.00    +0.000 HD
BRANCH  16  22
ATOM     20  C   UNL     1       1.817   3.835  18.921  0.00  0.00    +0.000 A 
ATOM     21  N   UNL     1       1.665   5.124  19.139  0.00  0.00    +0.000 NA
ATOM     22  C   UNL     1       2.564   5.851  18.347  0.00  0.00    +0.000 A 
ATOM     23  C   UNL     1       3.384   5.072  17.553  0.00  0.00    +0.000 A 
ATOM     24  S   UNL     1       3.024   3.415  17.768  0.00  0.00    +0.000 S 
BRANCH  20  25
ATOM     25  C   UNL     1       1.046   2.752  19.622  0.00  0.00    +0.000 C 
BRANCH  25  27
ATOM     26  C   UNL     1       2.574   2.666  21.624  0.00  0.00    +0.000 C 
ATOM     27  C   UNL     1       1.146   2.880  21.142  0.00  0.00    +0.000 C 
ENDBRANCH  25  27
ENDBRANCH  20  25
ENDBRANCH  16  22
ENDBRANCH   1  18
BRANCH  14  28
ATOM     28  O   UNL     1       1.803  11.215  18.066  0.00  0.00    +0.000 OA
ATOM     29  H   UNL     1       2.432  11.441  18.772  0.00  0.00    +0.000 HD
ENDBRANCH  14  28
TORSDOF 5
ENDMDL
MODEL 4
REMARK VINA RESULT:      -7.7      2.870      4.454
REMARK  Name = 
REMARK  6 active torsions:
REMARK  status: ('A' for Active; 'I' for Inactive)
REMARK    1  A    between atoms: C_1  and  C_2
REMARK    2  A    between atoms: C_2  and  C_3
REMARK    3  A    between atoms: C_3  and  C_4
REMARK    4  A    between atoms: C_6  and  C_7
REMARK    5  A    between atoms: N_9  and  C_10
REMARK    6  A    between atoms: C_23  and  O_24
REMARK                            x       y       z     vdW  Elec       q    Type
REMARK                         _______ _______ _______ _____ _____    ______ ____
ROOT
ATOM      1  C   UNL     1       3.105   6.721  19.305  0.00  0.00    +0.000 C 
ATOM      2  C   UNL     1       3.938   6.364  18.117  0.00  0.00    +0.000 A 
ATOM      3  C   UNL     1       4.839   7.214  17.479  0.00  0.00    +0.000 A 
ATOM      4  C   UNL     1       5.480   6.769  16.330  0.00  0.00    +0.000 A 
ATOM      5  C   UNL     1       5.218   5.488  15.834  0.00  0.00    +0.000 A 
ATOM      6  C   UNL     1       4.333   4.630  16.495  0.00  0.00    +0.000 A 
ATOM      7  C   UNL     1       3.698   5.069  17.650  0.00  0.00    +0.000 A 
ATOM      8  C   UNL     1       2.712   4.315  18.527  0.00  0.00    +0.000 C 
ATOM      9  C   UNL     1       1.423   3.968  17.746  0.00  0.00    +0.000 C 
ATOM     10  C   UNL     1       0.476   3.096  18.580  0.00  0.00    +0.000 C 
ATOM     11  N   UNL     1       1.117   1.863  19.034  0.00  0.00    +0.000 NA
ATOM     12  C   UNL     1       2.315   2.148  19.825  0.00  0.00    +0.000 C 
ATOM     13  C   UNL     1       3.324   2.988  19.037  0.00  0.00    +0.000 C 
ATOM     14  C   UNL     1       2.413   5.368  19.668  0.00  0.00    +0.000 C 
ATOM     15  H   UNL     1       1.375   1.293  18.228  0.00  0.00    +0.000 HD
ENDROOT
BRANCH   1  18
ATOM     16  C   UNL     1       1.539   8.525  19.922  0.00  0.00    +0.000 C 
ATOM     17  O   UNL     1       1.609   8.298  21.124  0.00  0.00    +0.000 OA
ATOM     18  N   UNL     1       2.187   7.784  18.966  0.00  0.00    +0.000 N 
ATOM     19  H   UNL     1       2.097   8.099  18.004  0.00  0.00    +0.000 HD
BRANCH  16  22
ATOM     20  C   UNL     1      -0.935  10.627  18.332  0.00  0.00    +0.000 A 
ATOM     21  N   UNL     1      -0.474   9.470  18.757  0.00  0.00    +0.000 NA
ATOM     22  C   UNL     1       0.776   9.649  19.366  0.00  0.00    +0.000 A 
ATOM     23  C   UNL     1       1.227  10.955  19.370  0.00  0.00    +0.000 A 
ATOM     24  S   UNL     1       0.079  11.985  18.632  0.00  0.00    +0.000 S 
BRANCH  20  25
ATOM     25  C   UNL     1      -2.233  10.812  17.597  0.00  0.00    +0.000 C 
BRANCH  25  27
ATOM     26  C   UNL     1      -2.931  10.502  15.195  0.00  0.00    +0.000 C 
ATOM     27  C   UNL     1      -2.373   9.824  16.439  0.00  0.00    +0.000 C 
ENDBRANCH  25  27
ENDBRANCH  20  25
ENDBRANCH  16  22
ENDBRANCH   1  18
BRANCH  14  28
ATOM     28  O   UNL     1       2.879   4.920  20.950  0.00  0.00    +0.000 OA
ATOM     29  H   UNL     1       2.125   4.915  21.564  0.00  0.00    +0.000 HD
ENDBRANCH  14  28
TORSDOF 5
ENDMDL
MODEL 5
REMARK VINA RESULT:      -7.3      3.916      7.939
REMARK  Name = 
REMARK  6 active torsions:
REMARK  status: ('A' for Active; 'I' for Inactive)
REMARK    1  A    between atoms: C_1  and  C_2
REMARK    2  A    between atoms: C_2  and  C_3
REMARK    3  A    between atoms: C_3  and  C_4
REMARK    4  A    between atoms: C_6  and  C_7
REMARK    5  A    between atoms: N_9  and  C_10
REMARK    6  A    between atoms: C_23  and  O_24
REMARK                            x       y       z     vdW  Elec       q    Type
REMARK                         _______ _______ _______ _____ _____    ______ ____
ROOT
ATOM      1  C   UNL     1       4.609   4.568  17.874  0.00  0.00    +0.000 C 
ATOM      2  C   UNL     1       3.434   3.675  18.107  0.00  0.00    +0.000 A 
ATOM      3  C   UNL     1       3.417   2.296  17.906  0.00  0.00    +0.000 A 
ATOM      4  C   UNL     1       2.223   1.609  18.081  0.00  0.00    +0.000 A 
ATOM      5  C   UNL     1       1.066   2.300  18.456  0.00  0.00    +0.000 A 
ATOM      6  C   UNL     1       1.097   3.680  18.683  0.00  0.00    +0.000 A 
ATOM      7  C   UNL     1       2.293   4.368  18.518  0.00  0.00    +0.000 A 
ATOM      8  C   UNL     1       2.560   5.851  18.712  0.00  0.00    +0.000 C 
ATOM      9  C   UNL     1       1.736   6.702  17.719  0.00  0.00    +0.000 C 
ATOM     10  C   UNL     1       1.898   8.203  17.991  0.00  0.00    +0.000 C 
ATOM     11  N   UNL     1       1.528   8.559  19.360  0.00  0.00    +0.000 NA
ATOM     12  C   UNL     1       2.325   7.814  20.335  0.00  0.00    +0.000 C 
ATOM     13  C   UNL     1       2.180   6.302  20.144  0.00  0.00    +0.000 C 
ATOM     14  C   UNL     1       4.106   5.953  18.393  0.00  0.00    +0.000 C 
ATOM     15  H   UNL     1       0.539   8.359  19.511  0.00  0.00    +0.000 HD
ENDROOT
BRANCH   1  18
ATOM     16  C   UNL     1       6.276   4.453  16.059  0.00  0.00    +0.000 C 
ATOM     17  O   UNL     1       7.238   4.453  16.819  0.00  0.00    +0.000 OA
ATOM     18  N   UNL     1       4.973   4.556  16.476  0.00  0.00    +0.000 N 
ATOM     19  H   UNL     1       4.257   4.491  15.758  0.00  0.00    +0.000 HD
BRANCH  16  22
ATOM     20  C   UNL     1       5.851   3.569  12.580  0.00  0.00    +0.000 A 
ATOM     21  N   UNL     1       5.498   3.556  13.848  0.00  0.00    +0.000 NA
ATOM     22  C   UNL     1       6.409   4.305  14.605  0.00  0.00    +0.000 A 
ATOM     23  C   UNL     1       7.442   4.859  13.871  0.00  0.00    +0.000 A 
ATOM     24  S   UNL     1       7.272   4.469  12.215  0.00  0.00    +0.000 S 
BRANCH  20  25
ATOM     25  C   UNL     1       5.126   2.841  11.483  0.00  0.00    +0.000 C 
BRANCH  25  27
ATOM     26  C   UNL     1       3.313   3.719   9.969  0.00  0.00    +0.000 C 
ATOM     27  C   UNL     1       3.665   3.279  11.383  0.00  0.00    +0.000 C 
ENDBRANCH  25  27
ENDBRANCH  20  25
ENDBRANCH  16  22
ENDBRANCH   1  18
BRANCH  14  28
ATOM     28  O   UNL     1       4.869   6.340  19.546  0.00  0.00    +0.000 OA
ATOM     29  H   UNL     1       5.260   7.213  19.374  0.00  0.00    +0.000 HD
ENDBRANCH  14  28
TORSDOF 5
ENDMDL
MODEL 6
REMARK VINA RESULT:      -7.2      2.384      3.821
REMARK  Name = 
REMARK  6 active torsions:
REMARK  status: ('A' for Active; 'I' for Inactive)
REMARK    1  A    between atoms: C_1  and  C_2
REMARK    2  A    between atoms: C_2  and  C_3
REMARK    3  A    between atoms: C_3  and  C_4
REMARK    4  A    between atoms: C_6  and  C_7
REMARK    5  A    between atoms: N_9  and  C_10
REMARK    6  A    between atoms: C_23  and  O_24
REMARK                            x       y       z     vdW  Elec       q    Type
REMARK                         _______ _______ _______ _____ _____    ______ ____
ROOT
ATOM      1  C   UNL     1       3.293   6.462  19.353  0.00  0.00    +0.000 C 
ATOM      2  C   UNL     1       4.064   6.181  18.104  0.00  0.00    +0.000 A 
ATOM      3  C   UNL     1       4.917   7.078  17.464  0.00  0.00    +0.000 A 
ATOM      4  C   UNL     1       5.499   6.705  16.259  0.00  0.00    +0.000 A 
ATOM      5  C   UNL     1       5.227   5.448  15.710  0.00  0.00    +0.000 A 
ATOM      6  C   UNL     1       4.391   4.542  16.372  0.00  0.00    +0.000 A 
ATOM      7  C   UNL     1       3.816   4.909  17.582  0.00  0.00    +0.000 A 
ATOM      8  C   UNL     1       2.890   4.094  18.470  0.00  0.00    +0.000 C 
ATOM      9  C   UNL     1       1.564   3.768  17.744  0.00  0.00    +0.000 C 
ATOM     10  C   UNL     1       0.676   2.838  18.580  0.00  0.00    +0.000 C 
ATOM     11  N   UNL     1       1.358   1.593  18.931  0.00  0.00    +0.000 NA
ATOM     12  C   UNL     1       2.593   1.856  19.670  0.00  0.00    +0.000 C 
ATOM     13  C   UNL     1       3.546   2.752  18.874  0.00  0.00    +0.000 C 
ATOM     14  C   UNL     1       2.640   5.081  19.681  0.00  0.00    +0.000 C 
ATOM     15  H   UNL     1       1.577   1.072  18.083  0.00  0.00    +0.000 HD
ENDROOT
BRANCH   1  18
ATOM     16  C   UNL     1       1.651   8.124  20.145  0.00  0.00    +0.000 C 
ATOM     17  O   UNL     1       1.707   7.757  21.313  0.00  0.00    +0.000 OA
ATOM     18  N   UNL     1       2.344   7.526  19.123  0.00  0.00    +0.000 N 
ATOM     19  H   UNL     1       2.261   7.952  18.204  0.00  0.00    +0.000 HD
BRANCH  16  22
ATOM     20  C   UNL     1      -0.590  10.954  19.945  0.00  0.00    +0.000 A 
ATOM     21  N   UNL     1       0.014   9.975  20.586  0.00  0.00    +0.000 NA
ATOM     22  C   UNL     1       0.858   9.280  19.709  0.00  0.00    +0.000 A 
ATOM     23  C   UNL     1       0.856   9.761  18.413  0.00  0.00    +0.000 A 
ATOM     24  S   UNL     1      -0.188  11.108  18.279  0.00  0.00    +0.000 S 
BRANCH  20  25
ATOM     25  C   UNL     1      -1.596  11.885  20.560  0.00  0.00    +0.000 C 
BRANCH  25  27
ATOM     26  C   UNL     1      -1.703  12.045  23.073  0.00  0.00    +0.000 C 
ATOM     27  C   UNL     1      -1.042  12.573  21.808  0.00  0.00    +0.000 C 
ENDBRANCH  25  27
ENDBRANCH  20  25
ENDBRANCH  16  22
ENDBRANCH   1  18
BRANCH  14  28
ATOM     28  O   UNL     1       3.183   4.573  20.909  0.00  0.00    +0.000 OA
ATOM     29  H   UNL     1       3.717   5.274  21.320  0.00  0.00    +0.000 HD
ENDBRANCH  14  28
TORSDOF 5
ENDMDL
MODEL 7
REMARK VINA RESULT:      -7.1      2.758      4.311
REMARK  Name = 
REMARK  6 active torsions:
REMARK  status: ('A' for Active; 'I' for Inactive)
REMARK    1  A    between atoms: C_1  and  C_2
REMARK    2  A    between atoms: C_2  and  C_3
REMARK    3  A    between atoms: C_3  and  C_4
REMARK    4  A    between atoms: C_6  and  C_7
REMARK    5  A    between atoms: N_9  and  C_10
REMARK    6  A    between atoms: C_23  and  O_24
REMARK                            x       y       z     vdW  Elec       q    Type
REMARK                         _______ _______ _______ _____ _____    ______ ____
ROOT
ATOM      1  C   UNL     1       3.157   6.669  19.333  0.00  0.00    +0.000 C 
ATOM      2  C   UNL     1       3.983   6.317  18.139  0.00  0.00    +0.000 A 
ATOM      3  C   UNL     1       4.897   7.164  17.513  0.00  0.00    +0.000 A 
ATOM      4  C   UNL     1       5.530   6.728  16.356  0.00  0.00    +0.000 A 
ATOM      5  C   UNL     1       5.249   5.459  15.841  0.00  0.00    +0.000 A 
ATOM      6  C   UNL     1       4.351   4.603  16.489  0.00  0.00    +0.000 A 
ATOM      7  C   UNL     1       3.724   5.034  17.651  0.00  0.00    +0.000 A 
ATOM      8  C   UNL     1       2.727   4.281  18.517  0.00  0.00    +0.000 C 
ATOM      9  C   UNL     1       1.433   3.966  17.733  0.00  0.00    +0.000 C 
ATOM     10  C   UNL     1       0.473   3.095  18.554  0.00  0.00    +0.000 C 
ATOM     11  N   UNL     1       1.096   1.845  18.988  0.00  0.00    +0.000 NA
ATOM     12  C   UNL     1       2.298   2.100  19.782  0.00  0.00    +0.000 C 
ATOM     13  C   UNL     1       3.319   2.937  19.006  0.00  0.00    +0.000 C 
ATOM     14  C   UNL     1       2.445   5.321  19.675  0.00  0.00    +0.000 C 
ATOM     15  H   UNL     1       1.344   1.285  18.172  0.00  0.00    +0.000 HD
ENDROOT
BRANCH   1  18
ATOM     16  C   UNL     1       1.580   8.453  19.978  0.00  0.00    +0.000 C 
ATOM     17  O   UNL     1       1.612   8.175  21.171  0.00  0.00    +0.000 OA
ATOM     18  N   UNL     1       2.254   7.750  19.012  0.00  0.00    +0.000 N 
ATOM     19  H   UNL     1       2.196   8.107  18.062  0.00  0.00    +0.000 HD
BRANCH  16  22
ATOM     20  C   UNL     1       0.574  11.702  18.753  0.00  0.00    +0.000 A 
ATOM     21  N   UNL     1       1.457  10.841  19.212  0.00  0.00    +0.000 NA
ATOM     22  C   UNL     1       0.840   9.604  19.447  0.00  0.00    +0.000 A 
ATOM     23  C   UNL     1      -0.513   9.578  19.162  0.00  0.00    +0.000 A 
ATOM     24  S   UNL     1      -1.027  11.097  18.571  0.00  0.00    +0.000 S 
BRANCH  20  25
ATOM     25  C   UNL     1       0.871  13.138  18.425  0.00  0.00    +0.000 C 
BRANCH  25  27
ATOM     26  C   UNL     1       2.993  14.351  19.041  0.00  0.00    +0.000 C 
ATOM     27  C   UNL     1       2.349  13.348  18.094  0.00  0.00    +0.000 C 
ENDBRANCH  25  27
ENDBRANCH  20  25
ENDBRANCH  16  22
ENDBRANCH   1  18
BRANCH  14  28
ATOM     28  O   UNL     1       2.905   4.845  20.950  0.00  0.00    +0.000 OA
ATOM     29  H   UNL     1       2.273   5.135  21.630  0.00  0.00    +0.000 HD
ENDBRANCH  14  28
TORSDOF 5
ENDMDL
MODEL 8
REMARK VINA RESULT:      -7.0      4.820      8.268
REMARK  Name = 
REMARK  6 active torsions:
REMARK  status: ('A' for Active; 'I' for Inactive)
REMARK    1  A    between atoms: C_1  and  C_2
REMARK    2  A    between atoms: C_2  and  C_3
REMARK    3  A    between atoms: C_3  and  C_4
REMARK    4  A    between atoms: C_6  and  C_7
REMARK    5  A    between atoms: N_9  and  C_10
REMARK    6  A    between atoms: C_23  and  O_24
REMARK                            x       y       z     vdW  Elec       q    Type
REMARK                         _______ _______ _______ _____ _____    ______ ____
ROOT
ATOM      1  C   UNL     1       4.767   6.439  16.741  0.00  0.00    +0.000 C 
ATOM      2  C   UNL     1       5.904   6.366  17.708  0.00  0.00    +0.000 A 
ATOM      3  C   UNL     1       7.117   7.041  17.578  0.00  0.00    +0.000 A 
ATOM      4  C   UNL     1       8.117   6.806  18.514  0.00  0.00    +0.000 A 
ATOM      5  C   UNL     1       7.896   5.907  19.562  0.00  0.00    +0.000 A 
ATOM      6  C   UNL     1       6.667   5.254  19.702  0.00  0.00    +0.000 A 
ATOM      7  C   UNL     1       5.663   5.495  18.773  0.00  0.00    +0.000 A 
ATOM      8  C   UNL     1       4.261   4.909  18.729  0.00  0.00    +0.000 C 
ATOM      9  C   UNL     1       4.303   3.374  18.539  0.00  0.00    +0.000 C 
ATOM     10  C   UNL     1       2.902   2.756  18.623  0.00  0.00    +0.000 C 
ATOM     11  N   UNL     1       2.234   3.072  19.885  0.00  0.00    +0.000 NA
ATOM     12  C   UNL     1       2.124   4.518  20.078  0.00  0.00    +0.000 C 
ATOM     13  C   UNL     1       3.496   5.198  20.043  0.00  0.00    +0.000 C 
ATOM     14  C   UNL     1       3.646   5.617  17.455  0.00  0.00    +0.000 C 
ATOM     15  H   UNL     1       2.758   2.668  20.661  0.00  0.00    +0.000 HD
ENDROOT
BRANCH   1  18
ATOM     16  C   UNL     1       5.883   4.741  15.343  0.00  0.00    +0.000 C 
ATOM     17  O   UNL     1       6.315   4.107  16.299  0.00  0.00    +0.000 OA
ATOM     18  N   UNL     1       5.168   5.906  15.460  0.00  0.00    +0.000 N 
ATOM     19  H   UNL     1       4.815   6.314  14.599  0.00  0.00    +0.000 HD
BRANCH  16  22
ATOM     20  C   UNL     1       5.434   3.357  12.033  0.00  0.00    +0.000 A 
ATOM     21  N   UNL     1       5.024   3.659  13.247  0.00  0.00    +0.000 NA
ATOM     22  C   UNL     1       6.051   4.301  13.952  0.00  0.00    +0.000 A 
ATOM     23  C   UNL     1       7.224   4.455  13.238  0.00  0.00    +0.000 A 
ATOM     24  S   UNL     1       7.050   3.819  11.661  0.00  0.00    +0.000 S 
BRANCH  20  25
ATOM     25  C   UNL     1       4.610   2.629  11.009  0.00  0.00    +0.000 C 
BRANCH  25  27
ATOM     26  C   UNL     1       3.096   4.080   9.612  0.00  0.00    +0.000 C 
ATOM     27  C   UNL     1       3.214   3.235  10.872  0.00  0.00    +0.000 C 
ENDBRANCH  25  27
ENDBRANCH  20  25
ENDBRANCH  16  22
ENDBRANCH   1  18
BRANCH  14  28
ATOM     28  O   UNL     1       2.556   6.487  17.797  0.00  0.00    +0.000 OA
ATOM     29  H   UNL     1       1.742   6.120  17.413  0.00  0.00    +0.000 HD
ENDBRANCH  14  28
TORSDOF 5
ENDMDL
MODEL 9
REMARK VINA RESULT:      -6.9      3.840      8.274
REMARK  Name = 
REMARK  6 active torsions:
REMARK  status: ('A' for Active; 'I' for Inactive)
REMARK    1  A    between atoms: C_1  and  C_2
REMARK    2  A    between atoms: C_2  and  C_3
REMARK    3  A    between atoms: C_3  and  C_4
REMARK    4  A    between atoms: C_6  and  C_7
REMARK    5  A    between atoms: N_9  and  C_10
REMARK    6  A    between atoms: C_23  and  O_24
REMARK                            x       y       z     vdW  Elec       q    Type
REMARK                         _______ _______ _______ _____ _____    ______ ____
ROOT
ATOM      1  C   UNL     1       4.588   4.400  18.010  0.00  0.00    +0.000 C 
ATOM      2  C   UNL     1       3.385   3.539  18.220  0.00  0.00    +0.000 A 
ATOM      3  C   UNL     1       3.334   2.161  18.014  0.00  0.00    +0.000 A 
ATOM      4  C   UNL     1       2.118   1.507  18.166  0.00  0.00    +0.000 A 
ATOM      5  C   UNL     1       0.975   2.228  18.523  0.00  0.00    +0.000 A 
ATOM      6  C   UNL     1       1.039   3.607  18.755  0.00  0.00    +0.000 A 
ATOM      7  C   UNL     1       2.256   4.262  18.612  0.00  0.00    +0.000 A 
ATOM      8  C   UNL     1       2.560   5.737  18.817  0.00  0.00    +0.000 C 
ATOM      9  C   UNL     1       1.777   6.613  17.812  0.00  0.00    +0.000 C 
ATOM     10  C   UNL     1       1.975   8.108  18.091  0.00  0.00    +0.000 C 
ATOM     11  N   UNL     1       1.591   8.470  19.455  0.00  0.00    +0.000 NA
ATOM     12  C   UNL     1       2.350   7.701  20.441  0.00  0.00    +0.000 C 
ATOM     13  C   UNL     1       2.167   6.194  20.243  0.00  0.00    +0.000 C 
ATOM     14  C   UNL     1       4.113   5.797  18.525  0.00  0.00    +0.000 C 
ATOM     15  H   UNL     1       0.595   8.296  19.588  0.00  0.00    +0.000 HD
ENDROOT
BRANCH   1  18
ATOM     16  C   UNL     1       6.257   4.656  16.211  0.00  0.00    +0.000 C 
ATOM     17  O   UNL     1       7.149   5.022  16.968  0.00  0.00    +0.000 OA
ATOM     18  N   UNL     1       4.976   4.382  16.619  0.00  0.00    +0.000 N 
ATOM     19  H   UNL     1       4.336   4.034  15.910  0.00  0.00    +0.000 HD
BRANCH  16  22
ATOM     20  C   UNL     1       6.108   3.487  12.794  0.00  0.00    +0.000 A 
ATOM     21  N   UNL     1       5.710   3.506  14.048  0.00  0.00    +0.000 NA
ATOM     22  C   UNL     1       6.470   4.432  14.776  0.00  0.00    +0.000 A 
ATOM     23  C   UNL     1       7.439   5.083  14.036  0.00  0.00    +0.000 A 
ATOM     24  S   UNL     1       7.396   4.562  12.409  0.00  0.00    +0.000 S 
BRANCH  20  25
ATOM     25  C   UNL     1       5.543   2.588  11.731  0.00  0.00    +0.000 C 
BRANCH  25  27
ATOM     26  C   UNL     1       6.165   0.198  11.228  0.00  0.00    +0.000 C 
ATOM     27  C   UNL     1       6.608   1.652  11.157  0.00  0.00    +0.000 C 
ENDBRANCH  25  27
ENDBRANCH  20  25
ENDBRANCH  16  22
ENDBRANCH   1  18
BRANCH  14  28
ATOM     28  O   UNL     1       4.867   6.160  19.692  0.00  0.00    +0.000 OA
ATOM     29  H   UNL     1       4.630   7.070  19.937  0.00  0.00    +0.000 HD
ENDBRANCH  14  28
TORSDOF 5
ENDMDL
