MODEL 1
REMARK VINA RESULT:      -7.0      0.000      0.000
REMARK  Name = 
REMARK  6 active torsions:
REMARK  status: ('A' for Active; 'I' for Inactive)
REMARK    1  A    between atoms: C_1  and  C_2
REMARK    2  A    between atoms: C_2  and  C_3
REMARK    3  A    between atoms: C_3  and  C_4
REMARK    4  A    between atoms: C_8  and  O_9
REMARK    5  A    between atoms: O_9  and  C_10
REMARK    6  A    between atoms: C_12  and  O_13
REMARK                            x       y       z     vdW  Elec       q    Type
REMARK                         _______ _______ _______ _____ _____    ______ ____
ROOT
ATOM      1  C   UNL     1       3.547   4.926  19.254  0.00  0.00    +0.000 C 
ATOM      2  C   UNL     1       3.450   5.342  17.791  0.00  0.00    +0.000 C 
ATOM      3  C   UNL     1       4.689   4.912  17.060  0.00  0.00    +0.000 A 
ATOM      4  C   UNL     1       4.640   4.656  15.681  0.00  0.00    +0.000 A 
ATOM      5  C   UNL     1       5.776   4.235  14.988  0.00  0.00    +0.000 A 
ATOM      6  C   UNL     1       6.974   4.070  15.682  0.00  0.00    +0.000 A 
ATOM      7  C   UNL     1       7.037   4.344  17.055  0.00  0.00    +0.000 A 
ATOM      8  C   UNL     1       5.905   4.787  17.755  0.00  0.00    +0.000 A 
ATOM      9  C   UNL     1       5.967   5.155  19.209  0.00  0.00    +0.000 C 
ATOM     10  O   UNL     1       7.011   5.275  19.834  0.00  0.00    +0.000 OA
ATOM     11  O   UNL     1       4.777   5.424  19.811  0.00  0.00    +0.000 OA
ENDROOT
BRANCH   5  12
ATOM     12  O   UNL     1       5.580   4.014  13.653  0.00  0.00    +0.000 OA
ATOM     13  C   UNL     1       6.734   4.000  12.822  0.00  0.00    +0.000 C 
ENDBRANCH   5  12
BRANCH   7  14
ATOM     14  O   UNL     1       8.222   4.148  17.703  0.00  0.00    +0.000 OA
ATOM     15  H   UNL     1       8.131   4.324  18.653  0.00  0.00    +0.000 HD
ENDBRANCH   7  14
BRANCH   1  16
ATOM     16  C   UNL     1       3.426   3.411  19.500  0.00  0.00    +0.000 C 
BRANCH  16  18
ATOM     17  C   UNL     1       1.209   3.446  20.705  0.00  0.00    +0.000 C 
ATOM     18  C   UNL     1       2.687   3.102  20.806  0.00  0.00    +0.000 C 
ENDBRANCH  16  18
ENDBRANCH   1  16
TORSDOF 4
ENDMDL
MODEL 2
REMARK VINA RESULT:      -6.9      0.698      1.014
REMARK  Name = 
REMARK  6 active torsions:
REMARK  status: ('A' for Active; 'I' for Inactive)
REMARK    1  A    between atoms: C_1  and  C_2
REMARK    2  A    between atoms: C_2  and  C_3
REMARK    3  A    between atoms: C_3  and  C_4
REMARK    4  A    between atoms: C_8  and  O_9
REMARK    5  A    between atoms: O_9  and  C_10
REMARK    6  A    between atoms: C_12  and  O_13
REMARK                            x       y       z     vdW  Elec       q    Type
REMARK                         _______ _______ _______ _____ _____    ______ ____
ROOT
ATOM      1  C   UNL     1       3.698   5.218  19.348  0.00  0.00    +0.000 C 
ATOM      2  C   UNL     1       3.590   5.678  17.899  0.00  0.00    +0.000 C 
ATOM      3  C   UNL     1       4.767   5.169  17.119  0.00  0.00    +0.000 A 
ATOM      4  C   UNL     1       4.656   4.953  15.737  0.00  0.00    +0.000 A 
ATOM      5  C   UNL     1       5.732   4.461  14.998  0.00  0.00    +0.000 A 
ATOM      6  C   UNL     1       6.934   4.183  15.648  0.00  0.00    +0.000 A 
ATOM      7  C   UNL     1       7.060   4.415  17.025  0.00  0.00    +0.000 A 
ATOM      8  C   UNL     1       5.990   4.930  17.771  0.00  0.00    +0.000 A 
ATOM      9  C   UNL     1       6.126   5.254  19.231  0.00  0.00    +0.000 C 
ATOM     10  O   UNL     1       7.195   5.274  19.824  0.00  0.00    +0.000 OA
ATOM     11  O   UNL     1       4.980   5.602  19.877  0.00  0.00    +0.000 OA
ENDROOT
BRANCH   5  12
ATOM     12  O   UNL     1       5.479   4.291  13.665  0.00  0.00    +0.000 OA
ATOM     13  C   UNL     1       6.490   3.661  12.887  0.00  0.00    +0.000 C 
ENDBRANCH   5  12
BRANCH   7  14
ATOM     14  O   UNL     1       8.246   4.110  17.630  0.00  0.00    +0.000 OA
ATOM     15  H   UNL     1       8.096   3.688  18.490  0.00  0.00    +0.000 HD
ENDBRANCH   7  14
BRANCH   1  16
ATOM     16  C   UNL     1       3.463   3.712  19.563  0.00  0.00    +0.000 C 
BRANCH  16  18
ATOM     17  C   UNL     1       2.600   2.158  17.772  0.00  0.00    +0.000 C 
ATOM     18  C   UNL     1       2.229   3.213  18.803  0.00  0.00    +0.000 C 
ENDBRANCH  16  18
ENDBRANCH   1  16
TORSDOF 4
ENDMDL
MODEL 3
REMARK VINA RESULT:      -6.7      2.594      4.933
REMARK  Name = 
REMARK  6 active torsions:
REMARK  status: ('A' for Active; 'I' for Inactive)
REMARK    1  A    between atoms: C_1  and  C_2
REMARK    2  A    between atoms: C_2  and  C_3
REMARK    3  A    between atoms: C_3  and  C_4
REMARK    4  A    between atoms: C_8  and  O_9
REMARK    5  A    between atoms: O_9  and  C_10
REMARK    6  A    between atoms: C_12  and  O_13
REMARK                            x       y       z     vdW  Elec       q    Type
REMARK                         _______ _______ _______ _____ _____    ______ ____
ROOT
ATOM      1  C   UNL     1       4.983   4.600  16.158  0.00  0.00    +0.000 C 
ATOM      2  C   UNL     1       5.134   6.116  16.203  0.00  0.00    +0.000 C 
ATOM      3  C   UNL     1       6.209   6.488  17.183  0.00  0.00    +0.000 A 
ATOM      4  C   UNL     1       6.924   7.685  17.023  0.00  0.00    +0.000 A 
ATOM      5  C   UNL     1       7.941   8.038  17.912  0.00  0.00    +0.000 A 
ATOM      6  C   UNL     1       8.244   7.185  18.972  0.00  0.00    +0.000 A 
ATOM      7  C   UNL     1       7.521   5.997  19.151  0.00  0.00    +0.000 A 
ATOM      8  C   UNL     1       6.484   5.646  18.274  0.00  0.00    +0.000 A 
ATOM      9  C   UNL     1       5.649   4.416  18.489  0.00  0.00    +0.000 C 
ATOM     10  O   UNL     1       5.680   3.745  19.511  0.00  0.00    +0.000 OA
ATOM     11  O   UNL     1       4.778   4.101  17.492  0.00  0.00    +0.000 OA
ENDROOT
BRANCH   5  12
ATOM     12  O   UNL     1       8.557   9.225  17.630  0.00  0.00    +0.000 OA
ATOM     13  C   UNL     1       8.964  10.023  18.736  0.00  0.00    +0.000 C 
ENDBRANCH   5  12
BRANCH   7  14
ATOM     14  O   UNL     1       7.863   5.177  20.188  0.00  0.00    +0.000 OA
ATOM     15  H   UNL     1       8.802   4.937  20.143  0.00  0.00    +0.000 HD
ENDBRANCH   7  14
BRANCH   1  16
ATOM     16  C   UNL     1       6.153   3.858  15.486  0.00  0.00    +0.000 C 
BRANCH  16  18
ATOM     17  C   UNL     1       6.101   3.599  12.976  0.00  0.00    +0.000 C 
ATOM     18  C   UNL     1       6.526   4.484  14.138  0.00  0.00    +0.000 C 
ENDBRANCH  16  18
ENDBRANCH   1  16
TORSDOF 4
ENDMDL
MODEL 4
REMARK VINA RESULT:      -6.7      2.742      5.443
REMARK  Name = 
REMARK  6 active torsions:
REMARK  status: ('A' for Active; 'I' for Inactive)
REMARK    1  A    between atoms: C_1  and  C_2
REMARK    2  A    between atoms: C_2  and  C_3
REMARK    3  A    between atoms: C_3  and  C_4
REMARK    4  A    between atoms: C_8  and  O_9
REMARK    5  A    between atoms: O_9  and  C_10
REMARK    6  A    between atoms: C_12  and  O_13
REMARK                            x       y       z     vdW  Elec       q    Type
REMARK                         _______ _______ _______ _____ _____    ______ ____
ROOT
ATOM      1  C   UNL     1       6.966   5.750  17.189  0.00  0.00    +0.000 C 
ATOM      2  C   UNL     1       5.762   6.301  16.435  0.00  0.00    +0.000 C 
ATOM      3  C   UNL     1       4.608   6.471  17.381  0.00  0.00    +0.000 A 
ATOM      4  C   UNL     1       3.621   7.434  17.122  0.00  0.00    +0.000 A 
ATOM      5  C   UNL     1       2.552   7.621  18.000  0.00  0.00    +0.000 A 
ATOM      6  C   UNL     1       2.469   6.833  19.147  0.00  0.00    +0.000 A 
ATOM      7  C   UNL     1       3.439   5.855  19.403  0.00  0.00    +0.000 A 
ATOM      8  C   UNL     1       4.505   5.647  18.515  0.00  0.00    +0.000 A 
ATOM      9  C   UNL     1       5.515   4.557  18.732  0.00  0.00    +0.000 C 
ATOM     10  O   UNL     1       5.388   3.672  19.567  0.00  0.00    +0.000 OA
ATOM     11  O   UNL     1       6.583   4.553  17.889  0.00  0.00    +0.000 OA
ENDROOT
BRANCH   5  12
ATOM     12  O   UNL     1       1.672   8.598  17.627  0.00  0.00    +0.000 OA
ATOM     13  C   UNL     1       1.757   9.843  18.311  0.00  0.00    +0.000 C 
ENDBRANCH   5  12
BRANCH   7  14
ATOM     14  O   UNL     1       3.335   5.120  20.549  0.00  0.00    +0.000 OA
ATOM     15  H   UNL     1       3.745   4.248  20.439  0.00  0.00    +0.000 HD
ENDBRANCH   7  14
BRANCH   1  16
ATOM     16  C   UNL     1       7.628   6.745  18.160  0.00  0.00    +0.000 C 
BRANCH  16  18
ATOM     17  C   UNL     1       8.530   9.083  18.456  0.00  0.00    +0.000 C 
ATOM     18  C   UNL     1       7.763   8.141  17.541  0.00  0.00    +0.000 C 
ENDBRANCH  16  18
ENDBRANCH   1  16
TORSDOF 4
ENDMDL
MODEL 5
REMARK VINA RESULT:      -6.6      2.054      5.478
REMARK  Name = 
REMARK  6 active torsions:
REMARK  status: ('A' for Active; 'I' for Inactive)
REMARK    1  A    between atoms: C_1  and  C_2
REMARK    2  A    between atoms: C_2  and  C_3
REMARK    3  A    between atoms: C_3  and  C_4
REMARK    4  A    between atoms: C_8  and  O_9
REMARK    5  A    between atoms: O_9  and  C_10
REMARK    6  A    between atoms: C_12  and  O_13
REMARK                            x       y       z     vdW  Elec       q    Type
REMARK                         _______ _______ _______ _____ _____    ______ ____
ROOT
ATOM      1  C   UNL     1       6.354   4.092  15.298  0.00  0.00    +0.000 C 
ATOM      2  C   UNL     1       5.562   3.272  16.310  0.00  0.00    +0.000 C 
ATOM      3  C   UNL     1       4.486   4.123  16.920  0.00  0.00    +0.000 A 
ATOM      4  C   UNL     1       3.315   3.530  17.415  0.00  0.00    +0.000 A 
ATOM      5  C   UNL     1       2.295   4.307  17.968  0.00  0.00    +0.000 A 
ATOM      6  C   UNL     1       2.450   5.691  18.026  0.00  0.00    +0.000 A 
ATOM      7  C   UNL     1       3.626   6.290  17.553  0.00  0.00    +0.000 A 
ATOM      8  C   UNL     1       4.664   5.514  17.016  0.00  0.00    +0.000 A 
ATOM      9  C   UNL     1       5.960   6.127  16.569  0.00  0.00    +0.000 C 
ATOM     10  O   UNL     1       6.279   7.284  16.803  0.00  0.00    +0.000 OA
ATOM     11  O   UNL     1       6.827   5.297  15.928  0.00  0.00    +0.000 OA
ENDROOT
BRANCH   5  12
ATOM     12  O   UNL     1       1.210   3.598  18.401  0.00  0.00    +0.000 OA
ATOM     13  C   UNL     1       1.024   3.492  19.808  0.00  0.00    +0.000 C 
ENDBRANCH   5  12
BRANCH   7  14
ATOM     14  O   UNL     1       3.730   7.650  17.607  0.00  0.00    +0.000 OA
ATOM     15  H   UNL     1       4.415   7.969  16.999  0.00  0.00    +0.000 HD
ENDBRANCH   7  14
BRANCH   1  16
ATOM     16  C   UNL     1       5.589   4.432  14.006  0.00  0.00    +0.000 C 
BRANCH  16  18
ATOM     17  C   UNL     1       4.941   3.239  11.878  0.00  0.00    +0.000 C 
ATOM     18  C   UNL     1       6.082   3.602  12.816  0.00  0.00    +0.000 C 
ENDBRANCH  16  18
ENDBRANCH   1  16
TORSDOF 4
ENDMDL
MODEL 6
REMARK VINA RESULT:      -6.5      2.330      5.366
REMARK  Name = 
REMARK  6 active torsions:
REMARK  status: ('A' for Active; 'I' for Inactive)
REMARK    1  A    between atoms: C_1  and  C_2
REMARK    2  A    between atoms: C_2  and  C_3
REMARK    3  A    between atoms: C_3  and  C_4
REMARK    4  A    between atoms: C_8  and  O_9
REMARK    5  A    between atoms: O_9  and  C_10
REMARK    6  A    between atoms: C_12  and  O_13
REMARK                            x       y       z     vdW  Elec       q    Type
REMARK                         _______ _______ _______ _____ _____    ______ ____
ROOT
ATOM      1  C   UNL     1       5.515   6.529  17.154  0.00  0.00    +0.000 C 
ATOM      2  C   UNL     1       4.049   6.601  17.565  0.00  0.00    +0.000 C 
ATOM      3  C   UNL     1       3.570   5.236  17.968  0.00  0.00    +0.000 A 
ATOM      4  C   UNL     1       2.513   5.102  18.881  0.00  0.00    +0.000 A 
ATOM      5  C   UNL     1       2.067   3.842  19.283  0.00  0.00    +0.000 A 
ATOM      6  C   UNL     1       2.684   2.704  18.763  0.00  0.00    +0.000 A 
ATOM      7  C   UNL     1       3.726   2.829  17.834  0.00  0.00    +0.000 A 
ATOM      8  C   UNL     1       4.166   4.092  17.410  0.00  0.00    +0.000 A 
ATOM      9  C   UNL     1       5.231   4.248  16.363  0.00  0.00    +0.000 C 
ATOM     10  O   UNL     1       5.653   3.323  15.682  0.00  0.00    +0.000 OA
ATOM     11  O   UNL     1       5.678   5.514  16.146  0.00  0.00    +0.000 OA
ENDROOT
BRANCH   5  12
ATOM     12  O   UNL     1       1.038   3.862  20.183  0.00  0.00    +0.000 OA
ATOM     13  C   UNL     1       1.157   3.019  21.323  0.00  0.00    +0.000 C 
ENDBRANCH   5  12
BRANCH   7  14
ATOM     14  O   UNL     1       4.319   1.692  17.366  0.00  0.00    +0.000 OA
ATOM     15  H   UNL     1       5.091   1.458  17.905  0.00  0.00    +0.000 HD
ENDBRANCH   7  14
BRANCH   1  16
ATOM     16  C   UNL     1       6.498   6.289  18.315  0.00  0.00    +0.000 C 
BRANCH  16  18
ATOM     17  C   UNL     1       7.713   8.395  17.641  0.00  0.00    +0.000 C 
ATOM     18  C   UNL     1       7.860   6.939  18.052  0.00  0.00    +0.000 C 
ENDBRANCH  16  18
ENDBRANCH   1  16
TORSDOF 4
ENDMDL
MODEL 7
REMARK VINA RESULT:      -6.3      0.840      1.098
REMARK  Name = 
REMARK  6 active torsions:
REMARK  status: ('A' for Active; 'I' for Inactive)
REMARK    1  A    between atoms: C_1  and  C_2
REMARK    2  A    between atoms: C_2  and  C_3
REMARK    3  A    between atoms: C_3  and  C_4
REMARK    4  A    between atoms: C_8  and  O_9
REMARK    5  A    between atoms: O_9  and  C_10
REMARK    6  A    between atoms: C_12  and  O_13
REMARK                            x       y       z     vdW  Elec       q    Type
REMARK                         _______ _______ _______ _____ _____    ______ ____
ROOT
ATOM      1  C   UNL     1       3.428   4.803  18.758  0.00  0.00    +0.000 C 
ATOM      2  C   UNL     1       3.579   5.378  17.355  0.00  0.00    +0.000 C 
ATOM      3  C   UNL     1       4.956   5.086  16.834  0.00  0.00    +0.000 A 
ATOM      4  C   UNL     1       5.180   4.986  15.453  0.00  0.00    +0.000 A 
ATOM      5  C   UNL     1       6.449   4.695  14.950  0.00  0.00    +0.000 A 
ATOM      6  C   UNL     1       7.505   4.502  15.840  0.00  0.00    +0.000 A 
ATOM      7  C   UNL     1       7.295   4.621  17.220  0.00  0.00    +0.000 A 
ATOM      8  C   UNL     1       6.027   4.934  17.732  0.00  0.00    +0.000 A 
ATOM      9  C   UNL     1       5.795   5.137  19.202  0.00  0.00    +0.000 C 
ATOM     10  O   UNL     1       6.695   5.229  20.024  0.00  0.00    +0.000 OA
ATOM     11  O   UNL     1       4.499   5.285  19.589  0.00  0.00    +0.000 OA
ENDROOT
BRANCH   5  12
ATOM     12  O   UNL     1       6.519   4.619  13.587  0.00  0.00    +0.000 OA
ATOM     13  C   UNL     1       5.808   3.559  12.959  0.00  0.00    +0.000 C 
ENDBRANCH   5  12
BRANCH   7  14
ATOM     14  O   UNL     1       8.349   4.403  18.060  0.00  0.00    +0.000 OA
ATOM     15  H   UNL     1       9.072   3.952  17.597  0.00  0.00    +0.000 HD
ENDBRANCH   7  14
BRANCH   1  16
ATOM     16  C   UNL     1       3.358   3.266  18.818  0.00  0.00    +0.000 C 
BRANCH  16  18
ATOM     17  C   UNL     1       4.569   1.861  20.529  0.00  0.00    +0.000 C 
ATOM     18  C   UNL     1       3.365   2.750  20.261  0.00  0.00    +0.000 C 
ENDBRANCH  16  18
ENDBRANCH   1  16
TORSDOF 4
ENDMDL
MODEL 8
REMARK VINA RESULT:      -6.3      2.590      5.889
REMARK  Name = 
REMARK  6 active torsions:
REMARK  status: ('A' for Active; 'I' for Inactive)
REMARK    1  A    between atoms: C_1  and  C_2
REMARK    2  A    between atoms: C_2  and  C_3
REMARK    3  A    between atoms: C_3  and  C_4
REMARK    4  A    between atoms: C_8  and  O_9
REMARK    5  A    between atoms: O_9  and  C_10
REMARK    6  A    between atoms: C_12  and  O_13
REMARK                            x       y       z     vdW  Elec       q    Type
REMARK                         _______ _______ _______ _____ _____    ______ ____
ROOT
ATOM      1  C   UNL     1       5.021   4.746  17.116  0.00  0.00    +0.000 C 
ATOM      2  C   UNL     1       4.144   5.948  17.448  0.00  0.00    +0.000 C 
ATOM      3  C   UNL     1       3.172   5.581  18.531  0.00  0.00    +0.000 A 
ATOM      4  C   UNL     1       2.667   6.570  19.390  0.00  0.00    +0.000 A 
ATOM      5  C   UNL     1       1.779   6.245  20.416  0.00  0.00    +0.000 A 
ATOM      6  C   UNL     1       1.389   4.916  20.583  0.00  0.00    +0.000 A 
ATOM      7  C   UNL     1       1.872   3.926  19.717  0.00  0.00    +0.000 A 
ATOM      8  C   UNL     1       2.749   4.248  18.671  0.00  0.00    +0.000 A 
ATOM      9  C   UNL     1       3.221   3.215  17.688  0.00  0.00    +0.000 C 
ATOM     10  O   UNL     1       2.750   2.089  17.607  0.00  0.00    +0.000 OA
ATOM     11  O   UNL     1       4.185   3.615  16.814  0.00  0.00    +0.000 OA
ENDROOT
BRANCH   5  12
ATOM     12  O   UNL     1       1.377   7.305  21.179  0.00  0.00    +0.000 OA
ATOM     13  C   UNL     1       1.262   8.566  20.529  0.00  0.00    +0.000 C 
ENDBRANCH   5  12
BRANCH   7  14
ATOM     14  O   UNL     1       1.485   2.633  19.927  0.00  0.00    +0.000 OA
ATOM     15  H   UNL     1       0.913   2.322  19.209  0.00  0.00    +0.000 HD
ENDBRANCH   7  14
BRANCH   1  16
ATOM     16  C   UNL     1       6.043   4.377  18.206  0.00  0.00    +0.000 C 
BRANCH  16  18
ATOM     17  C   UNL     1       7.773   6.124  18.774  0.00  0.00    +0.000 C 
ATOM     18  C   UNL     1       7.437   4.931  17.893  0.00  0.00    +0.000 C 
ENDBRANCH  16  18
ENDBRANCH   1  16
TORSDOF 4
ENDMDL
MODEL 9
REMARK VINA RESULT:      -6.3      2.825      4.324
REMARK  Name = 
REMARK  6 active torsions:
REMARK  status: ('A' for Active; 'I' for Inactive)
REMARK    1  A    between atoms: C_1  and  C_2
REMARK    2  A    between atoms: C_2  and  C_3
REMARK    3  A    between atoms: C_3  and  C_4
REMARK    4  A    between atoms: C_8  and  O_9
REMARK    5  A    between atoms: O_9  and  C_10
REMARK    6  A    between atoms: C_12  and  O_13
REMARK                            x       y       z     vdW  Elec       q    Type
REMARK                         _______ _______ _______ _____ _____    ______ ____
ROOT
ATOM      1  C   UNL     1       1.918   4.110  20.640  0.00  0.00    +0.000 C 
ATOM      2  C   UNL     1       1.781   5.628  20.668  0.00  0.00    +0.000 C 
ATOM      3  C   UNL     1       2.537   6.225  19.517  0.00  0.00    +0.000 A 
ATOM      4  C   UNL     1       2.144   7.461  18.982  0.00  0.00    +0.000 A 
ATOM      5  C   UNL     1       2.822   8.023  17.899  0.00  0.00    +0.000 A 
ATOM      6  C   UNL     1       3.906   7.341  17.347  0.00  0.00    +0.000 A 
ATOM      7  C   UNL     1       4.318   6.116  17.889  0.00  0.00    +0.000 A 
ATOM      8  C   UNL     1       3.655   5.555  18.990  0.00  0.00    +0.000 A 
ATOM      9  C   UNL     1       4.124   4.281  19.631  0.00  0.00    +0.000 C 
ATOM     10  O   UNL     1       5.194   3.746  19.375  0.00  0.00    +0.000 OA
ATOM     11  O   UNL     1       3.313   3.759  20.591  0.00  0.00    +0.000 OA
ENDROOT
BRANCH   5  12
ATOM     12  O   UNL     1       2.325   9.224  17.476  0.00  0.00    +0.000 OA
ATOM     13  C   UNL     1       1.108   9.666  18.066  0.00  0.00    +0.000 C 
ENDBRANCH   5  12
BRANCH   7  14
ATOM     14  O   UNL     1       5.370   5.468  17.306  0.00  0.00    +0.000 OA
ATOM     15  H   UNL     1       6.130   6.062  17.208  0.00  0.00    +0.000 HD
ENDBRANCH   7  14
BRANCH   1  16
ATOM     16  C   UNL     1       1.154   3.416  19.497  0.00  0.00    +0.000 C 
BRANCH  16  18
ATOM     17  C   UNL     1       2.319   1.982  17.778  0.00  0.00    +0.000 C 
ATOM     18  C   UNL     1       1.733   2.033  19.181  0.00  0.00    +0.000 C 
ENDBRANCH  16  18
ENDBRANCH   1  16
TORSDOF 4
ENDMDL
