MODEL 1
REMARK VINA RESULT:      -6.6      0.000      0.000
REMARK  Name = 
REMARK  7 active torsions:
REMARK  status: ('A' for Active; 'I' for Inactive)
REMARK    1  A    between atoms: C_1  and  O_2
REMARK    2  A    between atoms: O_2  and  C_3
REMARK    3  A    between atoms: C_8  and  C_9
REMARK    4  A    between atoms: C_17  and  C_18
REMARK    5  A    between atoms: N_20  and  CA_21
REMARK    6  A    between atoms: CA_21  and  C_22
REMARK    7  A    between atoms: C_22  and  OXT_24
REMARK                            x       y       z     vdW  Elec       q    Type
REMARK                         _______ _______ _______ _____ _____    ______ ____
ROOT
ATOM      1  C   UNK A   1       6.950   4.916  13.784  0.00  0.00    +0.000 A 
ATOM      2  C   UNK A   1       7.122   5.589  15.001  0.00  0.00    +0.000 A 
ATOM      3  C   UNK A   1       6.260   5.350  16.074  0.00  0.00    +0.000 A 
ATOM      4  C   UNK A   1       5.139   4.494  15.925  0.00  0.00    +0.000 A 
ATOM      5  C   UNK A   1       4.947   3.857  14.694  0.00  0.00    +0.000 A 
ATOM      6  C   UNK A   1       5.855   4.037  13.629  0.00  0.00    +0.000 A 
ATOM      7  C   UNK A   1       4.291   4.280  17.180  0.00  0.00    +0.000 C 
ATOM      8  C   UNK A   1       5.233   4.118  18.373  0.00  0.00    +0.000 C 
ATOM      9  C   UNK A   1       6.268   4.977  18.446  0.00  0.00    +0.000 C 
ATOM     10  N   UNK A   1       6.626   5.760  17.375  0.00  0.00    +0.000 N 
ATOM     11  N   UNK A   1       3.514   5.492  17.512  0.00  0.00    +0.000 NA
ATOM     12  C   UNK A   1       2.536   5.038  18.547  0.00  0.00    +0.000 C 
ATOM     13  C   UNK A   1       1.632   4.092  17.813  0.00  0.00    +0.000 C 
ATOM     14  S   UNK A   1       2.961   2.998  17.086  0.00  0.00    +0.000 S 
ATOM     15  H   UNK A   1       7.337   6.472  17.498  0.00  0.00    +0.000 HD
ATOM     16  H   UNK A   1       3.013   5.771  16.671  0.00  0.00    +0.000 HD
ENDROOT
BRANCH   6  17
ATOM     17  C   UNK A   1       5.604   3.196  12.413  0.00  0.00    +0.000 C 
ATOM     18  N   UNK A   1       6.605   2.389  11.962  0.00  0.00    +0.000 N 
ATOM     19  O   UNK A   1       4.525   3.207  11.832  0.00  0.00    +0.000 OA
ATOM     20  H   UNK A   1       7.511   2.369  12.414  0.00  0.00    +0.000 HD
ATOM     21  H   UNK A   1       6.433   1.815  11.150  0.00  0.00    +0.000 HD
ENDBRANCH   6  17
BRANCH  12  22
ATOM     22  C   UNK A   1       2.171   6.222  19.441  0.00  0.00    +0.000 C 
ATOM     23  O   UNK A   1       2.222   6.233  20.664  0.00  0.00    +0.000 OA
ATOM     24  N   GLY A   2       2.053   7.346  18.637  0.00  0.00    +0.000 N 
ATOM     25  H   GLY A   2       1.946   7.141  17.636  0.00  0.00    +0.000 HD
BRANCH  24  26
ATOM     26  CA  GLY A   2       2.132   8.729  19.040  0.00  0.00    +0.000 C 
BRANCH  26  27
ATOM     27  C   GLY A   2       1.333   9.582  18.042  0.00  0.00    +0.000 C 
ATOM     28  O   GLY A   2       0.127   9.519  17.891  0.00  0.00    +0.000 OA
BRANCH  27  29
ATOM     29  OXT GLY A   2       2.102  10.454  17.343  0.00  0.00    +0.000 OA
ATOM     30  HXT GLY A   2       1.698  11.332  17.215  0.00  0.00    +0.000 HD
ENDBRANCH  27  29
ENDBRANCH  26  27
ENDBRANCH  24  26
ENDBRANCH  12  22
BRANCH   1  32
ATOM     31  C   UNK A   1       8.913   5.972  12.938  0.00  0.00    +0.000 C 
ATOM     32  O   UNK A   1       7.818   5.079  12.730  0.00  0.00    +0.000 OA
ENDBRANCH   1  32
TORSDOF 6
ENDMDL
MODEL 2
REMARK VINA RESULT:      -6.5      3.038      8.443
REMARK  Name = 
REMARK  7 active torsions:
REMARK  status: ('A' for Active; 'I' for Inactive)
REMARK    1  A    between atoms: C_1  and  O_2
REMARK    2  A    between atoms: O_2  and  C_3
REMARK    3  A    between atoms: C_8  and  C_9
REMARK    4  A    between atoms: C_17  and  C_18
REMARK    5  A    between atoms: N_20  and  CA_21
REMARK    6  A    between atoms: CA_21  and  C_22
REMARK    7  A    between atoms: C_22  and  OXT_24
REMARK                            x       y       z     vdW  Elec       q    Type
REMARK                         _______ _______ _______ _____ _____    ______ ____
ROOT
ATOM      1  C   UNK A   1       1.003  10.657  20.668  0.00  0.00    +0.000 A 
ATOM      2  C   UNK A   1       1.670  10.328  19.480  0.00  0.00    +0.000 A 
ATOM      3  C   UNK A   1       2.002   9.001  19.194  0.00  0.00    +0.000 A 
ATOM      4  C   UNK A   1       1.755   7.974  20.141  0.00  0.00    +0.000 A 
ATOM      5  C   UNK A   1       1.127   8.314  21.345  0.00  0.00    +0.000 A 
ATOM      6  C   UNK A   1       0.724   9.641  21.608  0.00  0.00    +0.000 A 
ATOM      7  C   UNK A   1       2.127   6.557  19.700  0.00  0.00    +0.000 C 
ATOM      8  C   UNK A   1       1.701   6.383  18.242  0.00  0.00    +0.000 C 
ATOM      9  C   UNK A   1       1.980   7.400  17.406  0.00  0.00    +0.000 C 
ATOM     10  N   UNK A   1       2.360   8.633  17.879  0.00  0.00    +0.000 N 
ATOM     11  N   UNK A   1       3.593   6.378  19.658  0.00  0.00    +0.000 NA
ATOM     12  C   UNK A   1       3.785   4.902  19.514  0.00  0.00    +0.000 C 
ATOM     13  C   UNK A   1       3.283   4.335  20.808  0.00  0.00    +0.000 C 
ATOM     14  S   UNK A   1       1.612   5.170  20.811  0.00  0.00    +0.000 S 
ATOM     15  H   UNK A   1       2.667   9.342  17.223  0.00  0.00    +0.000 HD
ATOM     16  H   UNK A   1       3.961   6.682  20.558  0.00  0.00    +0.000 HD
ENDROOT
BRANCH   6  17
ATOM     17  C   UNK A   1      -0.054   9.843  22.874  0.00  0.00    +0.000 C 
ATOM     18  N   UNK A   1      -1.258  10.477  22.804  0.00  0.00    +0.000 N 
ATOM     19  O   UNK A   1       0.359   9.440  23.956  0.00  0.00    +0.000 OA
ATOM     20  H   UNK A   1      -1.618  10.831  21.928  0.00  0.00    +0.000 HD
ATOM     21  H   UNK A   1      -1.786  10.603  23.655  0.00  0.00    +0.000 HD
ENDBRANCH   6  17
BRANCH  12  22
ATOM     22  C   UNK A   1       5.108   4.641  18.795  0.00  0.00    +0.000 C 
ATOM     23  O   UNK A   1       6.119   4.182  19.309  0.00  0.00    +0.000 OA
ATOM     24  N   GLY A   2       4.881   4.740  17.430  0.00  0.00    +0.000 N 
ATOM     25  H   GLY A   2       4.009   5.224  17.179  0.00  0.00    +0.000 HD
BRANCH  24  26
ATOM     26  CA  GLY A   2       5.681   4.191  16.362  0.00  0.00    +0.000 C 
BRANCH  26  27
ATOM     27  C   GLY A   2       7.065   4.858  16.386  0.00  0.00    +0.000 C 
ATOM     28  O   GLY A   2       7.320   5.936  15.880  0.00  0.00    +0.000 OA
BRANCH  27  29
ATOM     29  OXT GLY A   2       7.997   4.140  17.058  0.00  0.00    +0.000 OA
ATOM     30  HXT GLY A   2       8.739   4.669  17.405  0.00  0.00    +0.000 HD
ENDBRANCH  27  29
ENDBRANCH  26  27
ENDBRANCH  24  26
ENDBRANCH  12  22
BRANCH   1  32
ATOM     31  C   UNK A   1       0.476  12.829  19.837  0.00  0.00    +0.000 C 
ATOM     32  O   UNK A   1       0.605  11.943  20.949  0.00  0.00    +0.000 OA
ENDBRANCH   1  32
TORSDOF 6
ENDMDL
MODEL 3
REMARK VINA RESULT:      -6.5      8.508     10.716
REMARK  Name = 
REMARK  7 active torsions:
REMARK  status: ('A' for Active; 'I' for Inactive)
REMARK    1  A    between atoms: C_1  and  O_2
REMARK    2  A    between atoms: O_2  and  C_3
REMARK    3  A    between atoms: C_8  and  C_9
REMARK    4  A    between atoms: C_17  and  C_18
REMARK    5  A    between atoms: N_20  and  CA_21
REMARK    6  A    between atoms: CA_21  and  C_22
REMARK    7  A    between atoms: C_22  and  OXT_24
REMARK                            x       y       z     vdW  Elec       q    Type
REMARK                         _______ _______ _______ _____ _____    ______ ____
ROOT
ATOM      1  C   UNK A   1      -3.552  10.981  16.656  0.00  0.00    +0.000 A 
ATOM      2  C   UNK A   1      -2.153  10.945  16.739  0.00  0.00    +0.000 A 
ATOM      3  C   UNK A   1      -1.503  11.276  17.930  0.00  0.00    +0.000 A 
ATOM      4  C   UNK A   1      -2.236  11.747  19.049  0.00  0.00    +0.000 A 
ATOM      5  C   UNK A   1      -3.630  11.823  18.947  0.00  0.00    +0.000 A 
ATOM      6  C   UNK A   1      -4.299  11.420  17.772  0.00  0.00    +0.000 A 
ATOM      7  C   UNK A   1      -1.418  12.042  20.307  0.00  0.00    +0.000 C 
ATOM      8  C   UNK A   1      -0.381  10.932  20.475  0.00  0.00    +0.000 C 
ATOM      9  C   UNK A   1       0.279  10.549  19.365  0.00  0.00    +0.000 C 
ATOM     10  N   UNK A   1      -0.148  10.921  18.113  0.00  0.00    +0.000 N 
ATOM     11  N   UNK A   1      -0.599  13.260  20.138  0.00  0.00    +0.000 NA
ATOM     12  C   UNK A   1      -0.110  13.577  21.515  0.00  0.00    +0.000 C 
ATOM     13  C   UNK A   1      -1.351  13.950  22.271  0.00  0.00    +0.000 C 
ATOM     14  S   UNK A   1      -2.361  12.437  21.849  0.00  0.00    +0.000 S 
ATOM     15  H   UNK A   1       0.430  10.709  17.309  0.00  0.00    +0.000 HD
ATOM     16  H   UNK A   1      -1.221  14.001  19.820  0.00  0.00    +0.000 HD
ENDROOT
BRANCH   6  17
ATOM     17  C   UNK A   1      -5.797  11.428  17.844  0.00  0.00    +0.000 C 
ATOM     18  N   UNK A   1      -6.486  12.226  16.981  0.00  0.00    +0.000 N 
ATOM     19  O   UNK A   1      -6.408  10.728  18.643  0.00  0.00    +0.000 OA
ATOM     20  H   UNK A   1      -6.008  12.824  16.319  0.00  0.00    +0.000 HD
ATOM     21  H   UNK A   1      -7.494  12.224  17.022  0.00  0.00    +0.000 HD
ENDBRANCH   6  17
BRANCH  12  22
ATOM     22  C   UNK A   1       1.219  14.324  21.412  0.00  0.00    +0.000 C 
ATOM     23  O   UNK A   1       1.899  14.699  22.357  0.00  0.00    +0.000 OA
ATOM     24  N   GLY A   2       1.651  14.250  20.096  0.00  0.00    +0.000 N 
ATOM     25  H   GLY A   2       0.920  13.988  19.424  0.00  0.00    +0.000 HD
BRANCH  24  26
ATOM     26  CA  GLY A   2       2.994  14.430  19.599  0.00  0.00    +0.000 C 
BRANCH  26  27
ATOM     27  C   GLY A   2       2.977  14.305  18.068  0.00  0.00    +0.000 C 
ATOM     28  O   GLY A   2       3.494  15.100  17.305  0.00  0.00    +0.000 OA
BRANCH  27  29
ATOM     29  OXT GLY A   2       2.343  13.191  17.626  0.00  0.00    +0.000 OA
ATOM     30  HXT GLY A   2       1.568  13.367  17.062  0.00  0.00    +0.000 HD
ENDBRANCH  27  29
ENDBRANCH  26  27
ENDBRANCH  24  26
ENDBRANCH  12  22
BRANCH   1  32
ATOM     31  C   UNK A   1      -3.428  10.164  14.420  0.00  0.00    +0.000 C 
ATOM     32  O   UNK A   1      -4.227  10.599  15.521  0.00  0.00    +0.000 OA
ENDBRANCH   1  32
TORSDOF 6
ENDMDL
MODEL 4
REMARK VINA RESULT:      -6.3      4.127      7.139
REMARK  Name = 
REMARK  7 active torsions:
REMARK  status: ('A' for Active; 'I' for Inactive)
REMARK    1  A    between atoms: C_1  and  O_2
REMARK    2  A    between atoms: O_2  and  C_3
REMARK    3  A    between atoms: C_8  and  C_9
REMARK    4  A    between atoms: C_17  and  C_18
REMARK    5  A    between atoms: N_20  and  CA_21
REMARK    6  A    between atoms: CA_21  and  C_22
REMARK    7  A    between atoms: C_22  and  OXT_24
REMARK                            x       y       z     vdW  Elec       q    Type
REMARK                         _______ _______ _______ _____ _____    ______ ____
ROOT
ATOM      1  C   UNK A   1       2.811   6.815  18.118  0.00  0.00    +0.000 A 
ATOM      2  C   UNK A   1       2.438   8.001  17.470  0.00  0.00    +0.000 A 
ATOM      3  C   UNK A   1       1.826   9.037  18.179  0.00  0.00    +0.000 A 
ATOM      4  C   UNK A   1       1.484   8.875  19.546  0.00  0.00    +0.000 A 
ATOM      5  C   UNK A   1       1.819   7.672  20.178  0.00  0.00    +0.000 A 
ATOM      6  C   UNK A   1       2.503   6.650  19.486  0.00  0.00    +0.000 A 
ATOM      7  C   UNK A   1       0.852  10.091  20.224  0.00  0.00    +0.000 C 
ATOM      8  C   UNK A   1       1.599  11.341  19.758  0.00  0.00    +0.000 C 
ATOM      9  C   UNK A   1       1.877  11.422  18.443  0.00  0.00    +0.000 C 
ATOM     10  N   UNK A   1       1.760  10.331  17.617  0.00  0.00    +0.000 N 
ATOM     11  N   UNK A   1      -0.528  10.313  19.746  0.00  0.00    +0.000 NA
ATOM     12  C   UNK A   1      -1.097  11.317  20.698  0.00  0.00    +0.000 C 
ATOM     13  C   UNK A   1      -1.168  10.588  22.007  0.00  0.00    +0.000 C 
ATOM     14  S   UNK A   1       0.603   9.997  22.055  0.00  0.00    +0.000 S 
ATOM     15  H   UNK A   1       1.872  10.452  16.617  0.00  0.00    +0.000 HD
ATOM     16  H   UNK A   1      -1.028   9.431  19.845  0.00  0.00    +0.000 HD
ENDROOT
BRANCH   6  17
ATOM     17  C   UNK A   1       2.917   5.471  20.316  0.00  0.00    +0.000 C 
ATOM     18  N   UNK A   1       4.149   4.927  20.105  0.00  0.00    +0.000 N 
ATOM     19  O   UNK A   1       2.186   5.001  21.180  0.00  0.00    +0.000 OA
ATOM     20  H   UNK A   1       4.769   5.286  19.390  0.00  0.00    +0.000 HD
ATOM     21  H   UNK A   1       4.432   4.140  20.670  0.00  0.00    +0.000 HD
ENDBRANCH   6  17
BRANCH  12  22
ATOM     22  C   UNK A   1      -2.180  12.122  19.982  0.00  0.00    +0.000 C 
ATOM     23  O   UNK A   1      -2.361  13.327  20.093  0.00  0.00    +0.000 OA
ATOM     24  N   GLY A   2      -2.724  11.321  18.989  0.00  0.00    +0.000 N 
ATOM     25  H   GLY A   2      -2.528  10.318  19.098  0.00  0.00    +0.000 HD
BRANCH  24  26
ATOM     26  CA  GLY A   2      -3.455  11.744  17.818  0.00  0.00    +0.000 C 
BRANCH  26  27
ATOM     27  C   GLY A   2      -2.752  11.190  16.569  0.00  0.00    +0.000 C 
ATOM     28  O   GLY A   2      -3.227  11.204  15.448  0.00  0.00    +0.000 OA
BRANCH  27  29
ATOM     29  OXT GLY A   2      -1.515  10.697  16.821  0.00  0.00    +0.000 OA
ATOM     30  HXT GLY A   2      -0.792  11.185  16.387  0.00  0.00    +0.000 HD
ENDBRANCH  27  29
ENDBRANCH  26  27
ENDBRANCH  24  26
ENDBRANCH  12  22
BRANCH   1  32
ATOM     31  C   UNK A   1       4.677   6.162  16.786  0.00  0.00    +0.000 C 
ATOM     32  O   UNK A   1       3.473   5.803  17.464  0.00  0.00    +0.000 OA
ENDBRANCH   1  32
TORSDOF 6
ENDMDL
MODEL 5
REMARK VINA RESULT:      -6.3      8.448     10.448
REMARK  Name = 
REMARK  7 active torsions:
REMARK  status: ('A' for Active; 'I' for Inactive)
REMARK    1  A    between atoms: C_1  and  O_2
REMARK    2  A    between atoms: O_2  and  C_3
REMARK    3  A    between atoms: C_8  and  C_9
REMARK    4  A    between atoms: C_17  and  C_18
REMARK    5  A    between atoms: N_20  and  CA_21
REMARK    6  A    between atoms: CA_21  and  C_22
REMARK    7  A    between atoms: C_22  and  OXT_24
REMARK                            x       y       z     vdW  Elec       q    Type
REMARK                         _______ _______ _______ _____ _____    ______ ____
ROOT
ATOM      1  C   UNK A   1      -2.727  10.330  17.198  0.00  0.00    +0.000 A 
ATOM      2  C   UNK A   1      -1.358  10.243  17.489  0.00  0.00    +0.000 A 
ATOM      3  C   UNK A   1      -0.831  10.867  18.623  0.00  0.00    +0.000 A 
ATOM      4  C   UNK A   1      -1.650  11.678  19.449  0.00  0.00    +0.000 A 
ATOM      5  C   UNK A   1      -3.007  11.797  19.130  0.00  0.00    +0.000 A 
ATOM      6  C   UNK A   1      -3.561  11.111  18.029  0.00  0.00    +0.000 A 
ATOM      7  C   UNK A   1      -0.968  12.278  20.680  0.00  0.00    +0.000 C 
ATOM      8  C   UNK A   1      -0.068  11.207  21.298  0.00  0.00    +0.000 C 
ATOM      9  C   UNK A   1       0.685  10.487  20.445  0.00  0.00    +0.000 C 
ATOM     10  N   UNK A   1       0.452  10.506  19.091  0.00  0.00    +0.000 N 
ATOM     11  N   UNK A   1      -0.025  13.349  20.301  0.00  0.00    +0.000 NA
ATOM     12  C   UNK A   1       0.318  14.021  21.592  0.00  0.00    +0.000 C 
ATOM     13  C   UNK A   1      -0.966  14.663  22.027  0.00  0.00    +0.000 C 
ATOM     14  S   UNK A   1      -2.053  13.149  21.899  0.00  0.00    +0.000 S 
ATOM     15  H   UNK A   1       1.103  10.040  18.470  0.00  0.00    +0.000 HD
ATOM     16  H   UNK A   1      -0.531  14.000  19.703  0.00  0.00    +0.000 HD
ENDROOT
BRANCH   6  17
ATOM     17  C   UNK A   1      -5.049  11.221  17.878  0.00  0.00    +0.000 C 
ATOM     18  N   UNK A   1      -5.548  11.823  16.762  0.00  0.00    +0.000 N 
ATOM     19  O   UNK A   1      -5.818  10.772  18.721  0.00  0.00    +0.000 OA
ATOM     20  H   UNK A   1      -4.938  12.215  16.057  0.00  0.00    +0.000 HD
ATOM     21  H   UNK A   1      -6.549  11.888  16.656  0.00  0.00    +0.000 HD
ENDBRANCH   6  17
BRANCH  12  22
ATOM     22  C   UNK A   1       1.713  14.634  21.479  0.00  0.00    +0.000 C 
ATOM     23  O   UNK A   1       2.577  14.600  22.344  0.00  0.00    +0.000 OA
ATOM     24  N   GLY A   2       1.926  14.973  20.151  0.00  0.00    +0.000 N 
ATOM     25  H   GLY A   2       1.070  15.024  19.584  0.00  0.00    +0.000 HD
BRANCH  24  26
ATOM     26  CA  GLY A   2       3.190  15.187  19.488  0.00  0.00    +0.000 C 
BRANCH  26  27
ATOM     27  C   GLY A   2       3.247  14.306  18.231  0.00  0.00    +0.000 C 
ATOM     28  O   GLY A   2       2.892  13.142  18.188  0.00  0.00    +0.000 OA
BRANCH  27  29
ATOM     29  OXT GLY A   2       3.711  14.958  17.137  0.00  0.00    +0.000 OA
ATOM     30  HXT GLY A   2       4.545  14.600  16.780  0.00  0.00    +0.000 HD
ENDBRANCH  27  29
ENDBRANCH  26  27
ENDBRANCH  24  26
ENDBRANCH  12  22
BRANCH   1  32
ATOM     31  C   UNK A   1      -2.935  10.152  14.830  0.00  0.00    +0.000 C 
ATOM     32  O   UNK A   1      -3.289   9.674  16.128  0.00  0.00    +0.000 OA
ENDBRANCH   1  32
TORSDOF 6
ENDMDL
MODEL 6
REMARK VINA RESULT:      -6.1      7.864     10.822
REMARK  Name = 
REMARK  7 active torsions:
REMARK  status: ('A' for Active; 'I' for Inactive)
REMARK    1  A    between atoms: C_1  and  O_2
REMARK    2  A    between atoms: O_2  and  C_3
REMARK    3  A    between atoms: C_8  and  C_9
REMARK    4  A    between atoms: C_17  and  C_18
REMARK    5  A    between atoms: N_20  and  CA_21
REMARK    6  A    between atoms: CA_21  and  C_22
REMARK    7  A    between atoms: C_22  and  OXT_24
REMARK                            x       y       z     vdW  Elec       q    Type
REMARK                         _______ _______ _______ _____ _____    ______ ____
ROOT
ATOM      1  C   UNK A   1       1.265  16.271  19.218  0.00  0.00    +0.000 A 
ATOM      2  C   UNK A   1      -0.096  15.938  19.257  0.00  0.00    +0.000 A 
ATOM      3  C   UNK A   1      -0.501  14.600  19.272  0.00  0.00    +0.000 A 
ATOM      4  C   UNK A   1       0.450  13.556  19.152  0.00  0.00    +0.000 A 
ATOM      5  C   UNK A   1       1.806  13.894  19.070  0.00  0.00    +0.000 A 
ATOM      6  C   UNK A   1       2.226  15.240  19.128  0.00  0.00    +0.000 A 
ATOM      7  C   UNK A   1      -0.109  12.133  19.218  0.00  0.00    +0.000 C 
ATOM      8  C   UNK A   1      -1.172  12.088  20.315  0.00  0.00    +0.000 C 
ATOM      9  C   UNK A   1      -2.044  13.114  20.354  0.00  0.00    +0.000 C 
ATOM     10  N   UNK A   1      -1.822  14.270  19.645  0.00  0.00    +0.000 N 
ATOM     11  N   UNK A   1      -0.861  11.797  17.991  0.00  0.00    +0.000 NA
ATOM     12  C   UNK A   1      -1.073  10.320  18.075  0.00  0.00    +0.000 C 
ATOM     13  C   UNK A   1       0.304   9.739  17.952  0.00  0.00    +0.000 C 
ATOM     14  S   UNK A   1       1.118  10.751  19.295  0.00  0.00    +0.000 S 
ATOM     15  H   UNK A   1      -2.547  14.976  19.610  0.00  0.00    +0.000 HD
ATOM     16  H   UNK A   1      -0.256  12.008  17.199  0.00  0.00    +0.000 HD
ENDROOT
BRANCH   6  17
ATOM     17  C   UNK A   1       3.710  15.455  19.162  0.00  0.00    +0.000 C 
ATOM     18  N   UNK A   1       4.283  16.196  18.173  0.00  0.00    +0.000 N 
ATOM     19  O   UNK A   1       4.408  14.996  20.059  0.00  0.00    +0.000 OA
ATOM     20  H   UNK A   1       3.735  16.576  17.413  0.00  0.00    +0.000 HD
ATOM     21  H   UNK A   1       5.281  16.349  18.202  0.00  0.00    +0.000 HD
ENDBRANCH   6  17
BRANCH  12  22
ATOM     22  C   UNK A   1      -2.346   9.956  17.311  0.00  0.00    +0.000 C 
ATOM     23  O   UNK A   1      -3.298   9.339  17.768  0.00  0.00    +0.000 OA
ATOM     24  N   GLY A   2      -2.356  10.678  16.127  0.00  0.00    +0.000 N 
ATOM     25  H   GLY A   2      -1.443  11.067  15.860  0.00  0.00    +0.000 HD
BRANCH  24  26
ATOM     26  CA  GLY A   2      -3.493  10.989  15.295  0.00  0.00    +0.000 C 
BRANCH  26  27
ATOM     27  C   GLY A   2      -3.456  10.090  14.049  0.00  0.00    +0.000 C 
ATOM     28  O   GLY A   2      -2.437   9.710  13.503  0.00  0.00    +0.000 OA
BRANCH  27  29
ATOM     29  OXT GLY A   2      -4.686   9.724  13.613  0.00  0.00    +0.000 OA
ATOM     30  HXT GLY A   2      -5.306   9.473  14.322  0.00  0.00    +0.000 HD
ENDBRANCH  27  29
ENDBRANCH  26  27
ENDBRANCH  24  26
ENDBRANCH  12  22
BRANCH   1  32
ATOM     31  C   UNK A   1       1.629  18.221  20.540  0.00  0.00    +0.000 C 
ATOM     32  O   UNK A   1       1.699  17.575  19.269  0.00  0.00    +0.000 OA
ENDBRANCH   1  32
TORSDOF 6
ENDMDL
MODEL 7
REMARK VINA RESULT:      -6.1      8.217     10.518
REMARK  Name = 
REMARK  7 active torsions:
REMARK  status: ('A' for Active; 'I' for Inactive)
REMARK    1  A    between atoms: C_1  and  O_2
REMARK    2  A    between atoms: O_2  and  C_3
REMARK    3  A    between atoms: C_8  and  C_9
REMARK    4  A    between atoms: C_17  and  C_18
REMARK    5  A    between atoms: N_20  and  CA_21
REMARK    6  A    between atoms: CA_21  and  C_22
REMARK    7  A    between atoms: C_22  and  OXT_24
REMARK                            x       y       z     vdW  Elec       q    Type
REMARK                         _______ _______ _______ _____ _____    ______ ____
ROOT
ATOM      1  C   UNK A   1      -3.453  10.818  16.734  0.00  0.00    +0.000 A 
ATOM      2  C   UNK A   1      -2.077  10.552  16.700  0.00  0.00    +0.000 A 
ATOM      3  C   UNK A   1      -1.268  10.850  17.799  0.00  0.00    +0.000 A 
ATOM      4  C   UNK A   1      -1.803  11.514  18.933  0.00  0.00    +0.000 A 
ATOM      5  C   UNK A   1      -3.169  11.817  18.944  0.00  0.00    +0.000 A 
ATOM      6  C   UNK A   1      -4.007  11.452  17.868  0.00  0.00    +0.000 A 
ATOM      7  C   UNK A   1      -0.829  11.754  20.087  0.00  0.00    +0.000 C 
ATOM      8  C   UNK A   1       0.027  10.499  20.259  0.00  0.00    +0.000 C 
ATOM      9  C   UNK A   1       0.504   9.935  19.134  0.00  0.00    +0.000 C 
ATOM     10  N   UNK A   1       0.022  10.286  17.896  0.00  0.00    +0.000 N 
ATOM     11  N   UNK A   1       0.156  12.802  19.747  0.00  0.00    +0.000 NA
ATOM     12  C   UNK A   1       0.821  13.126  21.046  0.00  0.00    +0.000 C 
ATOM     13  C   UNK A   1      -0.263  13.755  21.870  0.00  0.00    +0.000 C 
ATOM     14  S   UNK A   1      -1.540  12.408  21.665  0.00  0.00    +0.000 S 
ATOM     15  H   UNK A   1       0.478   9.923  17.067  0.00  0.00    +0.000 HD
ATOM     16  H   UNK A   1      -0.367  13.613  19.421  0.00  0.00    +0.000 HD
ENDROOT
BRANCH   6  17
ATOM     17  C   UNK A   1      -5.469  11.717  18.066  0.00  0.00    +0.000 C 
ATOM     18  N   UNK A   1      -6.214  12.094  16.989  0.00  0.00    +0.000 N 
ATOM     19  O   UNK A   1      -6.006  11.590  19.161  0.00  0.00    +0.000 OA
ATOM     20  H   UNK A   1      -5.796  12.220  16.076  0.00  0.00    +0.000 HD
ATOM     21  H   UNK A   1      -7.201  12.262  17.120  0.00  0.00    +0.000 HD
ENDBRANCH   6  17
BRANCH  12  22
ATOM     22  C   UNK A   1       2.237  13.630  20.767  0.00  0.00    +0.000 C 
ATOM     23  O   UNK A   1       3.183  13.555  21.539  0.00  0.00    +0.000 OA
ATOM     24  N   GLY A   2       2.331  13.916  19.414  0.00  0.00    +0.000 N 
ATOM     25  H   GLY A   2       1.426  14.015  18.937  0.00  0.00    +0.000 HD
BRANCH  24  26
ATOM     26  CA  GLY A   2       3.530  14.018  18.616  0.00  0.00    +0.000 C 
BRANCH  26  27
ATOM     27  C   GLY A   2       3.658  15.457  18.094  0.00  0.00    +0.000 C 
ATOM     28  O   GLY A   2       3.396  15.804  16.957  0.00  0.00    +0.000 OA
BRANCH  27  29
ATOM     29  OXT GLY A   2       4.071  16.338  19.038  0.00  0.00    +0.000 OA
ATOM     30  HXT GLY A   2       4.519  17.127  18.683  0.00  0.00    +0.000 HD
ENDBRANCH  27  29
ENDBRANCH  26  27
ENDBRANCH  24  26
ENDBRANCH  12  22
BRANCH   1  32
ATOM     31  C   UNK A   1      -3.663  10.140  14.458  0.00  0.00    +0.000 C 
ATOM     32  O   UNK A   1      -4.288  10.476  15.696  0.00  0.00    +0.000 OA
ENDBRANCH   1  32
TORSDOF 6
ENDMDL
MODEL 8
REMARK VINA RESULT:      -6.1      9.074     11.241
REMARK  Name = 
REMARK  7 active torsions:
REMARK  status: ('A' for Active; 'I' for Inactive)
REMARK    1  A    between atoms: C_1  and  O_2
REMARK    2  A    between atoms: O_2  and  C_3
REMARK    3  A    between atoms: C_8  and  C_9
REMARK    4  A    between atoms: C_17  and  C_18
REMARK    5  A    between atoms: N_20  and  CA_21
REMARK    6  A    between atoms: CA_21  and  C_22
REMARK    7  A    between atoms: C_22  and  OXT_24
REMARK                            x       y       z     vdW  Elec       q    Type
REMARK                         _______ _______ _______ _____ _____    ______ ____
ROOT
ATOM      1  C   UNK A   1       1.272  15.789  19.642  0.00  0.00    +0.000 A 
ATOM      2  C   UNK A   1      -0.118  15.837  19.817  0.00  0.00    +0.000 A 
ATOM      3  C   UNK A   1      -0.893  14.684  19.676  0.00  0.00    +0.000 A 
ATOM      4  C   UNK A   1      -0.304  13.463  19.261  0.00  0.00    +0.000 A 
ATOM      5  C   UNK A   1       1.078  13.429  19.044  0.00  0.00    +0.000 A 
ATOM      6  C   UNK A   1       1.877  14.573  19.256  0.00  0.00    +0.000 A 
ATOM      7  C   UNK A   1      -1.247  12.261  19.178  0.00  0.00    +0.000 C 
ATOM      8  C   UNK A   1      -2.175  12.297  20.392  0.00  0.00    +0.000 C 
ATOM      9  C   UNK A   1      -2.701  13.494  20.715  0.00  0.00    +0.000 C 
ATOM     10  N   UNK A   1      -2.214  14.660  20.174  0.00  0.00    +0.000 N 
ATOM     11  N   UNK A   1      -2.170  12.384  18.031  0.00  0.00    +0.000 NA
ATOM     12  C   UNK A   1      -2.798  11.032  17.909  0.00  0.00    +0.000 C 
ATOM     13  C   UNK A   1      -1.667  10.134  17.504  0.00  0.00    +0.000 C 
ATOM     14  S   UNK A   1      -0.477  10.609  18.863  0.00  0.00    +0.000 S 
ATOM     15  H   UNK A   1      -2.702  15.530  20.353  0.00  0.00    +0.000 HD
ATOM     16  H   UNK A   1      -1.604  12.570  17.206  0.00  0.00    +0.000 HD
ENDROOT
BRANCH   6  17
ATOM     17  C   UNK A   1       3.356  14.365  19.116  0.00  0.00    +0.000 C 
ATOM     18  N   UNK A   1       3.863  14.110  17.876  0.00  0.00    +0.000 N 
ATOM     19  O   UNK A   1       4.112  14.433  20.078  0.00  0.00    +0.000 OA
ATOM     20  H   UNK A   1       3.262  14.035  17.066  0.00  0.00    +0.000 HD
ATOM     21  H   UNK A   1       4.859  13.981  17.781  0.00  0.00    +0.000 HD
ENDBRANCH   6  17
BRANCH  12  22
ATOM     22  C   UNK A   1      -4.184  11.182  17.283  0.00  0.00    +0.000 C 
ATOM     23  O   UNK A   1      -4.476  10.906  16.127  0.00  0.00    +0.000 OA
ATOM     24  N   GLY A   2      -5.094  11.405  18.305  0.00  0.00    +0.000 N 
ATOM     25  H   GLY A   2      -4.671  11.703  19.193  0.00  0.00    +0.000 HD
BRANCH  24  26
ATOM     26  CA  GLY A   2      -6.523  11.203  18.272  0.00  0.00    +0.000 C 
BRANCH  26  27
ATOM     27  C   GLY A   2      -6.933  10.365  19.492  0.00  0.00    +0.000 C 
ATOM     28  O   GLY A   2      -6.844  10.739  20.648  0.00  0.00    +0.000 OA
BRANCH  27  29
ATOM     29  OXT GLY A   2      -7.443   9.152  19.166  0.00  0.00    +0.000 OA
ATOM     30  HXT GLY A   2      -6.935   8.673  18.486  0.00  0.00    +0.000 HD
ENDBRANCH  27  29
ENDBRANCH  26  27
ENDBRANCH  24  26
ENDBRANCH  12  22
BRANCH   1  32
ATOM     31  C   UNK A   1       1.486  18.162  19.553  0.00  0.00    +0.000 C 
ATOM     32  O   UNK A   1       2.071  16.891  19.837  0.00  0.00    +0.000 OA
ENDBRANCH   1  32
TORSDOF 6
ENDMDL
MODEL 9
REMARK VINA RESULT:      -6.1      4.928      8.087
REMARK  Name = 
REMARK  7 active torsions:
REMARK  status: ('A' for Active; 'I' for Inactive)
REMARK    1  A    between atoms: C_1  and  O_2
REMARK    2  A    between atoms: O_2  and  C_3
REMARK    3  A    between atoms: C_8  and  C_9
REMARK    4  A    between atoms: C_17  and  C_18
REMARK    5  A    between atoms: N_20  and  CA_21
REMARK    6  A    between atoms: CA_21  and  C_22
REMARK    7  A    between atoms: C_22  and  OXT_24
REMARK                            x       y       z     vdW  Elec       q    Type
REMARK                         _______ _______ _______ _____ _____    ______ ____
ROOT
ATOM      1  C   UNK A   1       2.435   7.448  18.209  0.00  0.00    +0.000 A 
ATOM      2  C   UNK A   1       2.049   8.719  17.760  0.00  0.00    +0.000 A 
ATOM      3  C   UNK A   1       1.490   9.646  18.642  0.00  0.00    +0.000 A 
ATOM      4  C   UNK A   1       1.213   9.290  19.986  0.00  0.00    +0.000 A 
ATOM      5  C   UNK A   1       1.559   8.005  20.420  0.00  0.00    +0.000 A 
ATOM      6  C   UNK A   1       2.192   7.089  19.554  0.00  0.00    +0.000 A 
ATOM      7  C   UNK A   1       0.634  10.400  20.865  0.00  0.00    +0.000 C 
ATOM      8  C   UNK A   1       1.378  11.698  20.547  0.00  0.00    +0.000 C 
ATOM      9  C   UNK A   1       1.593  11.967  19.246  0.00  0.00    +0.000 C 
ATOM     10  N   UNK A   1       1.417  11.008  18.277  0.00  0.00    +0.000 N 
ATOM     11  N   UNK A   1      -0.764  10.701  20.495  0.00  0.00    +0.000 NA
ATOM     12  C   UNK A   1      -1.269  11.561  21.610  0.00  0.00    +0.000 C 
ATOM     13  C   UNK A   1      -1.287  10.650  22.801  0.00  0.00    +0.000 C 
ATOM     14  S   UNK A   1       0.474  10.043  22.673  0.00  0.00    +0.000 S 
ATOM     15  H   UNK A   1       1.482  11.273  17.301  0.00  0.00    +0.000 HD
ATOM     16  H   UNK A   1      -1.272   9.819  20.491  0.00  0.00    +0.000 HD
ENDROOT
BRANCH   6  17
ATOM     17  C   UNK A   1       2.627   5.798  20.181  0.00  0.00    +0.000 C 
ATOM     18  N   UNK A   1       3.907   5.375  19.979  0.00  0.00    +0.000 N 
ATOM     19  O   UNK A   1       1.870   5.131  20.877  0.00  0.00    +0.000 OA
ATOM     20  H   UNK A   1       4.550   5.897  19.399  0.00  0.00    +0.000 HD
ATOM     21  H   UNK A   1       4.203   4.511  20.410  0.00  0.00    +0.000 HD
ENDBRANCH   6  17
BRANCH  12  22
ATOM     22  C   UNK A   1      -2.373  12.472  21.074  0.00  0.00    +0.000 C 
ATOM     23  O   UNK A   1      -2.867  12.409  19.957  0.00  0.00    +0.000 OA
ATOM     24  N   GLY A   2      -2.905  13.175  22.144  0.00  0.00    +0.000 N 
ATOM     25  H   GLY A   2      -2.314  13.181  22.984  0.00  0.00    +0.000 HD
BRANCH  24  26
ATOM     26  CA  GLY A   2      -4.193  13.822  22.220  0.00  0.00    +0.000 C 
BRANCH  26  27
ATOM     27  C   GLY A   2      -5.265  12.759  22.505  0.00  0.00    +0.000 C 
ATOM     28  O   GLY A   2      -5.698  12.495  23.613  0.00  0.00    +0.000 OA
BRANCH  27  29
ATOM     29  OXT GLY A   2      -5.721  12.140  21.389  0.00  0.00    +0.000 OA
ATOM     30  HXT GLY A   2      -6.552  12.508  21.036  0.00  0.00    +0.000 HD
ENDBRANCH  27  29
ENDBRANCH  26  27
ENDBRANCH  24  26
ENDBRANCH  12  22
BRANCH   1  32
ATOM     31  C   UNK A   1       4.371   6.855  16.952  0.00  0.00    +0.000 C 
ATOM     32  O   UNK A   1       3.048   6.536  17.383  0.00  0.00    +0.000 OA
ENDBRANCH   1  32
TORSDOF 6
ENDMDL
