MODEL 1
REMARK VINA RESULT:      -7.8      0.000      0.000
REMARK  Name = 
REMARK  7 active torsions:
REMARK  status: ('A' for Active; 'I' for Inactive)
REMARK    1  A    between atoms: C_1  and  O_2
REMARK    2  A    between atoms: O_2  and  C_3
REMARK    3  A    between atoms: C_6  and  C_7
REMARK    4  A    between atoms: C_7  and  N_8
REMARK    5  A    between atoms: N_8  and  C_9
REMARK    6  A    between atoms: C_14  and  C_15
REMARK    7  A    between atoms: C_14  and  C_16
REMARK                            x       y       z     vdW  Elec       q    Type
REMARK                         _______ _______ _______ _____ _____    ______ ____
ROOT
ATOM      1  N   UNL     1       5.116   3.171  16.650  0.00  0.00    +0.000 N 
ATOM      2  H   UNL     1       5.464   2.211  16.716  0.00  0.00    +0.000 HD
ENDROOT
BRANCH   1   3
ATOM      3  C   UNL     1       3.806   3.370  17.027  0.00  0.00    +0.000 C 
ATOM      4  C   UNL     1       3.217   3.278  18.232  0.00  0.00    +0.000 C 
ATOM      5  C   UNL     1       3.986   2.945  19.463  0.00  0.00    +0.000 C 
ATOM      6  O   UNL     1       5.213   3.012  19.521  0.00  0.00    +0.000 OA
ATOM      7  C   UNL     1       3.183   2.461  20.649  0.00  0.00    +0.000 C 
ATOM      8  C   UNL     1       1.898   3.279  20.849  0.00  0.00    +0.000 C 
ATOM      9  C   UNL     1       1.127   2.705  22.054  0.00  0.00    +0.000 C 
ATOM     10  C   UNL     1       2.221   4.755  21.151  0.00  0.00    +0.000 C 
ATOM     11  C   UNL     1       1.022   3.160  19.592  0.00  0.00    +0.000 C 
ATOM     12  C   UNL     1       1.739   3.495  18.298  0.00  0.00    +0.000 C 
ATOM     13  O   UNL     1       1.093   3.861  17.316  0.00  0.00    +0.000 OA
ENDBRANCH   1   3
BRANCH   1  14
ATOM     14  C   UNL     1       5.882   4.099  15.837  0.00  0.00    +0.000 C 
BRANCH  14  18
ATOM     15  C   UNL     1       7.938   7.052  18.245  0.00  0.00    +0.000 A 
ATOM     16  C   UNL     1       7.187   7.428  17.130  0.00  0.00    +0.000 A 
ATOM     17  C   UNL     1       6.553   6.461  16.346  0.00  0.00    +0.000 A 
ATOM     18  C   UNL     1       6.681   5.096  16.645  0.00  0.00    +0.000 A 
ATOM     19  C   UNL     1       7.451   4.731  17.758  0.00  0.00    +0.000 A 
ATOM     20  C   UNL     1       8.085   5.704  18.546  0.00  0.00    +0.000 A 
BRANCH  15  22
ATOM     21  C   UNL     1       8.481   9.353  18.274  0.00  0.00    +0.000 C 
ATOM     22  O   UNL     1       8.498   8.096  18.938  0.00  0.00    +0.000 OA
ENDBRANCH  15  22
ENDBRANCH  14  18
ENDBRANCH   1  14
TORSDOF 4
ENDMDL
MODEL 2
REMARK VINA RESULT:      -7.8      0.196      1.068
REMARK  Name = 
REMARK  7 active torsions:
REMARK  status: ('A' for Active; 'I' for Inactive)
REMARK    1  A    between atoms: C_1  and  O_2
REMARK    2  A    between atoms: O_2  and  C_3
REMARK    3  A    between atoms: C_6  and  C_7
REMARK    4  A    between atoms: C_7  and  N_8
REMARK    5  A    between atoms: N_8  and  C_9
REMARK    6  A    between atoms: C_14  and  C_15
REMARK    7  A    between atoms: C_14  and  C_16
REMARK                            x       y       z     vdW  Elec       q    Type
REMARK                         _______ _______ _______ _____ _____    ______ ____
ROOT
ATOM      1  N   UNL     1       5.206   3.267  16.731  0.00  0.00    +0.000 N 
ATOM      2  H   UNL     1       5.583   2.318  16.794  0.00  0.00    +0.000 HD
ENDROOT
BRANCH   1   3
ATOM      3  C   UNL     1       3.882   3.417  17.081  0.00  0.00    +0.000 C 
ATOM      4  C   UNL     1       3.270   3.296  18.273  0.00  0.00    +0.000 C 
ATOM      5  C   UNL     1       4.023   2.980  19.517  0.00  0.00    +0.000 C 
ATOM      6  O   UNL     1       5.245   3.088  19.602  0.00  0.00    +0.000 OA
ATOM      7  C   UNL     1       3.212   2.460  20.682  0.00  0.00    +0.000 C 
ATOM      8  C   UNL     1       1.895   3.231  20.859  0.00  0.00    +0.000 C 
ATOM      9  C   UNL     1       1.119   2.622  22.043  0.00  0.00    +0.000 C 
ATOM     10  C   UNL     1       2.161   4.715  21.179  0.00  0.00    +0.000 C 
ATOM     11  C   UNL     1       1.051   3.093  19.583  0.00  0.00    +0.000 C 
ATOM     12  C   UNL     1       1.784   3.462  18.307  0.00  0.00    +0.000 C 
ATOM     13  O   UNL     1       1.148   3.814  17.314  0.00  0.00    +0.000 OA
ENDBRANCH   1   3
BRANCH   1  14
ATOM     14  C   UNL     1       5.958   4.229  15.947  0.00  0.00    +0.000 C 
BRANCH  14  18
ATOM     15  C   UNL     1       7.950   7.326  18.225  0.00  0.00    +0.000 A 
ATOM     16  C   UNL     1       8.067   5.982  18.582  0.00  0.00    +0.000 A 
ATOM     17  C   UNL     1       7.394   4.997  17.854  0.00  0.00    +0.000 A 
ATOM     18  C   UNL     1       6.569   5.339  16.773  0.00  0.00    +0.000 A 
ATOM     19  C   UNL     1       6.448   6.694  16.434  0.00  0.00    +0.000 A 
ATOM     20  C   UNL     1       7.126   7.683  17.164  0.00  0.00    +0.000 A 
BRANCH  15  22
ATOM     21  C   UNL     1       8.695   9.544  18.566  0.00  0.00    +0.000 C 
ATOM     22  O   UNL     1       8.669   8.193  19.009  0.00  0.00    +0.000 OA
ENDBRANCH  15  22
ENDBRANCH  14  18
ENDBRANCH   1  14
TORSDOF 4
ENDMDL
MODEL 3
REMARK VINA RESULT:      -7.6      2.252      3.723
REMARK  Name = 
REMARK  7 active torsions:
REMARK  status: ('A' for Active; 'I' for Inactive)
REMARK    1  A    between atoms: C_1  and  O_2
REMARK    2  A    between atoms: O_2  and  C_3
REMARK    3  A    between atoms: C_6  and  C_7
REMARK    4  A    between atoms: C_7  and  N_8
REMARK    5  A    between atoms: N_8  and  C_9
REMARK    6  A    between atoms: C_14  and  C_15
REMARK    7  A    between atoms: C_14  and  C_16
REMARK                            x       y       z     vdW  Elec       q    Type
REMARK                         _______ _______ _______ _____ _____    ______ ____
ROOT
ATOM      1  N   UNL     1       6.405   5.463  19.437  0.00  0.00    +0.000 N 
ATOM      2  H   UNL     1       6.757   4.745  20.074  0.00  0.00    +0.000 HD
ENDROOT
BRANCH   1   3
ATOM      3  C   UNL     1       5.046   5.686  19.464  0.00  0.00    +0.000 C 
ATOM      4  C   UNL     1       4.014   4.824  19.415  0.00  0.00    +0.000 C 
ATOM      5  C   UNL     1       4.219   3.351  19.348  0.00  0.00    +0.000 C 
ATOM      6  O   UNL     1       5.294   2.816  19.616  0.00  0.00    +0.000 OA
ATOM      7  C   UNL     1       3.043   2.528  18.878  0.00  0.00    +0.000 C 
ATOM      8  C   UNL     1       1.719   3.004  19.497  0.00  0.00    +0.000 C 
ATOM      9  C   UNL     1       0.572   2.135  18.945  0.00  0.00    +0.000 C 
ATOM     10  C   UNL     1       1.737   2.850  21.030  0.00  0.00    +0.000 C 
ATOM     11  C   UNL     1       1.473   4.468  19.101  0.00  0.00    +0.000 C 
ATOM     12  C   UNL     1       2.633   5.399  19.399  0.00  0.00    +0.000 C 
ATOM     13  O   UNL     1       2.430   6.604  19.546  0.00  0.00    +0.000 OA
ENDBRANCH   1   3
BRANCH   1  14
ATOM     14  C   UNL     1       7.277   5.870  18.350  0.00  0.00    +0.000 C 
BRANCH  14  18
ATOM     15  C   UNL     1       5.661   4.558  14.553  0.00  0.00    +0.000 A 
ATOM     16  C   UNL     1       6.516   3.740  15.293  0.00  0.00    +0.000 A 
ATOM     17  C   UNL     1       7.053   4.189  16.503  0.00  0.00    +0.000 A 
ATOM     18  C   UNL     1       6.767   5.476  16.982  0.00  0.00    +0.000 A 
ATOM     19  C   UNL     1       5.919   6.294  16.222  0.00  0.00    +0.000 A 
ATOM     20  C   UNL     1       5.379   5.840  15.008  0.00  0.00    +0.000 A 
BRANCH  15  22
ATOM     21  C   UNL     1       6.187   3.562  12.475  0.00  0.00    +0.000 C 
ATOM     22  O   UNL     1       5.192   3.997  13.392  0.00  0.00    +0.000 OA
ENDBRANCH  15  22
ENDBRANCH  14  18
ENDBRANCH   1  14
TORSDOF 4
ENDMDL
MODEL 4
REMARK VINA RESULT:      -7.1      2.350      3.653
REMARK  Name = 
REMARK  7 active torsions:
REMARK  status: ('A' for Active; 'I' for Inactive)
REMARK    1  A    between atoms: C_1  and  O_2
REMARK    2  A    between atoms: O_2  and  C_3
REMARK    3  A    between atoms: C_6  and  C_7
REMARK    4  A    between atoms: C_7  and  N_8
REMARK    5  A    between atoms: N_8  and  C_9
REMARK    6  A    between atoms: C_14  and  C_15
REMARK    7  A    between atoms: C_14  and  C_16
REMARK                            x       y       z     vdW  Elec       q    Type
REMARK                         _______ _______ _______ _____ _____    ______ ____
ROOT
ATOM      1  N   UNL     1       6.623   5.006  19.279  0.00  0.00    +0.000 N 
ATOM      2  H   UNL     1       6.888   4.265  19.932  0.00  0.00    +0.000 HD
ENDROOT
BRANCH   1   3
ATOM      3  C   UNL     1       5.307   5.412  19.321  0.00  0.00    +0.000 C 
ATOM      4  C   UNL     1       4.173   4.698  19.428  0.00  0.00    +0.000 C 
ATOM      5  C   UNL     1       4.182   3.215  19.562  0.00  0.00    +0.000 C 
ATOM      6  O   UNL     1       5.192   2.581  19.866  0.00  0.00    +0.000 OA
ATOM      7  C   UNL     1       2.887   2.502  19.253  0.00  0.00    +0.000 C 
ATOM      8  C   UNL     1       1.670   3.231  19.844  0.00  0.00    +0.000 C 
ATOM      9  C   UNL     1       0.394   2.458  19.460  0.00  0.00    +0.000 C 
ATOM     10  C   UNL     1       1.749   3.283  21.382  0.00  0.00    +0.000 C 
ATOM     11  C   UNL     1       1.594   4.648  19.255  0.00  0.00    +0.000 C 
ATOM     12  C   UNL     1       2.878   5.445  19.379  0.00  0.00    +0.000 C 
ATOM     13  O   UNL     1       2.840   6.676  19.362  0.00  0.00    +0.000 OA
ENDBRANCH   1   3
BRANCH   1  14
ATOM     14  C   UNL     1       7.521   5.261  18.166  0.00  0.00    +0.000 C 
BRANCH  14  18
ATOM     15  C   UNL     1       6.145   3.991  14.262  0.00  0.00    +0.000 A 
ATOM     16  C   UNL     1       7.050   5.044  14.399  0.00  0.00    +0.000 A 
ATOM     17  C   UNL     1       7.462   5.462  15.667  0.00  0.00    +0.000 A 
ATOM     18  C   UNL     1       6.956   4.852  16.825  0.00  0.00    +0.000 A 
ATOM     19  C   UNL     1       6.035   3.805  16.674  0.00  0.00    +0.000 A 
ATOM     20  C   UNL     1       5.624   3.385  15.399  0.00  0.00    +0.000 A 
BRANCH  15  22
ATOM     21  C   UNL     1       6.907   3.733  12.040  0.00  0.00    +0.000 C 
ATOM     22  O   UNL     1       5.830   3.668  12.966  0.00  0.00    +0.000 OA
ENDBRANCH  15  22
ENDBRANCH  14  18
ENDBRANCH   1  14
TORSDOF 4
ENDMDL
MODEL 5
REMARK VINA RESULT:      -7.1      2.201      4.005
REMARK  Name = 
REMARK  7 active torsions:
REMARK  status: ('A' for Active; 'I' for Inactive)
REMARK    1  A    between atoms: C_1  and  O_2
REMARK    2  A    between atoms: O_2  and  C_3
REMARK    3  A    between atoms: C_6  and  C_7
REMARK    4  A    between atoms: C_7  and  N_8
REMARK    5  A    between atoms: N_8  and  C_9
REMARK    6  A    between atoms: C_14  and  C_15
REMARK    7  A    between atoms: C_14  and  C_16
REMARK                            x       y       z     vdW  Elec       q    Type
REMARK                         _______ _______ _______ _____ _____    ______ ____
ROOT
ATOM      1  N   UNL     1       6.582   5.803  19.332  0.00  0.00    +0.000 N 
ATOM      2  H   UNL     1       6.707   6.359  20.181  0.00  0.00    +0.000 HD
ENDROOT
BRANCH   1   3
ATOM      3  C   UNL     1       5.931   4.598  19.486  0.00  0.00    +0.000 C 
ATOM      4  C   UNL     1       4.619   4.310  19.539  0.00  0.00    +0.000 C 
ATOM      5  C   UNL     1       3.574   5.360  19.390  0.00  0.00    +0.000 C 
ATOM      6  O   UNL     1       3.813   6.478  18.936  0.00  0.00    +0.000 OA
ATOM      7  C   UNL     1       2.189   5.007  19.879  0.00  0.00    +0.000 C 
ATOM      8  C   UNL     1       1.782   3.580  19.479  0.00  0.00    +0.000 C 
ATOM      9  C   UNL     1       0.375   3.290  20.038  0.00  0.00    +0.000 C 
ATOM     10  C   UNL     1       1.724   3.428  17.946  0.00  0.00    +0.000 C 
ATOM     11  C   UNL     1       2.778   2.581  20.087  0.00  0.00    +0.000 C 
ATOM     12  C   UNL     1       4.232   2.887  19.784  0.00  0.00    +0.000 C 
ATOM     13  O   UNL     1       5.069   1.984  19.818  0.00  0.00    +0.000 OA
ENDBRANCH   1   3
BRANCH   1  14
ATOM     14  C   UNL     1       7.405   6.146  18.187  0.00  0.00    +0.000 C 
BRANCH  14  18
ATOM     15  C   UNL     1       5.671   4.583  14.540  0.00  0.00    +0.000 A 
ATOM     16  C   UNL     1       6.721   3.922  15.179  0.00  0.00    +0.000 A 
ATOM     17  C   UNL     1       7.289   4.454  16.339  0.00  0.00    +0.000 A 
ATOM     18  C   UNL     1       6.838   5.672  16.867  0.00  0.00    +0.000 A 
ATOM     19  C   UNL     1       5.793   6.335  16.207  0.00  0.00    +0.000 A 
ATOM     20  C   UNL     1       5.221   5.798  15.043  0.00  0.00    +0.000 A 
BRANCH  15  22
ATOM     21  C   UNL     1       6.180   3.479  12.513  0.00  0.00    +0.000 C 
ATOM     22  O   UNL     1       5.192   3.952  13.420  0.00  0.00    +0.000 OA
ENDBRANCH  15  22
ENDBRANCH  14  18
ENDBRANCH   1  14
TORSDOF 4
ENDMDL
MODEL 6
REMARK VINA RESULT:      -7.0      2.214      5.559
REMARK  Name = 
REMARK  7 active torsions:
REMARK  status: ('A' for Active; 'I' for Inactive)
REMARK    1  A    between atoms: C_1  and  O_2
REMARK    2  A    between atoms: O_2  and  C_3
REMARK    3  A    between atoms: C_6  and  C_7
REMARK    4  A    between atoms: C_7  and  N_8
REMARK    5  A    between atoms: N_8  and  C_9
REMARK    6  A    between atoms: C_14  and  C_15
REMARK    7  A    between atoms: C_14  and  C_16
REMARK                            x       y       z     vdW  Elec       q    Type
REMARK                         _______ _______ _______ _____ _____    ______ ____
ROOT
ATOM      1  N   UNL     1       3.040   2.201  17.876  0.00  0.00    +0.000 N 
ATOM      2  H   UNL     1       3.493   1.431  18.374  0.00  0.00    +0.000 HD
ENDROOT
BRANCH   1   3
ATOM      3  C   UNL     1       3.851   2.952  17.054  0.00  0.00    +0.000 C 
ATOM      4  C   UNL     1       4.829   3.827  17.348  0.00  0.00    +0.000 C 
ATOM      5  C   UNL     1       5.239   4.111  18.751  0.00  0.00    +0.000 C 
ATOM      6  O   UNL     1       4.929   3.385  19.695  0.00  0.00    +0.000 OA
ATOM      7  C   UNL     1       6.022   5.382  18.980  0.00  0.00    +0.000 C 
ATOM      8  C   UNL     1       7.093   5.603  17.900  0.00  0.00    +0.000 C 
ATOM      9  C   UNL     1       7.824   6.929  18.190  0.00  0.00    +0.000 C 
ATOM     10  C   UNL     1       8.139   4.471  17.916  0.00  0.00    +0.000 C 
ATOM     11  C   UNL     1       6.414   5.696  16.526  0.00  0.00    +0.000 C 
ATOM     12  C   UNL     1       5.486   4.539  16.209  0.00  0.00    +0.000 C 
ATOM     13  O   UNL     1       5.234   4.258  15.037  0.00  0.00    +0.000 OA
ENDBRANCH   1   3
BRANCH   1  14
ATOM     14  C   UNL     1       1.746   2.637  18.367  0.00  0.00    +0.000 C 
BRANCH  14  18
ATOM     15  C   UNL     1       1.937   6.705  19.837  0.00  0.00    +0.000 A 
ATOM     16  C   UNL     1       1.772   5.631  20.712  0.00  0.00    +0.000 A 
ATOM     17  C   UNL     1       1.683   4.326  20.220  0.00  0.00    +0.000 A 
ATOM     18  C   UNL     1       1.729   4.073  18.841  0.00  0.00    +0.000 A 
ATOM     19  C   UNL     1       1.879   5.163  17.971  0.00  0.00    +0.000 A 
ATOM     20  C   UNL     1       1.971   6.473  18.468  0.00  0.00    +0.000 A 
BRANCH  15  22
ATOM     21  C   UNL     1       0.911   8.298  21.250  0.00  0.00    +0.000 C 
ATOM     22  O   UNL     1       2.024   7.932  20.445  0.00  0.00    +0.000 OA
ENDBRANCH  15  22
ENDBRANCH  14  18
ENDBRANCH   1  14
TORSDOF 4
ENDMDL
MODEL 7
REMARK VINA RESULT:      -6.9      4.704      5.888
REMARK  Name = 
REMARK  7 active torsions:
REMARK  status: ('A' for Active; 'I' for Inactive)
REMARK    1  A    between atoms: C_1  and  O_2
REMARK    2  A    between atoms: O_2  and  C_3
REMARK    3  A    between atoms: C_6  and  C_7
REMARK    4  A    between atoms: C_7  and  N_8
REMARK    5  A    between atoms: N_8  and  C_9
REMARK    6  A    between atoms: C_14  and  C_15
REMARK    7  A    between atoms: C_14  and  C_16
REMARK                            x       y       z     vdW  Elec       q    Type
REMARK                         _______ _______ _______ _____ _____    ______ ____
ROOT
ATOM      1  N   UNL     1       2.694   6.556  20.130  0.00  0.00    +0.000 N 
ATOM      2  H   UNL     1       2.573   6.701  21.135  0.00  0.00    +0.000 HD
ENDROOT
BRANCH   1   3
ATOM      3  C   UNL     1       2.335   7.610  19.318  0.00  0.00    +0.000 C 
ATOM      4  C   UNL     1       1.528   8.660  19.549  0.00  0.00    +0.000 C 
ATOM      5  C   UNL     1       0.866   8.872  20.866  0.00  0.00    +0.000 C 
ATOM      6  O   UNL     1       1.219   8.289  21.890  0.00  0.00    +0.000 OA
ATOM      7  C   UNL     1      -0.316   9.813  20.882  0.00  0.00    +0.000 C 
ATOM      8  C   UNL     1      -0.066  11.071  20.036  0.00  0.00    +0.000 C 
ATOM      9  C   UNL     1      -1.324  11.959  20.082  0.00  0.00    +0.000 C 
ATOM     10  C   UNL     1       1.114  11.889  20.596  0.00  0.00    +0.000 C 
ATOM     11  C   UNL     1       0.202  10.657  18.581  0.00  0.00    +0.000 C 
ATOM     12  C   UNL     1       1.288   9.610  18.420  0.00  0.00    +0.000 C 
ATOM     13  O   UNL     1       1.893   9.514  17.351  0.00  0.00    +0.000 OA
ENDBRANCH   1   3
BRANCH   1  14
ATOM     14  C   UNL     1       2.852   5.188  19.671  0.00  0.00    +0.000 C 
BRANCH  14  18
ATOM     15  C   UNL     1       6.362   4.749  17.174  0.00  0.00    +0.000 A 
ATOM     16  C   UNL     1       5.092   4.432  16.692  0.00  0.00    +0.000 A 
ATOM     17  C   UNL     1       3.972   4.551  17.519  0.00  0.00    +0.000 A 
ATOM     18  C   UNL     1       4.104   4.963  18.854  0.00  0.00    +0.000 A 
ATOM     19  C   UNL     1       5.388   5.264  19.330  0.00  0.00    +0.000 A 
ATOM     20  C   UNL     1       6.512   5.146  18.497  0.00  0.00    +0.000 A 
BRANCH  15  22
ATOM     21  C   UNL     1       7.004   4.773  14.899  0.00  0.00    +0.000 C 
ATOM     22  O   UNL     1       7.376   4.603  16.261  0.00  0.00    +0.000 OA
ENDBRANCH  15  22
ENDBRANCH  14  18
ENDBRANCH   1  14
TORSDOF 4
ENDMDL
MODEL 8
REMARK VINA RESULT:      -6.8      3.059      5.464
REMARK  Name = 
REMARK  7 active torsions:
REMARK  status: ('A' for Active; 'I' for Inactive)
REMARK    1  A    between atoms: C_1  and  O_2
REMARK    2  A    between atoms: O_2  and  C_3
REMARK    3  A    between atoms: C_6  and  C_7
REMARK    4  A    between atoms: C_7  and  N_8
REMARK    5  A    between atoms: N_8  and  C_9
REMARK    6  A    between atoms: C_14  and  C_15
REMARK    7  A    between atoms: C_14  and  C_16
REMARK                            x       y       z     vdW  Elec       q    Type
REMARK                         _______ _______ _______ _____ _____    ______ ____
ROOT
ATOM      1  N   UNL     1       8.119   8.146  17.411  0.00  0.00    +0.000 N 
ATOM      2  H   UNL     1       8.541   7.898  16.513  0.00  0.00    +0.000 HD
ENDROOT
BRANCH   1   3
ATOM      3  C   UNL     1       7.653   7.096  18.172  0.00  0.00    +0.000 C 
ATOM      4  C   UNL     1       6.521   6.377  18.075  0.00  0.00    +0.000 C 
ATOM      5  C   UNL     1       5.522   6.619  16.998  0.00  0.00    +0.000 C 
ATOM      6  O   UNL     1       5.779   7.269  15.985  0.00  0.00    +0.000 OA
ATOM      7  C   UNL     1       4.135   6.066  17.228  0.00  0.00    +0.000 C 
ATOM      8  C   UNL     1       4.169   4.648  17.820  0.00  0.00    +0.000 C 
ATOM      9  C   UNL     1       2.722   4.171  18.050  0.00  0.00    +0.000 C 
ATOM     10  C   UNL     1       4.846   3.659  16.851  0.00  0.00    +0.000 C 
ATOM     11  C   UNL     1       4.906   4.679  19.167  0.00  0.00    +0.000 C 
ATOM     12  C   UNL     1       6.275   5.330  19.115  0.00  0.00    +0.000 C 
ATOM     13  O   UNL     1       7.123   5.045  19.961  0.00  0.00    +0.000 OA
ENDBRANCH   1   3
BRANCH   1  14
ATOM     14  C   UNL     1       7.722   9.530  17.598  0.00  0.00    +0.000 C 
BRANCH  14  18
ATOM     15  C   UNL     1      10.507  12.117  19.671  0.00  0.00    +0.000 A 
ATOM     16  C   UNL     1      10.043  12.435  18.394  0.00  0.00    +0.000 A 
ATOM     17  C   UNL     1       9.167  11.575  17.726  0.00  0.00    +0.000 A 
ATOM     18  C   UNL     1       8.760  10.367  18.310  0.00  0.00    +0.000 A 
ATOM     19  C   UNL     1       9.245  10.052  19.588  0.00  0.00    +0.000 A 
ATOM     20  C   UNL     1      10.123  10.918  20.259  0.00  0.00    +0.000 A 
BRANCH  15  22
ATOM     21  C   UNL     1      11.354  14.323  19.594  0.00  0.00    +0.000 C 
ATOM     22  O   UNL     1      11.349  13.048  20.224  0.00  0.00    +0.000 OA
ENDBRANCH  15  22
ENDBRANCH  14  18
ENDBRANCH   1  14
TORSDOF 4
ENDMDL
MODEL 9
REMARK VINA RESULT:      -6.8      4.986      6.419
REMARK  Name = 
REMARK  7 active torsions:
REMARK  status: ('A' for Active; 'I' for Inactive)
REMARK    1  A    between atoms: C_1  and  O_2
REMARK    2  A    between atoms: O_2  and  C_3
REMARK    3  A    between atoms: C_6  and  C_7
REMARK    4  A    between atoms: C_7  and  N_8
REMARK    5  A    between atoms: N_8  and  C_9
REMARK    6  A    between atoms: C_14  and  C_15
REMARK    7  A    between atoms: C_14  and  C_16
REMARK                            x       y       z     vdW  Elec       q    Type
REMARK                         _______ _______ _______ _____ _____    ______ ____
ROOT
ATOM      1  N   UNL     1       2.649   7.049  19.846  0.00  0.00    +0.000 N 
ATOM      2  H   UNL     1       3.601   7.337  20.085  0.00  0.00    +0.000 HD
ENDROOT
BRANCH   1   3
ATOM      3  C   UNL     1       1.632   7.742  20.465  0.00  0.00    +0.000 C 
ATOM      4  C   UNL     1       0.994   8.870  20.105  0.00  0.00    +0.000 C 
ATOM      5  C   UNL     1       1.309   9.585  18.838  0.00  0.00    +0.000 C 
ATOM      6  O   UNL     1       1.944   9.066  17.921  0.00  0.00    +0.000 OA
ATOM      7  C   UNL     1       0.854  11.022  18.744  0.00  0.00    +0.000 C 
ATOM      8  C   UNL     1      -0.566  11.216  19.301  0.00  0.00    +0.000 C 
ATOM      9  C   UNL     1      -0.941  12.707  19.195  0.00  0.00    +0.000 C 
ATOM     10  C   UNL     1      -1.596  10.408  18.487  0.00  0.00    +0.000 C 
ATOM     11  C   UNL     1      -0.591  10.797  20.778  0.00  0.00    +0.000 C 
ATOM     12  C   UNL     1      -0.037   9.410  21.044  0.00  0.00    +0.000 C 
ATOM     13  O   UNL     1      -0.384   8.794  22.051  0.00  0.00    +0.000 OA
ENDBRANCH   1   3
BRANCH   1  14
ATOM     14  C   UNL     1       2.488   5.751  19.216  0.00  0.00    +0.000 C 
BRANCH  14  18
ATOM     15  C   UNL     1       5.316   5.194  15.986  0.00  0.00    +0.000 A 
ATOM     16  C   UNL     1       5.031   6.467  16.481  0.00  0.00    +0.000 A 
ATOM     17  C   UNL     1       4.094   6.634  17.504  0.00  0.00    +0.000 A 
ATOM     18  C   UNL     1       3.404   5.533  18.033  0.00  0.00    +0.000 A 
ATOM     19  C   UNL     1       3.689   4.261  17.516  0.00  0.00    +0.000 A 
ATOM     20  C   UNL     1       4.632   4.095  16.490  0.00  0.00    +0.000 A 
BRANCH  15  22
ATOM     21  C   UNL     1       6.229   4.021  14.147  0.00  0.00    +0.000 C 
ATOM     22  O   UNL     1       6.263   5.164  14.993  0.00  0.00    +0.000 OA
ENDBRANCH  15  22
ENDBRANCH  14  18
ENDBRANCH   1  14
TORSDOF 4
ENDMDL
