MODEL 1
REMARK VINA RESULT:      -7.7      0.000      0.000
REMARK  Name = 
REMARK  6 active torsions:
REMARK  status: ('A' for Active; 'I' for Inactive)
REMARK    1  A    between atoms: C_1  and  C_2
REMARK    2  A    between atoms: N_5  and  C_6
REMARK    3  A    between atoms: C_6  and  C_7
REMARK    4  A    between atoms: C_7  and  C_8
REMARK    5  A    between atoms: C_14  and  C_15
REMARK    6  A    between atoms: C_17  and  O_18
REMARK                            x       y       z     vdW  Elec       q    Type
REMARK                         _______ _______ _______ _____ _____    ______ ____
ROOT
ATOM      1  C   UNL     1       1.785   8.714  17.853  0.00  0.00    +0.000 C 
ATOM      2  C   UNL     1       2.753   7.602  18.123  0.00  0.00    +0.000 A 
ATOM      3  N   UNL     1       2.496   6.788  19.164  0.00  0.00    +0.000 NA
ATOM      4  C   UNL     1       3.391   5.826  19.425  0.00  0.00    +0.000 A 
ATOM      5  N   UNL     1       3.201   4.914  20.470  0.00  0.00    +0.000 N 
ATOM      6  C   UNL     1       4.529   5.676  18.659  0.00  0.00    +0.000 A 
ATOM      7  C   UNL     1       4.701   6.510  17.569  0.00  0.00    +0.000 A 
ATOM      8  N   UNL     1       3.817   7.496  17.300  0.00  0.00    +0.000 NA
ATOM      9  H   UNL     1       3.952   5.001  21.148  0.00  0.00    +0.000 HD
ENDROOT
BRANCH   7  10
ATOM     10  C   UNL     1       5.879   6.346  16.533  0.00  0.00    +0.000 C 
ATOM     11  C   UNL     1       7.327   6.373  17.091  0.00  0.00    +0.000 C 
ATOM     12  C   UNL     1       7.378   4.841  16.941  0.00  0.00    +0.000 C 
ATOM     13  C   UNL     1       6.195   4.943  15.958  0.00  0.00    +0.000 C 
BRANCH  12  14
ATOM     14  O   UNL     1       7.141   4.079  18.139  0.00  0.00    +0.000 OA
ATOM     15  H   UNL     1       7.551   4.606  18.855  0.00  0.00    +0.000 HD
ENDBRANCH  12  14
ENDBRANCH   7  10
BRANCH   5  16
ATOM     16  C   UNL     1       1.863   4.874  21.063  0.00  0.00    +0.000 C 
BRANCH  16  17
ATOM     17  C   UNL     1       1.241   3.491  20.844  0.00  0.00    +0.000 C 
BRANCH  17  18
ATOM     18  C   UNL     1       1.838   2.783  19.680  0.00  0.00    +0.000 A 
ATOM     19  C   UNL     1       1.345   2.633  18.401  0.00  0.00    +0.000 A 
ATOM     20  N   UNL     1       2.291   1.902  17.737  0.00  0.00    +0.000 N 
ATOM     21  C   UNL     1       3.299   1.635  18.617  0.00  0.00    +0.000 A 
ATOM     22  N   UNL     1       3.054   2.153  19.797  0.00  0.00    +0.000 NA
ATOM     23  H   UNL     1       2.256   1.607  16.770  0.00  0.00    +0.000 HD
ENDBRANCH  17  18
ENDBRANCH  16  17
ENDBRANCH   5  16
TORSDOF 5
ENDMDL
MODEL 2
REMARK VINA RESULT:      -7.5      2.418      5.941
REMARK  Name = 
REMARK  6 active torsions:
REMARK  status: ('A' for Active; 'I' for Inactive)
REMARK    1  A    between atoms: C_1  and  C_2
REMARK    2  A    between atoms: N_5  and  C_6
REMARK    3  A    between atoms: C_6  and  C_7
REMARK    4  A    between atoms: C_7  and  C_8
REMARK    5  A    between atoms: C_14  and  C_15
REMARK    6  A    between atoms: C_17  and  O_18
REMARK                            x       y       z     vdW  Elec       q    Type
REMARK                         _______ _______ _______ _____ _____    ______ ____
ROOT
ATOM      1  C   UNL     1       3.137   7.538  17.847  0.00  0.00    +0.000 C 
ATOM      2  C   UNL     1       3.227   6.046  17.731  0.00  0.00    +0.000 A 
ATOM      3  N   UNL     1       4.297   5.531  17.098  0.00  0.00    +0.000 NA
ATOM      4  C   UNL     1       4.344   4.199  16.961  0.00  0.00    +0.000 A 
ATOM      5  N   UNL     1       5.427   3.565  16.340  0.00  0.00    +0.000 N 
ATOM      6  C   UNL     1       3.337   3.390  17.447  0.00  0.00    +0.000 A 
ATOM      7  C   UNL     1       2.296   3.982  18.138  0.00  0.00    +0.000 A 
ATOM      8  N   UNL     1       2.224   5.324  18.273  0.00  0.00    +0.000 NA
ATOM      9  H   UNL     1       5.111   3.065  15.515  0.00  0.00    +0.000 HD
ENDROOT
BRANCH   7  10
ATOM     10  C   UNL     1       1.165   3.159  18.867  0.00  0.00    +0.000 C 
ATOM     11  C   UNL     1       1.598   1.887  19.644  0.00  0.00    +0.000 C 
ATOM     12  C   UNL     1       1.455   2.680  20.956  0.00  0.00    +0.000 C 
ATOM     13  C   UNL     1       0.574   3.691  20.196  0.00  0.00    +0.000 C 
BRANCH  12  14
ATOM     14  O   UNL     1       2.674   3.200  21.519  0.00  0.00    +0.000 OA
ATOM     15  H   UNL     1       3.005   2.485  22.100  0.00  0.00    +0.000 HD
ENDBRANCH  12  14
ENDBRANCH   7  10
BRANCH   5  16
ATOM     16  C   UNL     1       6.620   4.384  16.121  0.00  0.00    +0.000 C 
BRANCH  16  17
ATOM     17  C   UNL     1       7.418   4.496  17.424  0.00  0.00    +0.000 C 
BRANCH  17  18
ATOM     18  C   UNL     1       7.703   5.909  17.789  0.00  0.00    +0.000 A 
ATOM     19  C   UNL     1       8.156   6.430  18.982  0.00  0.00    +0.000 A 
ATOM     20  N   UNL     1       8.247   7.778  18.773  0.00  0.00    +0.000 N 
ATOM     21  C   UNL     1       7.851   8.024  17.491  0.00  0.00    +0.000 A 
ATOM     22  N   UNL     1       7.517   6.916  16.872  0.00  0.00    +0.000 NA
ATOM     23  H   UNL     1       8.551   8.473  19.442  0.00  0.00    +0.000 HD
ENDBRANCH  17  18
ENDBRANCH  16  17
ENDBRANCH   5  16
TORSDOF 5
ENDMDL
MODEL 3
REMARK VINA RESULT:      -7.4      2.190      5.637
REMARK  Name = 
REMARK  6 active torsions:
REMARK  status: ('A' for Active; 'I' for Inactive)
REMARK    1  A    between atoms: C_1  and  C_2
REMARK    2  A    between atoms: N_5  and  C_6
REMARK    3  A    between atoms: C_6  and  C_7
REMARK    4  A    between atoms: C_7  and  C_8
REMARK    5  A    between atoms: C_14  and  C_15
REMARK    6  A    between atoms: C_17  and  O_18
REMARK                            x       y       z     vdW  Elec       q    Type
REMARK                         _______ _______ _______ _____ _____    ______ ____
ROOT
ATOM      1  C   UNL     1       2.952   8.172  17.941  0.00  0.00    +0.000 C 
ATOM      2  C   UNL     1       3.010   6.677  18.018  0.00  0.00    +0.000 A 
ATOM      3  N   UNL     1       3.813   6.036  17.150  0.00  0.00    +0.000 NA
ATOM      4  C   UNL     1       3.823   4.697  17.198  0.00  0.00    +0.000 A 
ATOM      5  N   UNL     1       4.645   3.940  16.353  0.00  0.00    +0.000 N 
ATOM      6  C   UNL     1       3.042   4.004  18.100  0.00  0.00    +0.000 A 
ATOM      7  C   UNL     1       2.284   4.727  19.002  0.00  0.00    +0.000 A 
ATOM      8  N   UNL     1       2.250   6.077  18.959  0.00  0.00    +0.000 NA
ATOM      9  H   UNL     1       4.076   3.344  15.759  0.00  0.00    +0.000 HD
ENDROOT
BRANCH   7  10
ATOM     10  C   UNL     1       1.466   4.060  20.174  0.00  0.00    +0.000 C 
ATOM     11  C   UNL     1       1.419   2.509  20.216  0.00  0.00    +0.000 C 
ATOM     12  C   UNL     1       2.454   2.541  21.356  0.00  0.00    +0.000 C 
ATOM     13  C   UNL     1       2.075   4.015  21.597  0.00  0.00    +0.000 C 
BRANCH  12  14
ATOM     14  O   UNL     1       3.821   2.293  20.977  0.00  0.00    +0.000 OA
ATOM     15  H   UNL     1       3.782   1.493  20.414  0.00  0.00    +0.000 HD
ENDBRANCH  12  14
ENDBRANCH   7  10
BRANCH   5  16
ATOM     16  C   UNL     1       5.691   4.672  15.637  0.00  0.00    +0.000 C 
BRANCH  16  17
ATOM     17  C   UNL     1       7.046   4.426  16.307  0.00  0.00    +0.000 C 
BRANCH  17  18
ATOM     18  C   UNL     1       7.427   5.530  17.228  0.00  0.00    +0.000 A 
ATOM     19  C   UNL     1       7.783   5.475  18.559  0.00  0.00    +0.000 A 
ATOM     20  N   UNL     1       8.035   6.771  18.915  0.00  0.00    +0.000 N 
ATOM     21  C   UNL     1       7.824   7.550  17.815  0.00  0.00    +0.000 A 
ATOM     22  N   UNL     1       7.456   6.830  16.782  0.00  0.00    +0.000 NA
ATOM     23  H   UNL     1       8.325   7.101  19.826  0.00  0.00    +0.000 HD
ENDBRANCH  17  18
ENDBRANCH  16  17
ENDBRANCH   5  16
TORSDOF 5
ENDMDL
MODEL 4
REMARK VINA RESULT:      -7.3      0.898      1.127
REMARK  Name = 
REMARK  6 active torsions:
REMARK  status: ('A' for Active; 'I' for Inactive)
REMARK    1  A    between atoms: C_1  and  C_2
REMARK    2  A    between atoms: N_5  and  C_6
REMARK    3  A    between atoms: C_6  and  C_7
REMARK    4  A    between atoms: C_7  and  C_8
REMARK    5  A    between atoms: C_14  and  C_15
REMARK    6  A    between atoms: C_17  and  O_18
REMARK                            x       y       z     vdW  Elec       q    Type
REMARK                         _______ _______ _______ _____ _____    ______ ____
ROOT
ATOM      1  C   UNL     1       1.893   8.837  17.770  0.00  0.00    +0.000 C 
ATOM      2  C   UNL     1       2.817   7.687  18.033  0.00  0.00    +0.000 A 
ATOM      3  N   UNL     1       2.531   6.878  19.070  0.00  0.00    +0.000 NA
ATOM      4  C   UNL     1       3.387   5.880  19.323  0.00  0.00    +0.000 A 
ATOM      5  N   UNL     1       3.164   4.970  20.364  0.00  0.00    +0.000 N 
ATOM      6  C   UNL     1       4.516   5.689  18.553  0.00  0.00    +0.000 A 
ATOM      7  C   UNL     1       4.719   6.521  17.468  0.00  0.00    +0.000 A 
ATOM      8  N   UNL     1       3.874   7.543  17.206  0.00  0.00    +0.000 NA
ATOM      9  H   UNL     1       3.919   5.024  21.040  0.00  0.00    +0.000 HD
ENDROOT
BRANCH   7  10
ATOM     10  C   UNL     1       5.887   6.317  16.428  0.00  0.00    +0.000 C 
ATOM     11  C   UNL     1       7.013   5.319  16.809  0.00  0.00    +0.000 C 
ATOM     12  C   UNL     1       6.380   4.291  15.852  0.00  0.00    +0.000 C 
ATOM     13  C   UNL     1       5.639   5.454  15.165  0.00  0.00    +0.000 C 
BRANCH  12  14
ATOM     14  O   UNL     1       5.551   3.284  16.462  0.00  0.00    +0.000 OA
ATOM     15  H   UNL     1       5.253   3.683  17.304  0.00  0.00    +0.000 HD
ENDBRANCH  12  14
ENDBRANCH   7  10
BRANCH   5  16
ATOM     16  C   UNL     1       1.827   4.979  20.960  0.00  0.00    +0.000 C 
BRANCH  16  17
ATOM     17  C   UNL     1       0.896   4.068  20.155  0.00  0.00    +0.000 C 
BRANCH  17  18
ATOM     18  C   UNL     1       1.645   3.074  19.341  0.00  0.00    +0.000 A 
ATOM     19  C   UNL     1       2.378   1.981  19.752  0.00  0.00    +0.000 A 
ATOM     20  N   UNL     1       2.851   1.414  18.600  0.00  0.00    +0.000 N 
ATOM     21  C   UNL     1       2.404   2.169  17.555  0.00  0.00    +0.000 A 
ATOM     22  N   UNL     1       1.674   3.177  17.970  0.00  0.00    +0.000 NA
ATOM     23  H   UNL     1       3.429   0.588  18.528  0.00  0.00    +0.000 HD
ENDBRANCH  17  18
ENDBRANCH  16  17
ENDBRANCH   5  16
TORSDOF 5
ENDMDL
MODEL 5
REMARK VINA RESULT:      -7.2      3.032      5.922
REMARK  Name = 
REMARK  6 active torsions:
REMARK  status: ('A' for Active; 'I' for Inactive)
REMARK    1  A    between atoms: C_1  and  C_2
REMARK    2  A    between atoms: N_5  and  C_6
REMARK    3  A    between atoms: C_6  and  C_7
REMARK    4  A    between atoms: C_7  and  C_8
REMARK    5  A    between atoms: C_14  and  C_15
REMARK    6  A    between atoms: C_17  and  O_18
REMARK                            x       y       z     vdW  Elec       q    Type
REMARK                         _______ _______ _______ _____ _____    ______ ____
ROOT
ATOM      1  C   UNL     1       3.385   7.701  17.807  0.00  0.00    +0.000 C 
ATOM      2  C   UNL     1       3.472   6.206  17.747  0.00  0.00    +0.000 A 
ATOM      3  N   UNL     1       4.591   5.664  17.232  0.00  0.00    +0.000 NA
ATOM      4  C   UNL     1       4.639   4.329  17.142  0.00  0.00    +0.000 A 
ATOM      5  N   UNL     1       5.770   3.669  16.644  0.00  0.00    +0.000 N 
ATOM      6  C   UNL     1       3.586   3.541  17.560  0.00  0.00    +0.000 A 
ATOM      7  C   UNL     1       2.491   4.161  18.132  0.00  0.00    +0.000 A 
ATOM      8  N   UNL     1       2.417   5.507  18.218  0.00  0.00    +0.000 NA
ATOM      9  H   UNL     1       5.526   3.145  15.810  0.00  0.00    +0.000 HD
ENDROOT
BRANCH   7  10
ATOM     10  C   UNL     1       1.291   3.368  18.781  0.00  0.00    +0.000 C 
ATOM     11  C   UNL     1       1.587   1.943  19.318  0.00  0.00    +0.000 C 
ATOM     12  C   UNL     1       1.589   2.519  20.747  0.00  0.00    +0.000 C 
ATOM     13  C   UNL     1       0.818   3.739  20.208  0.00  0.00    +0.000 C 
BRANCH  12  14
ATOM     14  O   UNL     1       2.883   2.790  21.319  0.00  0.00    +0.000 OA
ATOM     15  H   UNL     1       3.007   3.755  21.208  0.00  0.00    +0.000 HD
ENDBRANCH  12  14
ENDBRANCH   7  10
BRANCH   5  16
ATOM     16  C   UNL     1       6.985   4.474  16.509  0.00  0.00    +0.000 C 
BRANCH  16  17
ATOM     17  C   UNL     1       6.827   5.459  15.347  0.00  0.00    +0.000 C 
BRANCH  17  18
ATOM     18  C   UNL     1       6.820   4.775  14.026  0.00  0.00    +0.000 A 
ATOM     19  C   UNL     1       7.648   4.962  12.940  0.00  0.00    +0.000 A 
ATOM     20  N   UNL     1       7.206   4.077  11.996  0.00  0.00    +0.000 N 
ATOM     21  C   UNL     1       6.146   3.402  12.528  0.00  0.00    +0.000 A 
ATOM     22  N   UNL     1       5.889   3.802  13.751  0.00  0.00    +0.000 NA
ATOM     23  H   UNL     1       7.589   3.942  11.070  0.00  0.00    +0.000 HD
ENDBRANCH  17  18
ENDBRANCH  16  17
ENDBRANCH   5  16
TORSDOF 5
ENDMDL
MODEL 6
REMARK VINA RESULT:      -7.2      2.439      5.791
REMARK  Name = 
REMARK  6 active torsions:
REMARK  status: ('A' for Active; 'I' for Inactive)
REMARK    1  A    between atoms: C_1  and  C_2
REMARK    2  A    between atoms: N_5  and  C_6
REMARK    3  A    between atoms: C_6  and  C_7
REMARK    4  A    between atoms: C_7  and  C_8
REMARK    5  A    between atoms: C_14  and  C_15
REMARK    6  A    between atoms: C_17  and  O_18
REMARK                            x       y       z     vdW  Elec       q    Type
REMARK                         _______ _______ _______ _____ _____    ______ ____
ROOT
ATOM      1  C   UNL     1       2.867   7.382  18.200  0.00  0.00    +0.000 C 
ATOM      2  C   UNL     1       3.149   5.930  17.955  0.00  0.00    +0.000 A 
ATOM      3  N   UNL     1       3.939   5.613  16.913  0.00  0.00    +0.000 NA
ATOM      4  C   UNL     1       4.147   4.311  16.677  0.00  0.00    +0.000 A 
ATOM      5  N   UNL     1       4.974   3.879  15.631  0.00  0.00    +0.000 N 
ATOM      6  C   UNL     1       3.575   3.336  17.468  0.00  0.00    +0.000 A 
ATOM      7  C   UNL     1       2.821   3.733  18.556  0.00  0.00    +0.000 A 
ATOM      8  N   UNL     1       2.588   5.042  18.802  0.00  0.00    +0.000 NA
ATOM      9  H   UNL     1       4.437   3.327  14.970  0.00  0.00    +0.000 HD
ENDROOT
BRANCH   7  10
ATOM     10  C   UNL     1       2.238   2.724  19.619  0.00  0.00    +0.000 C 
ATOM     11  C   UNL     1       3.050   2.520  20.926  0.00  0.00    +0.000 C 
ATOM     12  C   UNL     1       2.031   3.415  21.658  0.00  0.00    +0.000 C 
ATOM     13  C   UNL     1       1.043   3.157  20.504  0.00  0.00    +0.000 C 
BRANCH  12  14
ATOM     14  O   UNL     1       2.424   4.785  21.861  0.00  0.00    +0.000 OA
ATOM     15  H   UNL     1       1.615   5.230  22.188  0.00  0.00    +0.000 HD
ENDBRANCH  12  14
ENDBRANCH   7  10
BRANCH   5  16
ATOM     16  C   UNL     1       5.821   4.899  15.010  0.00  0.00    +0.000 C 
BRANCH  16  17
ATOM     17  C   UNL     1       7.253   4.775  15.539  0.00  0.00    +0.000 C 
BRANCH  17  18
ATOM     18  C   UNL     1       7.458   5.546  16.794  0.00  0.00    +0.000 A 
ATOM     19  C   UNL     1       7.562   5.093  18.092  0.00  0.00    +0.000 A 
ATOM     20  N   UNL     1       7.745   6.217  18.850  0.00  0.00    +0.000 N 
ATOM     21  C   UNL     1       7.741   7.288  18.005  0.00  0.00    +0.000 A 
ATOM     22  N   UNL     1       7.569   6.916  16.759  0.00  0.00    +0.000 NA
ATOM     23  H   UNL     1       7.863   6.255  19.853  0.00  0.00    +0.000 HD
ENDBRANCH  17  18
ENDBRANCH  16  17
ENDBRANCH   5  16
TORSDOF 5
ENDMDL
MODEL 7
REMARK VINA RESULT:      -7.0      1.542      2.390
REMARK  Name = 
REMARK  6 active torsions:
REMARK  status: ('A' for Active; 'I' for Inactive)
REMARK    1  A    between atoms: C_1  and  C_2
REMARK    2  A    between atoms: N_5  and  C_6
REMARK    3  A    between atoms: C_6  and  C_7
REMARK    4  A    between atoms: C_7  and  C_8
REMARK    5  A    between atoms: C_14  and  C_15
REMARK    6  A    between atoms: C_17  and  O_18
REMARK                            x       y       z     vdW  Elec       q    Type
REMARK                         _______ _______ _______ _____ _____    ______ ____
ROOT
ATOM      1  C   UNL     1       2.587   8.269  17.795  0.00  0.00    +0.000 C 
ATOM      2  C   UNL     1       3.324   6.965  17.744  0.00  0.00    +0.000 A 
ATOM      3  N   UNL     1       2.603   5.834  17.847  0.00  0.00    +0.000 NA
ATOM      4  C   UNL     1       3.276   4.676  17.845  0.00  0.00    +0.000 A 
ATOM      5  N   UNL     1       2.614   3.444  17.922  0.00  0.00    +0.000 N 
ATOM      6  C   UNL     1       4.652   4.644  17.743  0.00  0.00    +0.000 A 
ATOM      7  C   UNL     1       5.326   5.841  17.582  0.00  0.00    +0.000 A 
ATOM      8  N   UNL     1       4.665   7.020  17.597  0.00  0.00    +0.000 NA
ATOM      9  H   UNL     1       2.899   2.948  18.761  0.00  0.00    +0.000 HD
ENDROOT
BRANCH   7  10
ATOM     10  C   UNL     1       6.876   5.930  17.308  0.00  0.00    +0.000 C 
ATOM     11  C   UNL     1       7.695   6.930  18.167  0.00  0.00    +0.000 C 
ATOM     12  C   UNL     1       8.212   5.741  18.998  0.00  0.00    +0.000 C 
ATOM     13  C   UNL     1       7.808   4.812  17.837  0.00  0.00    +0.000 C 
BRANCH  12  14
ATOM     14  O   UNL     1       7.547   5.510  20.255  0.00  0.00    +0.000 OA
ATOM     15  H   UNL     1       8.249   5.175  20.850  0.00  0.00    +0.000 HD
ENDBRANCH  12  14
ENDBRANCH   7  10
BRANCH   5  16
ATOM     16  C   UNL     1       1.167   3.469  17.706  0.00  0.00    +0.000 C 
BRANCH  16  17
ATOM     17  C   UNL     1       0.450   2.899  18.934  0.00  0.00    +0.000 C 
BRANCH  17  18
ATOM     18  C   UNL     1       1.235   3.088  20.182  0.00  0.00    +0.000 A 
ATOM     19  C   UNL     1       1.844   2.147  20.984  0.00  0.00    +0.000 A 
ATOM     20  N   UNL     1       2.427   2.861  21.995  0.00  0.00    +0.000 N 
ATOM     21  C   UNL     1       2.154   4.180  21.779  0.00  0.00    +0.000 A 
ATOM     22  N   UNL     1       1.437   4.349  20.694  0.00  0.00    +0.000 NA
ATOM     23  H   UNL     1       2.964   2.486  22.766  0.00  0.00    +0.000 HD
ENDBRANCH  17  18
ENDBRANCH  16  17
ENDBRANCH   5  16
TORSDOF 5
ENDMDL
MODEL 8
REMARK VINA RESULT:      -6.9      3.687      6.496
REMARK  Name = 
REMARK  6 active torsions:
REMARK  status: ('A' for Active; 'I' for Inactive)
REMARK    1  A    between atoms: C_1  and  C_2
REMARK    2  A    between atoms: N_5  and  C_6
REMARK    3  A    between atoms: C_6  and  C_7
REMARK    4  A    between atoms: C_7  and  C_8
REMARK    5  A    between atoms: C_14  and  C_15
REMARK    6  A    between atoms: C_17  and  O_18
REMARK                            x       y       z     vdW  Elec       q    Type
REMARK                         _______ _______ _______ _____ _____    ______ ____
ROOT
ATOM      1  C   UNL     1       7.752   5.580  19.086  0.00  0.00    +0.000 C 
ATOM      2  C   UNL     1       6.660   5.094  18.183  0.00  0.00    +0.000 A 
ATOM      3  N   UNL     1       6.876   5.144  16.856  0.00  0.00    +0.000 NA
ATOM      4  C   UNL     1       5.876   4.749  16.057  0.00  0.00    +0.000 A 
ATOM      5  N   UNL     1       6.013   4.740  14.663  0.00  0.00    +0.000 N 
ATOM      6  C   UNL     1       4.674   4.311  16.573  0.00  0.00    +0.000 A 
ATOM      7  C   UNL     1       4.539   4.232  17.946  0.00  0.00    +0.000 A 
ATOM      8  N   UNL     1       5.532   4.639  18.768  0.00  0.00    +0.000 NA
ATOM      9  H   UNL     1       5.336   5.369  14.243  0.00  0.00    +0.000 HD
ENDROOT
BRANCH   7  10
ATOM     10  C   UNL     1       3.275   3.611  18.657  0.00  0.00    +0.000 C 
ATOM     11  C   UNL     1       2.505   2.499  17.895  0.00  0.00    +0.000 C 
ATOM     12  C   UNL     1       3.165   1.457  18.818  0.00  0.00    +0.000 C 
ATOM     13  C   UNL     1       3.472   2.596  19.810  0.00  0.00    +0.000 C 
BRANCH  12  14
ATOM     14  O   UNL     1       4.306   0.764  18.277  0.00  0.00    +0.000 OA
ATOM     15  H   UNL     1       3.993   0.395  17.427  0.00  0.00    +0.000 HD
ENDBRANCH  12  14
ENDBRANCH   7  10
BRANCH   5  16
ATOM     16  C   UNL     1       7.373   4.892  14.142  0.00  0.00    +0.000 C 
BRANCH  16  17
ATOM     17  C   UNL     1       7.351   4.835  12.612  0.00  0.00    +0.000 C 
BRANCH  17  18
ATOM     18  C   UNL     1       6.705   3.595  12.104  0.00  0.00    +0.000 A 
ATOM     19  C   UNL     1       7.283   2.411  11.697  0.00  0.00    +0.000 A 
ATOM     20  N   UNL     1       6.237   1.609  11.331  0.00  0.00    +0.000 N 
ATOM     21  C   UNL     1       5.088   2.320  11.519  0.00  0.00    +0.000 A 
ATOM     22  N   UNL     1       5.337   3.521  11.985  0.00  0.00    +0.000 NA
ATOM     23  H   UNL     1       6.297   0.662  10.982  0.00  0.00    +0.000 HD
ENDBRANCH  17  18
ENDBRANCH  16  17
ENDBRANCH   5  16
TORSDOF 5
ENDMDL
MODEL 9
REMARK VINA RESULT:      -6.9      3.747      6.515
REMARK  Name = 
REMARK  6 active torsions:
REMARK  status: ('A' for Active; 'I' for Inactive)
REMARK    1  A    between atoms: C_1  and  C_2
REMARK    2  A    between atoms: N_5  and  C_6
REMARK    3  A    between atoms: C_6  and  C_7
REMARK    4  A    between atoms: C_7  and  C_8
REMARK    5  A    between atoms: C_14  and  C_15
REMARK    6  A    between atoms: C_17  and  O_18
REMARK                            x       y       z     vdW  Elec       q    Type
REMARK                         _______ _______ _______ _____ _____    ______ ____
ROOT
ATOM      1  C   UNL     1       7.384   5.642  19.382  0.00  0.00    +0.000 C 
ATOM      2  C   UNL     1       6.400   4.940  18.496  0.00  0.00    +0.000 A 
ATOM      3  N   UNL     1       6.602   4.999  17.167  0.00  0.00    +0.000 NA
ATOM      4  C   UNL     1       5.692   4.406  16.382  0.00  0.00    +0.000 A 
ATOM      5  N   UNL     1       5.825   4.391  14.988  0.00  0.00    +0.000 N 
ATOM      6  C   UNL     1       4.593   3.763  16.915  0.00  0.00    +0.000 A 
ATOM      7  C   UNL     1       4.478   3.691  18.291  0.00  0.00    +0.000 A 
ATOM      8  N   UNL     1       5.379   4.295  19.098  0.00  0.00    +0.000 NA
ATOM      9  H   UNL     1       5.042   4.873  14.559  0.00  0.00    +0.000 HD
ENDROOT
BRANCH   7  10
ATOM     10  C   UNL     1       3.354   2.861  19.022  0.00  0.00    +0.000 C 
ATOM     11  C   UNL     1       2.164   3.654  19.626  0.00  0.00    +0.000 C 
ATOM     12  C   UNL     1       1.302   3.205  18.431  0.00  0.00    +0.000 C 
ATOM     13  C   UNL     1       2.320   2.075  18.180  0.00  0.00    +0.000 C 
BRANCH  12  14
ATOM     14  O   UNL     1       1.145   4.163  17.367  0.00  0.00    +0.000 OA
ATOM     15  H   UNL     1       0.285   4.595  17.547  0.00  0.00    +0.000 HD
ENDBRANCH  12  14
ENDBRANCH   7  10
BRANCH   5  16
ATOM     16  C   UNL     1       7.131   4.783  14.456  0.00  0.00    +0.000 C 
BRANCH  16  17
ATOM     17  C   UNL     1       7.056   4.897  12.931  0.00  0.00    +0.000 C 
BRANCH  17  18
ATOM     18  C   UNL     1       6.593   3.636  12.294  0.00  0.00    +0.000 A 
ATOM     19  C   UNL     1       7.331   2.567  11.831  0.00  0.00    +0.000 A 
ATOM     20  N   UNL     1       6.410   1.680  11.345  0.00  0.00    +0.000 N 
ATOM     21  C   UNL     1       5.174   2.231  11.520  0.00  0.00    +0.000 A 
ATOM     22  N   UNL     1       5.252   3.410  12.090  0.00  0.00    +0.000 NA
ATOM     23  H   UNL     1       6.603   0.779  10.929  0.00  0.00    +0.000 HD
ENDBRANCH  17  18
ENDBRANCH  16  17
ENDBRANCH   5  16
TORSDOF 5
ENDMDL
