MODEL 1
REMARK VINA RESULT:      -6.8      0.000      0.000
REMARK  Name = 
REMARK  11 active torsions:
REMARK  status: ('A' for Active; 'I' for Inactive)
REMARK    1  A    between atoms: C_1  and  C_2
REMARK    2  A    between atoms: C_2  and  C_3
REMARK    3  A    between atoms: C_3  and  C_4
REMARK    4  A    between atoms: C_3  and  C_17
REMARK    5  A    between atoms: C_4  and  C_5
REMARK    6  A    between atoms: C_8  and  O_9
REMARK    7  A    between atoms: O_9  and  C_10
REMARK    8  A    between atoms: C_10  and  C_11
REMARK    9  A    between atoms: C_11  and  N_12
REMARK   10  A    between atoms: N_12  and  C_13
REMARK   11  A    between atoms: N_12  and  C_14
REMARK                            x       y       z     vdW  Elec       q    Type
REMARK                         _______ _______ _______ _____ _____    ______ ____
ROOT
ATOM      1  C   UNL     1       2.430   6.840  19.042  0.00  0.00    +0.000 A 
ATOM      2  C   UNL     1       2.353   7.744  17.980  0.00  0.00    +0.000 A 
ATOM      3  C   UNL     1       1.813   9.011  18.164  0.00  0.00    +0.000 A 
ATOM      4  C   UNL     1       1.308   9.399  19.411  0.00  0.00    +0.000 A 
ATOM      5  C   UNL     1       1.394   8.508  20.482  0.00  0.00    +0.000 A 
ATOM      6  C   UNL     1       1.954   7.234  20.296  0.00  0.00    +0.000 A 
ENDROOT
BRANCH   1   7
ATOM      7  C   UNL     1       2.995   5.459  18.792  0.00  0.00    +0.000 C 
BRANCH   7   8
ATOM      8  C   UNL     1       3.966   5.317  17.593  0.00  0.00    +0.000 C 
BRANCH   8   9
ATOM      9  C   UNL     1       5.374   5.831  17.909  0.00  0.00    +0.000 A 
ATOM     10  C   UNL     1       6.098   5.284  18.983  0.00  0.00    +0.000 A 
ATOM     11  C   UNL     1       7.389   5.735  19.278  0.00  0.00    +0.000 A 
ATOM     12  C   UNL     1       7.976   6.737  18.511  0.00  0.00    +0.000 A 
ATOM     13  C   UNL     1       7.281   7.277  17.442  0.00  0.00    +0.000 A 
ATOM     14  C   UNL     1       5.994   6.827  17.137  0.00  0.00    +0.000 A 
ENDBRANCH   8   9
BRANCH   8  16
ATOM     15  C   UNL     1       3.269   2.827  17.749  0.00  0.00    +0.000 C 
ATOM     16  C   UNL     1       3.977   3.910  16.949  0.00  0.00    +0.000 C 
ENDBRANCH   8  16
ENDBRANCH   7   8
ENDBRANCH   1   7
BRANCH   4  17
ATOM     17  O   UNL     1       0.708  10.612  19.669  0.00  0.00    +0.000 OA
BRANCH  17  18
ATOM     18  C   UNL     1      -0.692  10.509  19.946  0.00  0.00    +0.000 C 
BRANCH  18  19
ATOM     19  C   UNL     1      -1.538  11.378  19.010  0.00  0.00    +0.000 C 
BRANCH  19  20
ATOM     20  N   UNL     1      -2.494  10.574  18.213  0.00  0.00    +0.000 NA
ATOM     21  C   UNL     1      -3.612  11.371  17.701  0.00  0.00    +0.000 C 
ATOM     22  C   UNL     1      -1.804   9.916  17.104  0.00  0.00    +0.000 C 
ENDBRANCH  19  20
ENDBRANCH  18  19
ENDBRANCH  17  18
ENDBRANCH   4  17
TORSDOF 8
ENDMDL
MODEL 2
REMARK VINA RESULT:      -6.8      1.265      1.836
REMARK  Name = 
REMARK  11 active torsions:
REMARK  status: ('A' for Active; 'I' for Inactive)
REMARK    1  A    between atoms: C_1  and  C_2
REMARK    2  A    between atoms: C_2  and  C_3
REMARK    3  A    between atoms: C_3  and  C_4
REMARK    4  A    between atoms: C_3  and  C_17
REMARK    5  A    between atoms: C_4  and  C_5
REMARK    6  A    between atoms: C_8  and  O_9
REMARK    7  A    between atoms: O_9  and  C_10
REMARK    8  A    between atoms: C_10  and  C_11
REMARK    9  A    between atoms: C_11  and  N_12
REMARK   10  A    between atoms: N_12  and  C_13
REMARK   11  A    between atoms: N_12  and  C_14
REMARK                            x       y       z     vdW  Elec       q    Type
REMARK                         _______ _______ _______ _____ _____    ______ ____
ROOT
ATOM      1  C   UNL     1       2.343   7.181  19.361  0.00  0.00    +0.000 A 
ATOM      2  C   UNL     1       2.337   7.774  18.096  0.00  0.00    +0.000 A 
ATOM      3  C   UNL     1       1.700   8.992  17.886  0.00  0.00    +0.000 A 
ATOM      4  C   UNL     1       1.027   9.636  18.930  0.00  0.00    +0.000 A 
ATOM      5  C   UNL     1       1.040   9.059  20.201  0.00  0.00    +0.000 A 
ATOM      6  C   UNL     1       1.697   7.837  20.414  0.00  0.00    +0.000 A 
ENDROOT
BRANCH   1   7
ATOM      7  C   UNL     1       3.019   5.840  19.541  0.00  0.00    +0.000 C 
BRANCH   7   8
ATOM      8  C   UNL     1       3.194   4.978  18.265  0.00  0.00    +0.000 C 
BRANCH   8   9
ATOM      9  C   UNL     1       4.660   4.852  17.836  0.00  0.00    +0.000 A 
ATOM     10  C   UNL     1       4.977   4.444  16.529  0.00  0.00    +0.000 A 
ATOM     11  C   UNL     1       6.310   4.334  16.117  0.00  0.00    +0.000 A 
ATOM     12  C   UNL     1       7.344   4.626  17.001  0.00  0.00    +0.000 A 
ATOM     13  C   UNL     1       7.048   5.042  18.289  0.00  0.00    +0.000 A 
ATOM     14  C   UNL     1       5.719   5.160  18.704  0.00  0.00    +0.000 A 
ENDBRANCH   8   9
BRANCH   8  16
ATOM     15  C   UNL     1       1.684   3.346  19.593  0.00  0.00    +0.000 C 
ATOM     16  C   UNL     1       2.470   3.612  18.318  0.00  0.00    +0.000 C 
ENDBRANCH   8  16
ENDBRANCH   7   8
ENDBRANCH   1   7
BRANCH   4  17
ATOM     17  O   UNL     1       0.326  10.814  18.798  0.00  0.00    +0.000 OA
BRANCH  17  18
ATOM     18  C   UNL     1      -1.090  10.654  18.930  0.00  0.00    +0.000 C 
BRANCH  18  19
ATOM     19  C   UNL     1      -1.745  10.160  17.635  0.00  0.00    +0.000 C 
BRANCH  19  20
ATOM     20  N   UNL     1      -2.543  11.219  16.974  0.00  0.00    +0.000 NA
ATOM     21  C   UNL     1      -2.906  10.873  15.596  0.00  0.00    +0.000 C 
ATOM     22  C   UNL     1      -3.750  11.504  17.749  0.00  0.00    +0.000 C 
ENDBRANCH  19  20
ENDBRANCH  18  19
ENDBRANCH  17  18
ENDBRANCH   4  17
TORSDOF 8
ENDMDL
MODEL 3
REMARK VINA RESULT:      -6.7      2.399      3.481
REMARK  Name = 
REMARK  11 active torsions:
REMARK  status: ('A' for Active; 'I' for Inactive)
REMARK    1  A    between atoms: C_1  and  C_2
REMARK    2  A    between atoms: C_2  and  C_3
REMARK    3  A    between atoms: C_3  and  C_4
REMARK    4  A    between atoms: C_3  and  C_17
REMARK    5  A    between atoms: C_4  and  C_5
REMARK    6  A    between atoms: C_8  and  O_9
REMARK    7  A    between atoms: O_9  and  C_10
REMARK    8  A    between atoms: C_10  and  C_11
REMARK    9  A    between atoms: C_11  and  N_12
REMARK   10  A    between atoms: N_12  and  C_13
REMARK   11  A    between atoms: N_12  and  C_14
REMARK                            x       y       z     vdW  Elec       q    Type
REMARK                         _______ _______ _______ _____ _____    ______ ____
ROOT
ATOM      1  C   UNL     1       3.532   4.572  18.002  0.00  0.00    +0.000 A 
ATOM      2  C   UNL     1       3.419   4.017  19.280  0.00  0.00    +0.000 A 
ATOM      3  C   UNL     1       2.742   4.691  20.289  0.00  0.00    +0.000 A 
ATOM      4  C   UNL     1       2.183   5.953  20.056  0.00  0.00    +0.000 A 
ATOM      5  C   UNL     1       2.278   6.509  18.779  0.00  0.00    +0.000 A 
ATOM      6  C   UNL     1       2.948   5.819  17.757  0.00  0.00    +0.000 A 
ENDROOT
BRANCH   1   7
ATOM      7  C   UNL     1       4.304   3.821  16.940  0.00  0.00    +0.000 C 
BRANCH   7   8
ATOM      8  C   UNL     1       5.330   4.644  16.121  0.00  0.00    +0.000 C 
BRANCH   8   9
ATOM      9  C   UNL     1       6.292   5.440  17.008  0.00  0.00    +0.000 A 
ATOM     10  C   UNL     1       7.034   4.784  18.006  0.00  0.00    +0.000 A 
ATOM     11  C   UNL     1       7.925   5.494  18.818  0.00  0.00    +0.000 A 
ATOM     12  C   UNL     1       8.088   6.866  18.649  0.00  0.00    +0.000 A 
ATOM     13  C   UNL     1       7.374   7.525  17.662  0.00  0.00    +0.000 A 
ATOM     14  C   UNL     1       6.488   6.821  16.843  0.00  0.00    +0.000 A 
ENDBRANCH   8   9
BRANCH   8  16
ATOM     15  C   UNL     1       6.799   4.668  13.988  0.00  0.00    +0.000 C 
ATOM     16  C   UNL     1       6.063   3.834  15.025  0.00  0.00    +0.000 C 
ENDBRANCH   8  16
ENDBRANCH   7   8
ENDBRANCH   1   7
BRANCH   4  17
ATOM     17  O   UNL     1       1.545   6.714  21.011  0.00  0.00    +0.000 OA
BRANCH  17  18
ATOM     18  C   UNL     1       1.468   8.103  20.677  0.00  0.00    +0.000 C 
BRANCH  18  19
ATOM     19  C   UNL     1       1.259   8.989  21.910  0.00  0.00    +0.000 C 
BRANCH  19  20
ATOM     20  N   UNL     1       0.087   9.884  21.762  0.00  0.00    +0.000 NA
ATOM     21  C   UNL     1      -0.625  10.092  23.026  0.00  0.00    +0.000 C 
ATOM     22  C   UNL     1       0.499  11.172  21.206  0.00  0.00    +0.000 C 
ENDBRANCH  19  20
ENDBRANCH  18  19
ENDBRANCH  17  18
ENDBRANCH   4  17
TORSDOF 8
ENDMDL
MODEL 4
REMARK VINA RESULT:      -6.7      4.457      8.059
REMARK  Name = 
REMARK  11 active torsions:
REMARK  status: ('A' for Active; 'I' for Inactive)
REMARK    1  A    between atoms: C_1  and  C_2
REMARK    2  A    between atoms: C_2  and  C_3
REMARK    3  A    between atoms: C_3  and  C_4
REMARK    4  A    between atoms: C_3  and  C_17
REMARK    5  A    between atoms: C_4  and  C_5
REMARK    6  A    between atoms: C_8  and  O_9
REMARK    7  A    between atoms: O_9  and  C_10
REMARK    8  A    between atoms: C_10  and  C_11
REMARK    9  A    between atoms: C_11  and  N_12
REMARK   10  A    between atoms: N_12  and  C_13
REMARK   11  A    between atoms: N_12  and  C_14
REMARK                            x       y       z     vdW  Elec       q    Type
REMARK                         _______ _______ _______ _____ _____    ______ ____
ROOT
ATOM      1  C   UNL     1       5.205   6.069  17.635  0.00  0.00    +0.000 A 
ATOM      2  C   UNL     1       6.195   5.117  17.888  0.00  0.00    +0.000 A 
ATOM      3  C   UNL     1       7.022   4.664  16.867  0.00  0.00    +0.000 A 
ATOM      4  C   UNL     1       6.862   5.131  15.557  0.00  0.00    +0.000 A 
ATOM      5  C   UNL     1       5.885   6.094  15.297  0.00  0.00    +0.000 A 
ATOM      6  C   UNL     1       5.061   6.561  16.334  0.00  0.00    +0.000 A 
ENDROOT
BRANCH   1   7
ATOM      7  C   UNL     1       4.305   6.512  18.767  0.00  0.00    +0.000 C 
BRANCH   7   8
ATOM      8  C   UNL     1       2.782   6.516  18.477  0.00  0.00    +0.000 C 
BRANCH   8   9
ATOM      9  C   UNL     1       2.091   5.229  18.937  0.00  0.00    +0.000 A 
ATOM     10  C   UNL     1       1.786   4.222  18.004  0.00  0.00    +0.000 A 
ATOM     11  C   UNL     1       1.164   3.036  18.410  0.00  0.00    +0.000 A 
ATOM     12  C   UNL     1       0.836   2.837  19.747  0.00  0.00    +0.000 A 
ATOM     13  C   UNL     1       1.141   3.813  20.681  0.00  0.00    +0.000 A 
ATOM     14  C   UNL     1       1.768   4.997  20.284  0.00  0.00    +0.000 A 
ENDBRANCH   8   9
BRANCH   8  16
ATOM     15  C   UNL     1       1.983   8.922  17.945  0.00  0.00    +0.000 C 
ATOM     16  C   UNL     1       2.048   7.790  18.959  0.00  0.00    +0.000 C 
ENDBRANCH   8  16
ENDBRANCH   7   8
ENDBRANCH   1   7
BRANCH   4  17
ATOM     17  O   UNL     1       7.599   4.698  14.477  0.00  0.00    +0.000 OA
BRANCH  17  18
ATOM     18  C   UNL     1       6.866   4.698  13.248  0.00  0.00    +0.000 C 
BRANCH  18  19
ATOM     19  C   UNL     1       5.883   3.526  13.154  0.00  0.00    +0.000 C 
BRANCH  19  20
ATOM     20  N   UNL     1       5.637   3.115  11.752  0.00  0.00    +0.000 NA
ATOM     21  C   UNL     1       6.162   1.779  11.456  0.00  0.00    +0.000 C 
ATOM     22  C   UNL     1       4.207   3.163  11.452  0.00  0.00    +0.000 C 
ENDBRANCH  19  20
ENDBRANCH  18  19
ENDBRANCH  17  18
ENDBRANCH   4  17
TORSDOF 8
ENDMDL
MODEL 5
REMARK VINA RESULT:      -6.6      1.502      3.723
REMARK  Name = 
REMARK  11 active torsions:
REMARK  status: ('A' for Active; 'I' for Inactive)
REMARK    1  A    between atoms: C_1  and  C_2
REMARK    2  A    between atoms: C_2  and  C_3
REMARK    3  A    between atoms: C_3  and  C_4
REMARK    4  A    between atoms: C_3  and  C_17
REMARK    5  A    between atoms: C_4  and  C_5
REMARK    6  A    between atoms: C_8  and  O_9
REMARK    7  A    between atoms: O_9  and  C_10
REMARK    8  A    between atoms: C_10  and  C_11
REMARK    9  A    between atoms: C_11  and  N_12
REMARK   10  A    between atoms: N_12  and  C_13
REMARK   11  A    between atoms: N_12  and  C_14
REMARK                            x       y       z     vdW  Elec       q    Type
REMARK                         _______ _______ _______ _____ _____    ______ ____
ROOT
ATOM      1  C   UNL     1       2.355   7.846  18.701  0.00  0.00    +0.000 A 
ATOM      2  C   UNL     1       1.868   7.868  20.010  0.00  0.00    +0.000 A 
ATOM      3  C   UNL     1       0.973   8.850  20.418  0.00  0.00    +0.000 A 
ATOM      4  C   UNL     1       0.561   9.854  19.533  0.00  0.00    +0.000 A 
ATOM      5  C   UNL     1       1.031   9.831  18.219  0.00  0.00    +0.000 A 
ATOM      6  C   UNL     1       1.923   8.829  17.806  0.00  0.00    +0.000 A 
ENDROOT
BRANCH   1   7
ATOM      7  C   UNL     1       3.353   6.780  18.306  0.00  0.00    +0.000 C 
BRANCH   7   8
ATOM      8  C   UNL     1       3.693   5.719  19.383  0.00  0.00    +0.000 C 
BRANCH   8   9
ATOM      9  C   UNL     1       2.658   4.590  19.447  0.00  0.00    +0.000 A 
ATOM     10  C   UNL     1       2.143   4.178  20.688  0.00  0.00    +0.000 A 
ATOM     11  C   UNL     1       1.189   3.157  20.762  0.00  0.00    +0.000 A 
ATOM     12  C   UNL     1       0.738   2.531  19.604  0.00  0.00    +0.000 A 
ATOM     13  C   UNL     1       1.226   2.935  18.372  0.00  0.00    +0.000 A 
ATOM     14  C   UNL     1       2.174   3.959  18.290  0.00  0.00    +0.000 A 
ENDBRANCH   8   9
BRANCH   8  16
ATOM     15  C   UNL     1       5.896   5.520  18.036  0.00  0.00    +0.000 C 
ATOM     16  C   UNL     1       5.146   5.190  19.317  0.00  0.00    +0.000 C 
ENDBRANCH   8  16
ENDBRANCH   7   8
ENDBRANCH   1   7
BRANCH   4  17
ATOM     17  O   UNL     1      -0.278  10.893  19.867  0.00  0.00    +0.000 OA
BRANCH  17  18
ATOM     18  C   UNL     1      -0.776  11.613  18.735  0.00  0.00    +0.000 C 
BRANCH  18  19
ATOM     19  C   UNL     1      -2.299  11.778  18.772  0.00  0.00    +0.000 C 
BRANCH  19  20
ATOM     20  N   UNL     1      -2.923  11.505  17.456  0.00  0.00    +0.000 NA
ATOM     21  C   UNL     1      -2.350  10.329  16.795  0.00  0.00    +0.000 C 
ATOM     22  C   UNL     1      -4.368  11.337  17.604  0.00  0.00    +0.000 C 
ENDBRANCH  19  20
ENDBRANCH  18  19
ENDBRANCH  17  18
ENDBRANCH   4  17
TORSDOF 8
ENDMDL
MODEL 6
REMARK VINA RESULT:      -6.6      4.506      7.963
REMARK  Name = 
REMARK  11 active torsions:
REMARK  status: ('A' for Active; 'I' for Inactive)
REMARK    1  A    between atoms: C_1  and  C_2
REMARK    2  A    between atoms: C_2  and  C_3
REMARK    3  A    between atoms: C_3  and  C_4
REMARK    4  A    between atoms: C_3  and  C_17
REMARK    5  A    between atoms: C_4  and  C_5
REMARK    6  A    between atoms: C_8  and  O_9
REMARK    7  A    between atoms: O_9  and  C_10
REMARK    8  A    between atoms: C_10  and  C_11
REMARK    9  A    between atoms: C_11  and  N_12
REMARK   10  A    between atoms: N_12  and  C_13
REMARK   11  A    between atoms: N_12  and  C_14
REMARK                            x       y       z     vdW  Elec       q    Type
REMARK                         _______ _______ _______ _____ _____    ______ ____
ROOT
ATOM      1  C   UNL     1       4.896   5.873  17.762  0.00  0.00    +0.000 A 
ATOM      2  C   UNL     1       4.637   6.696  16.663  0.00  0.00    +0.000 A 
ATOM      3  C   UNL     1       5.257   6.463  15.441  0.00  0.00    +0.000 A 
ATOM      4  C   UNL     1       6.174   5.417  15.292  0.00  0.00    +0.000 A 
ATOM      5  C   UNL     1       6.429   4.581  16.380  0.00  0.00    +0.000 A 
ATOM      6  C   UNL     1       5.790   4.808  17.609  0.00  0.00    +0.000 A 
ENDROOT
BRANCH   1   7
ATOM      7  C   UNL     1       4.227   6.179  19.083  0.00  0.00    +0.000 C 
BRANCH   7   8
ATOM      8  C   UNL     1       2.677   6.210  19.082  0.00  0.00    +0.000 C 
BRANCH   8   9
ATOM      9  C   UNL     1       2.059   4.862  19.466  0.00  0.00    +0.000 A 
ATOM     10  C   UNL     1       1.988   4.480  20.817  0.00  0.00    +0.000 A 
ATOM     11  C   UNL     1       1.416   3.257  21.185  0.00  0.00    +0.000 A 
ATOM     12  C   UNL     1       0.911   2.397  20.214  0.00  0.00    +0.000 A 
ATOM     13  C   UNL     1       0.963   2.764  18.880  0.00  0.00    +0.000 A 
ATOM     14  C   UNL     1       1.526   3.987  18.505  0.00  0.00    +0.000 A 
ENDBRANCH   8   9
BRANCH   8  16
ATOM     15  C   UNL     1       1.753   8.630  19.046  0.00  0.00    +0.000 C 
ATOM     16  C   UNL     1       2.065   7.392  19.872  0.00  0.00    +0.000 C 
ENDBRANCH   8  16
ENDBRANCH   7   8
ENDBRANCH   1   7
BRANCH   4  17
ATOM     17  O   UNL     1       6.873   5.149  14.135  0.00  0.00    +0.000 OA
BRANCH  17  18
ATOM     18  C   UNL     1       6.705   3.809  13.663  0.00  0.00    +0.000 C 
BRANCH  18  19
ATOM     19  C   UNL     1       6.269   3.758  12.195  0.00  0.00    +0.000 C 
BRANCH  19  20
ATOM     20  N   UNL     1       5.268   2.694  11.946  0.00  0.00    +0.000 NA
ATOM     21  C   UNL     1       4.115   3.174  11.178  0.00  0.00    +0.000 C 
ATOM     22  C   UNL     1       5.888   1.564  11.256  0.00  0.00    +0.000 C 
ENDBRANCH  19  20
ENDBRANCH  18  19
ENDBRANCH  17  18
ENDBRANCH   4  17
TORSDOF 8
ENDMDL
MODEL 7
REMARK VINA RESULT:      -6.6      1.987      2.511
REMARK  Name = 
REMARK  11 active torsions:
REMARK  status: ('A' for Active; 'I' for Inactive)
REMARK    1  A    between atoms: C_1  and  C_2
REMARK    2  A    between atoms: C_2  and  C_3
REMARK    3  A    between atoms: C_3  and  C_4
REMARK    4  A    between atoms: C_3  and  C_17
REMARK    5  A    between atoms: C_4  and  C_5
REMARK    6  A    between atoms: C_8  and  O_9
REMARK    7  A    between atoms: O_9  and  C_10
REMARK    8  A    between atoms: C_10  and  C_11
REMARK    9  A    between atoms: C_11  and  N_12
REMARK   10  A    between atoms: N_12  and  C_13
REMARK   11  A    between atoms: N_12  and  C_14
REMARK                            x       y       z     vdW  Elec       q    Type
REMARK                         _______ _______ _______ _____ _____    ______ ____
ROOT
ATOM      1  C   UNL     1       2.329   7.129  19.422  0.00  0.00    +0.000 A 
ATOM      2  C   UNL     1       2.286   7.964  18.302  0.00  0.00    +0.000 A 
ATOM      3  C   UNL     1       1.664   9.205  18.367  0.00  0.00    +0.000 A 
ATOM      4  C   UNL     1       1.043   9.634  19.546  0.00  0.00    +0.000 A 
ATOM      5  C   UNL     1       1.094   8.813  20.673  0.00  0.00    +0.000 A 
ATOM      6  C   UNL     1       1.736   7.566  20.610  0.00  0.00    +0.000 A 
ENDROOT
BRANCH   1   7
ATOM      7  C   UNL     1       2.986   5.772  19.302  0.00  0.00    +0.000 C 
BRANCH   7   8
ATOM      8  C   UNL     1       3.147   5.206  17.868  0.00  0.00    +0.000 C 
BRANCH   8   9
ATOM      9  C   UNL     1       4.613   4.976  17.485  0.00  0.00    +0.000 A 
ATOM     10  C   UNL     1       5.634   5.271  18.404  0.00  0.00    +0.000 A 
ATOM     11  C   UNL     1       6.977   5.055  18.074  0.00  0.00    +0.000 A 
ATOM     12  C   UNL     1       7.320   4.546  16.826  0.00  0.00    +0.000 A 
ATOM     13  C   UNL     1       6.325   4.237  15.913  0.00  0.00    +0.000 A 
ATOM     14  C   UNL     1       4.981   4.444  16.239  0.00  0.00    +0.000 A 
ENDBRANCH   8   9
BRANCH   8  16
ATOM     15  C   UNL     1       1.302   3.582  18.683  0.00  0.00    +0.000 C 
ATOM     16  C   UNL     1       2.253   3.980  17.565  0.00  0.00    +0.000 C 
ENDBRANCH   8  16
ENDBRANCH   7   8
ENDBRANCH   1   7
BRANCH   4  17
ATOM     17  O   UNL     1       0.359  10.821  19.681  0.00  0.00    +0.000 OA
BRANCH  17  18
ATOM     18  C   UNL     1       0.946  11.714  20.634  0.00  0.00    +0.000 C 
BRANCH  18  19
ATOM     19  C   UNL     1      -0.106  12.459  21.462  0.00  0.00    +0.000 C 
BRANCH  19  20
ATOM     20  N   UNL     1      -1.256  11.593  21.814  0.00  0.00    +0.000 NA
ATOM     21  C   UNL     1      -0.998  10.768  22.997  0.00  0.00    +0.000 C 
ATOM     22  C   UNL     1      -2.455  12.402  22.025  0.00  0.00    +0.000 C 
ENDBRANCH  19  20
ENDBRANCH  18  19
ENDBRANCH  17  18
ENDBRANCH   4  17
TORSDOF 8
ENDMDL
MODEL 8
REMARK VINA RESULT:      -6.6      1.538      3.594
REMARK  Name = 
REMARK  11 active torsions:
REMARK  status: ('A' for Active; 'I' for Inactive)
REMARK    1  A    between atoms: C_1  and  C_2
REMARK    2  A    between atoms: C_2  and  C_3
REMARK    3  A    between atoms: C_3  and  C_4
REMARK    4  A    between atoms: C_3  and  C_17
REMARK    5  A    between atoms: C_4  and  C_5
REMARK    6  A    between atoms: C_8  and  O_9
REMARK    7  A    between atoms: O_9  and  C_10
REMARK    8  A    between atoms: C_10  and  C_11
REMARK    9  A    between atoms: C_11  and  N_12
REMARK   10  A    between atoms: N_12  and  C_13
REMARK   11  A    between atoms: N_12  and  C_14
REMARK                            x       y       z     vdW  Elec       q    Type
REMARK                         _______ _______ _______ _____ _____    ______ ____
ROOT
ATOM      1  C   UNL     1       2.613   7.714  18.576  0.00  0.00    +0.000 A 
ATOM      2  C   UNL     1       2.449   8.744  17.646  0.00  0.00    +0.000 A 
ATOM      3  C   UNL     1       1.647   9.841  17.937  0.00  0.00    +0.000 A 
ATOM      4  C   UNL     1       0.964   9.925  19.156  0.00  0.00    +0.000 A 
ATOM      5  C   UNL     1       1.134   8.908  20.097  0.00  0.00    +0.000 A 
ATOM      6  C   UNL     1       1.957   7.808  19.807  0.00  0.00    +0.000 A 
ENDROOT
BRANCH   1   7
ATOM      7  C   UNL     1       3.469   6.522  18.209  0.00  0.00    +0.000 C 
BRANCH   7   8
ATOM      8  C   UNL     1       3.798   5.529  19.353  0.00  0.00    +0.000 C 
BRANCH   8   9
ATOM      9  C   UNL     1       2.718   4.458  19.533  0.00  0.00    +0.000 A 
ATOM     10  C   UNL     1       2.299   4.091  20.824  0.00  0.00    +0.000 A 
ATOM     11  C   UNL     1       1.306   3.122  21.006  0.00  0.00    +0.000 A 
ATOM     12  C   UNL     1       0.719   2.504  19.906  0.00  0.00    +0.000 A 
ATOM     13  C   UNL     1       1.110   2.863  18.627  0.00  0.00    +0.000 A 
ATOM     14  C   UNL     1       2.097   3.835  18.438  0.00  0.00    +0.000 A 
ENDBRANCH   8   9
BRANCH   8  16
ATOM     15  C   UNL     1       6.186   5.661  18.359  0.00  0.00    +0.000 C 
ATOM     16  C   UNL     1       5.223   4.931  19.283  0.00  0.00    +0.000 C 
ENDBRANCH   8  16
ENDBRANCH   7   8
ENDBRANCH   1   7
BRANCH   4  17
ATOM     17  O   UNL     1       0.108  10.946  19.503  0.00  0.00    +0.000 OA
BRANCH  17  18
ATOM     18  C   UNL     1      -1.274  10.613  19.344  0.00  0.00    +0.000 C 
BRANCH  18  19
ATOM     19  C   UNL     1      -2.072  11.736  18.673  0.00  0.00    +0.000 C 
BRANCH  19  20
ATOM     20  N   UNL     1      -2.532  11.361  17.315  0.00  0.00    +0.000 NA
ATOM     21  C   UNL     1      -2.062  10.034  16.908  0.00  0.00    +0.000 C 
ATOM     22  C   UNL     1      -3.991  11.416  17.240  0.00  0.00    +0.000 C 
ENDBRANCH  19  20
ENDBRANCH  18  19
ENDBRANCH  17  18
ENDBRANCH   4  17
TORSDOF 8
ENDMDL
MODEL 9
REMARK VINA RESULT:      -6.5      2.187      2.972
REMARK  Name = 
REMARK  11 active torsions:
REMARK  status: ('A' for Active; 'I' for Inactive)
REMARK    1  A    between atoms: C_1  and  C_2
REMARK    2  A    between atoms: C_2  and  C_3
REMARK    3  A    between atoms: C_3  and  C_4
REMARK    4  A    between atoms: C_3  and  C_17
REMARK    5  A    between atoms: C_4  and  C_5
REMARK    6  A    between atoms: C_8  and  O_9
REMARK    7  A    between atoms: O_9  and  C_10
REMARK    8  A    between atoms: C_10  and  C_11
REMARK    9  A    between atoms: C_11  and  N_12
REMARK   10  A    between atoms: N_12  and  C_13
REMARK   11  A    between atoms: N_12  and  C_14
REMARK                            x       y       z     vdW  Elec       q    Type
REMARK                         _______ _______ _______ _____ _____    ______ ____
ROOT
ATOM      1  C   UNL     1       2.406   6.990  19.254  0.00  0.00    +0.000 A 
ATOM      2  C   UNL     1       1.831   7.329  20.481  0.00  0.00    +0.000 A 
ATOM      3  C   UNL     1       1.158   8.535  20.640  0.00  0.00    +0.000 A 
ATOM      4  C   UNL     1       1.065   9.447  19.583  0.00  0.00    +0.000 A 
ATOM      5  C   UNL     1       1.623   9.111  18.349  0.00  0.00    +0.000 A 
ATOM      6  C   UNL     1       2.289   7.885  18.186  0.00  0.00    +0.000 A 
ENDROOT
BRANCH   1   7
ATOM      7  C   UNL     1       3.157   5.683  19.131  0.00  0.00    +0.000 C 
BRANCH   7   8
ATOM      8  C   UNL     1       3.236   5.063  17.712  0.00  0.00    +0.000 C 
BRANCH   8   9
ATOM      9  C   UNL     1       4.678   4.863  17.235  0.00  0.00    +0.000 A 
ATOM     10  C   UNL     1       4.946   4.657  15.871  0.00  0.00    +0.000 A 
ATOM     11  C   UNL     1       6.258   4.484  15.418  0.00  0.00    +0.000 A 
ATOM     12  C   UNL     1       7.321   4.511  16.316  0.00  0.00    +0.000 A 
ATOM     13  C   UNL     1       7.075   4.725  17.662  0.00  0.00    +0.000 A 
ATOM     14  C   UNL     1       5.768   4.906  18.121  0.00  0.00    +0.000 A 
ENDBRANCH   8   9
BRANCH   8  16
ATOM     15  C   UNL     1       3.036   2.489  17.915  0.00  0.00    +0.000 C 
ATOM     16  C   UNL     1       2.366   3.797  17.524  0.00  0.00    +0.000 C 
ENDBRANCH   8  16
ENDBRANCH   7   8
ENDBRANCH   1   7
BRANCH   4  17
ATOM     17  O   UNL     1       0.466  10.685  19.669  0.00  0.00    +0.000 OA
BRANCH  17  18
ATOM     18  C   UNL     1       0.921  11.465  20.779  0.00  0.00    +0.000 C 
BRANCH  18  19
ATOM     19  C   UNL     1      -0.156  12.422  21.301  0.00  0.00    +0.000 C 
BRANCH  19  20
ATOM     20  N   UNL     1      -0.461  12.193  22.732  0.00  0.00    +0.000 NA
ATOM     21  C   UNL     1      -1.424  13.160  23.265  0.00  0.00    +0.000 C 
ATOM     22  C   UNL     1      -0.958  10.833  22.935  0.00  0.00    +0.000 C 
ENDBRANCH  19  20
ENDBRANCH  18  19
ENDBRANCH  17  18
ENDBRANCH   4  17
TORSDOF 8
ENDMDL
