MODEL 1
REMARK VINA RESULT:      -7.8      0.000      0.000
REMARK  Name = 
REMARK  15 active torsions:
REMARK  status: ('A' for Active; 'I' for Inactive)
REMARK    1  A    between atoms: C_1  and  C_2
REMARK    2  A    between atoms: C_2  and  C_3
REMARK    3  A    between atoms: C_3  and  C_4
REMARK    4  A    between atoms: C_4  and  C_5
REMARK    5  A    between atoms: C_5  and  C_6
REMARK    6  A    between atoms: C_6  and  O_7
REMARK    7  A    between atoms: O_7  and  C_8
REMARK    8  A    between atoms: C_10  and  O_11
REMARK    9  A    between atoms: O_11  and  C_12
REMARK   10  A    between atoms: C_13  and  O_14
REMARK   11  A    between atoms: O_14  and  C_15
REMARK   12  A    between atoms: C_18  and  C_19
REMARK   13  A    between atoms: C_22  and  O_23
REMARK   14  A    between atoms: C_24  and  O_25
REMARK   15  A    between atoms: C_27  and  O_28
REMARK                            x       y       z     vdW  Elec       q    Type
REMARK                         _______ _______ _______ _____ _____    ______ ____
ROOT
ATOM      1  C   UNL     1       4.524   5.609  17.632  0.00  0.00    +0.000 A 
ATOM      2  C   UNL     1       4.710   4.300  18.093  0.00  0.00    +0.000 A 
ATOM      3  C   UNL     1       3.991   3.808  19.185  0.00  0.00    +0.000 A 
ATOM      4  C   UNL     1       3.082   4.650  19.865  0.00  0.00    +0.000 A 
ATOM      5  C   UNL     1       2.872   5.956  19.388  0.00  0.00    +0.000 A 
ATOM      6  O   UNL     1       1.980   6.768  20.049  0.00  0.00    +0.000 OA
ATOM      7  C   UNL     1       1.904   8.104  19.722  0.00  0.00    +0.000 A 
ATOM      8  C   UNL     1       2.449   8.652  18.625  0.00  0.00    +0.000 A 
ATOM      9  C   UNL     1       3.100   7.708  17.684  0.00  0.00    +0.000 A 
ATOM     10  O   UNL     1       3.202   7.985  16.495  0.00  0.00    +0.000 OA
ATOM     11  C   UNL     1       3.547   6.412  18.241  0.00  0.00    +0.000 A 
ENDROOT
BRANCH   7  12
ATOM     12  C   UNL     1       1.000   8.868  20.585  0.00  0.00    +0.000 A 
ATOM     13  C   UNL     1       0.078   9.737  19.973  0.00  0.00    +0.000 A 
ATOM     14  C   UNL     1      -0.746  10.556  20.747  0.00  0.00    +0.000 A 
ATOM     15  C   UNL     1      -0.637  10.508  22.130  0.00  0.00    +0.000 A 
ATOM     16  C   UNL     1       0.270   9.640  22.738  0.00  0.00    +0.000 A 
ATOM     17  C   UNL     1       1.093   8.816  21.982  0.00  0.00    +0.000 A 
BRANCH  15  18
ATOM     18  O   UNL     1      -1.394  11.308  22.939  0.00  0.00    +0.000 OA
ATOM     19  H   UNL     1      -1.351  10.955  23.844  0.00  0.00    +0.000 HD
ENDBRANCH  15  18
BRANCH  16  20
ATOM     20  O   UNL     1       0.372   9.610  24.100  0.00  0.00    +0.000 OA
ATOM     21  H   UNL     1      -0.120   8.807  24.367  0.00  0.00    +0.000 HD
ENDBRANCH  16  20
ENDBRANCH   7  12
BRANCH   3  22
ATOM     22  O   UNL     1       4.111   2.529  19.674  0.00  0.00    +0.000 OA
ATOM     23  C   UNL     1       3.686   1.454  18.848  0.00  0.00    +0.000 C 
ENDBRANCH   3  22
BRANCH   4  24
ATOM     24  O   UNL     1       2.478   4.053  20.945  0.00  0.00    +0.000 OA
ATOM     25  C   UNL     1       1.165   3.531  20.837  0.00  0.00    +0.000 C 
ENDBRANCH   4  24
BRANCH   8  26
ATOM     26  O   UNL     1       2.348   9.980  18.259  0.00  0.00    +0.000 OA
ATOM     27  H   UNL     1       3.232  10.324  18.046  0.00  0.00    +0.000 HD
ENDBRANCH   8  26
BRANCH   1  28
ATOM     28  O   UNL     1       5.358   5.925  16.591  0.00  0.00    +0.000 OA
BRANCH  28  29
ATOM     29  C   UNL     1       6.179   4.877  16.075  0.00  0.00    +0.000 C 
BRANCH  29  30
ATOM     30  C   UNL     1       6.335   5.023  14.569  0.00  0.00    +0.000 C 
BRANCH  30  31
ATOM     31  C   UNL     1       5.712   3.811  13.873  0.00  0.00    +0.000 C 
BRANCH  31  32
ATOM     32  C   UNL     1       6.376   3.533  12.531  0.00  0.00    +0.000 C 
BRANCH  32  34
ATOM     33  C   UNL     1       4.169   3.248  11.372  0.00  0.00    +0.000 C 
ATOM     34  C   UNL     1       5.514   2.609  11.673  0.00  0.00    +0.000 C 
ENDBRANCH  32  34
ENDBRANCH  31  32
ENDBRANCH  30  31
ENDBRANCH  29  30
ENDBRANCH  28  29
ENDBRANCH   1  28
TORSDOF 12
ENDMDL
MODEL 2
REMARK VINA RESULT:      -7.4      2.258      3.617
REMARK  Name = 
REMARK  15 active torsions:
REMARK  status: ('A' for Active; 'I' for Inactive)
REMARK    1  A    between atoms: C_1  and  C_2
REMARK    2  A    between atoms: C_2  and  C_3
REMARK    3  A    between atoms: C_3  and  C_4
REMARK    4  A    between atoms: C_4  and  C_5
REMARK    5  A    between atoms: C_5  and  C_6
REMARK    6  A    between atoms: C_6  and  O_7
REMARK    7  A    between atoms: O_7  and  C_8
REMARK    8  A    between atoms: C_10  and  O_11
REMARK    9  A    between atoms: O_11  and  C_12
REMARK   10  A    between atoms: C_13  and  O_14
REMARK   11  A    between atoms: O_14  and  C_15
REMARK   12  A    between atoms: C_18  and  C_19
REMARK   13  A    between atoms: C_22  and  O_23
REMARK   14  A    between atoms: C_24  and  O_25
REMARK   15  A    between atoms: C_27  and  O_28
REMARK                            x       y       z     vdW  Elec       q    Type
REMARK                         _______ _______ _______ _____ _____    ______ ____
ROOT
ATOM      1  C   UNL     1       4.525   5.523  17.677  0.00  0.00    +0.000 A 
ATOM      2  C   UNL     1       4.701   4.222  18.165  0.00  0.00    +0.000 A 
ATOM      3  C   UNL     1       3.973   3.757  19.262  0.00  0.00    +0.000 A 
ATOM      4  C   UNL     1       3.065   4.617  19.920  0.00  0.00    +0.000 A 
ATOM      5  C   UNL     1       2.865   5.914  19.415  0.00  0.00    +0.000 A 
ATOM      6  O   UNL     1       1.973   6.744  20.055  0.00  0.00    +0.000 OA
ATOM      7  C   UNL     1       1.907   8.073  19.700  0.00  0.00    +0.000 A 
ATOM      8  C   UNL     1       2.461   8.597  18.596  0.00  0.00    +0.000 A 
ATOM      9  C   UNL     1       3.112   7.630  17.678  0.00  0.00    +0.000 A 
ATOM     10  O   UNL     1       3.222   7.882  16.484  0.00  0.00    +0.000 OA
ATOM     11  C   UNL     1       3.549   6.343  18.263  0.00  0.00    +0.000 A 
ENDROOT
BRANCH   7  12
ATOM     12  C   UNL     1       1.002   8.860  20.542  0.00  0.00    +0.000 A 
ATOM     13  C   UNL     1       0.147   9.783  19.913  0.00  0.00    +0.000 A 
ATOM     14  C   UNL     1      -0.671  10.623  20.671  0.00  0.00    +0.000 A 
ATOM     15  C   UNL     1      -0.624  10.540  22.055  0.00  0.00    +0.000 A 
ATOM     16  C   UNL     1       0.217   9.619  22.680  0.00  0.00    +0.000 A 
ATOM     17  C   UNL     1       1.033   8.774  21.941  0.00  0.00    +0.000 A 
BRANCH  15  18
ATOM     18  O   UNL     1      -1.378  11.357  22.850  0.00  0.00    +0.000 OA
ATOM     19  H   UNL     1      -1.729  12.078  22.300  0.00  0.00    +0.000 HD
ENDBRANCH  15  18
BRANCH  16  20
ATOM     20  O   UNL     1       0.259   9.554  24.045  0.00  0.00    +0.000 OA
ATOM     21  H   UNL     1       1.042   9.002  24.241  0.00  0.00    +0.000 HD
ENDBRANCH  16  20
ENDBRANCH   7  12
BRANCH   3  22
ATOM     22  O   UNL     1       4.084   2.487  19.778  0.00  0.00    +0.000 OA
ATOM     23  C   UNL     1       3.733   1.393  18.942  0.00  0.00    +0.000 C 
ENDBRANCH   3  22
BRANCH   4  24
ATOM     24  O   UNL     1       2.452   4.045  21.008  0.00  0.00    +0.000 OA
ATOM     25  C   UNL     1       1.187   3.419  20.875  0.00  0.00    +0.000 C 
ENDBRANCH   4  24
BRANCH   8  26
ATOM     26  O   UNL     1       2.370   9.917  18.202  0.00  0.00    +0.000 OA
ATOM     27  H   UNL     1       2.555  10.494  18.961  0.00  0.00    +0.000 HD
ENDBRANCH   8  26
BRANCH   1  28
ATOM     28  O   UNL     1       5.366   5.812  16.634  0.00  0.00    +0.000 OA
BRANCH  28  29
ATOM     29  C   UNL     1       6.709   6.168  16.962  0.00  0.00    +0.000 C 
BRANCH  29  30
ATOM     30  C   UNL     1       6.825   7.673  17.152  0.00  0.00    +0.000 C 
BRANCH  30  31
ATOM     31  C   UNL     1       8.039   7.983  18.029  0.00  0.00    +0.000 C 
BRANCH  31  32
ATOM     32  C   UNL     1       8.369   9.469  18.024  0.00  0.00    +0.000 C 
BRANCH  32  34
ATOM     33  C   UNL     1       9.455  11.339  19.297  0.00  0.00    +0.000 C 
ATOM     34  C   UNL     1       9.275   9.834  19.198  0.00  0.00    +0.000 C 
ENDBRANCH  32  34
ENDBRANCH  31  32
ENDBRANCH  30  31
ENDBRANCH  29  30
ENDBRANCH  28  29
ENDBRANCH   1  28
TORSDOF 12
ENDMDL
MODEL 3
REMARK VINA RESULT:      -7.3      1.343      2.427
REMARK  Name = 
REMARK  15 active torsions:
REMARK  status: ('A' for Active; 'I' for Inactive)
REMARK    1  A    between atoms: C_1  and  C_2
REMARK    2  A    between atoms: C_2  and  C_3
REMARK    3  A    between atoms: C_3  and  C_4
REMARK    4  A    between atoms: C_4  and  C_5
REMARK    5  A    between atoms: C_5  and  C_6
REMARK    6  A    between atoms: C_6  and  O_7
REMARK    7  A    between atoms: O_7  and  C_8
REMARK    8  A    between atoms: C_10  and  O_11
REMARK    9  A    between atoms: O_11  and  C_12
REMARK   10  A    between atoms: C_13  and  O_14
REMARK   11  A    between atoms: O_14  and  C_15
REMARK   12  A    between atoms: C_18  and  C_19
REMARK   13  A    between atoms: C_22  and  O_23
REMARK   14  A    between atoms: C_24  and  O_25
REMARK   15  A    between atoms: C_27  and  O_28
REMARK                            x       y       z     vdW  Elec       q    Type
REMARK                         _______ _______ _______ _____ _____    ______ ____
ROOT
ATOM      1  C   UNL     1       4.092   5.490  17.660  0.00  0.00    +0.000 A 
ATOM      2  C   UNL     1       4.252   4.178  18.123  0.00  0.00    +0.000 A 
ATOM      3  C   UNL     1       3.583   3.726  19.263  0.00  0.00    +0.000 A 
ATOM      4  C   UNL     1       2.755   4.611  19.990  0.00  0.00    +0.000 A 
ATOM      5  C   UNL     1       2.570   5.921  19.512  0.00  0.00    +0.000 A 
ATOM      6  O   UNL     1       1.756   6.776  20.219  0.00  0.00    +0.000 OA
ATOM      7  C   UNL     1       1.716   8.111  19.881  0.00  0.00    +0.000 A 
ATOM      8  C   UNL     1       2.214   8.627  18.747  0.00  0.00    +0.000 A 
ATOM      9  C   UNL     1       2.763   7.648  17.777  0.00  0.00    +0.000 A 
ATOM     10  O   UNL     1       2.801   7.909  16.582  0.00  0.00    +0.000 OA
ATOM     11  C   UNL     1       3.190   6.338  18.319  0.00  0.00    +0.000 A 
ENDROOT
BRANCH   7  12
ATOM     12  C   UNL     1       0.901   8.921  20.791  0.00  0.00    +0.000 A 
ATOM     13  C   UNL     1       0.090   9.926  20.234  0.00  0.00    +0.000 A 
ATOM     14  C   UNL     1      -0.639  10.786  21.058  0.00  0.00    +0.000 A 
ATOM     15  C   UNL     1      -0.545  10.641  22.435  0.00  0.00    +0.000 A 
ATOM     16  C   UNL     1       0.252   9.639  22.988  0.00  0.00    +0.000 A 
ATOM     17  C   UNL     1       0.979   8.773  22.182  0.00  0.00    +0.000 A 
BRANCH  15  18
ATOM     18  O   UNL     1      -1.209  11.473  23.293  0.00  0.00    +0.000 OA
ATOM     19  H   UNL     1      -1.485  10.954  24.068  0.00  0.00    +0.000 HD
ENDBRANCH  15  18
BRANCH  16  20
ATOM     20  O   UNL     1       0.342   9.513  24.346  0.00  0.00    +0.000 OA
ATOM     21  H   UNL     1       0.345  10.433  24.679  0.00  0.00    +0.000 HD
ENDBRANCH  16  20
ENDBRANCH   7  12
BRANCH   3  22
ATOM     22  O   UNL     1       3.681   2.448  19.758  0.00  0.00    +0.000 OA
ATOM     23  C   UNL     1       3.643   1.368  18.835  0.00  0.00    +0.000 C 
ENDBRANCH   3  22
BRANCH   4  24
ATOM     24  O   UNL     1       2.196   4.050  21.112  0.00  0.00    +0.000 OA
ATOM     25  C   UNL     1       1.048   3.226  21.008  0.00  0.00    +0.000 C 
ENDBRANCH   4  24
BRANCH   8  26
ATOM     26  O   UNL     1       2.146   9.954  18.372  0.00  0.00    +0.000 OA
ATOM     27  H   UNL     1       1.215  10.235  18.346  0.00  0.00    +0.000 HD
ENDBRANCH   8  26
BRANCH   1  28
ATOM     28  O   UNL     1       4.871   5.760  16.565  0.00  0.00    +0.000 OA
BRANCH  28  29
ATOM     29  C   UNL     1       5.134   4.679  15.671  0.00  0.00    +0.000 C 
BRANCH  29  30
ATOM     30  C   UNL     1       6.577   4.730  15.192  0.00  0.00    +0.000 C 
BRANCH  30  31
ATOM     31  C   UNL     1       7.429   5.475  16.221  0.00  0.00    +0.000 C 
BRANCH  31  32
ATOM     32  C   UNL     1       7.688   4.622  17.456  0.00  0.00    +0.000 C 
BRANCH  32  34
ATOM     33  C   UNL     1       7.901   6.950  18.369  0.00  0.00    +0.000 C 
ATOM     34  C   UNL     1       7.725   5.482  18.718  0.00  0.00    +0.000 C 
ENDBRANCH  32  34
ENDBRANCH  31  32
ENDBRANCH  30  31
ENDBRANCH  29  30
ENDBRANCH  28  29
ENDBRANCH   1  28
TORSDOF 12
ENDMDL
MODEL 4
REMARK VINA RESULT:      -7.2      0.736      1.352
REMARK  Name = 
REMARK  15 active torsions:
REMARK  status: ('A' for Active; 'I' for Inactive)
REMARK    1  A    between atoms: C_1  and  C_2
REMARK    2  A    between atoms: C_2  and  C_3
REMARK    3  A    between atoms: C_3  and  C_4
REMARK    4  A    between atoms: C_4  and  C_5
REMARK    5  A    between atoms: C_5  and  C_6
REMARK    6  A    between atoms: C_6  and  O_7
REMARK    7  A    between atoms: O_7  and  C_8
REMARK    8  A    between atoms: C_10  and  O_11
REMARK    9  A    between atoms: O_11  and  C_12
REMARK   10  A    between atoms: C_13  and  O_14
REMARK   11  A    between atoms: O_14  and  C_15
REMARK   12  A    between atoms: C_18  and  C_19
REMARK   13  A    between atoms: C_22  and  O_23
REMARK   14  A    between atoms: C_24  and  O_25
REMARK   15  A    between atoms: C_27  and  O_28
REMARK                            x       y       z     vdW  Elec       q    Type
REMARK                         _______ _______ _______ _____ _____    ______ ____
ROOT
ATOM      1  C   UNL     1       4.287   5.788  17.653  0.00  0.00    +0.000 A 
ATOM      2  C   UNL     1       4.493   4.486  18.127  0.00  0.00    +0.000 A 
ATOM      3  C   UNL     1       3.838   4.020  19.269  0.00  0.00    +0.000 A 
ATOM      4  C   UNL     1       2.977   4.880  19.987  0.00  0.00    +0.000 A 
ATOM      5  C   UNL     1       2.746   6.179  19.498  0.00  0.00    +0.000 A 
ATOM      6  O   UNL     1       1.900   7.009  20.197  0.00  0.00    +0.000 OA
ATOM      7  C   UNL     1       1.813   8.339  19.850  0.00  0.00    +0.000 A 
ATOM      8  C   UNL     1       2.295   8.864  18.712  0.00  0.00    +0.000 A 
ATOM      9  C   UNL     1       2.881   7.898  17.751  0.00  0.00    +0.000 A 
ATOM     10  O   UNL     1       2.913   8.151  16.554  0.00  0.00    +0.000 OA
ATOM     11  C   UNL     1       3.354   6.609  18.304  0.00  0.00    +0.000 A 
ENDROOT
BRANCH   7  12
ATOM     12  C   UNL     1       0.968   9.126  20.751  0.00  0.00    +0.000 A 
ATOM     13  C   UNL     1       1.008   8.827  22.125  0.00  0.00    +0.000 A 
ATOM     14  C   UNL     1       0.158   9.482  23.019  0.00  0.00    +0.000 A 
ATOM     15  C   UNL     1      -0.733  10.428  22.531  0.00  0.00    +0.000 A 
ATOM     16  C   UNL     1      -0.767  10.732  21.170  0.00  0.00    +0.000 A 
ATOM     17  C   UNL     1       0.074  10.092  20.270  0.00  0.00    +0.000 A 
BRANCH  15  18
ATOM     18  O   UNL     1      -1.610  11.079  23.352  0.00  0.00    +0.000 OA
ATOM     19  H   UNL     1      -1.368  10.883  24.274  0.00  0.00    +0.000 HD
ENDBRANCH  15  18
BRANCH  16  20
ATOM     20  O   UNL     1      -1.655  11.660  20.703  0.00  0.00    +0.000 OA
ATOM     21  H   UNL     1      -2.361  11.688  21.380  0.00  0.00    +0.000 HD
ENDBRANCH  16  20
ENDBRANCH   7  12
BRANCH   3  22
ATOM     22  O   UNL     1       3.980   2.749  19.773  0.00  0.00    +0.000 OA
ATOM     23  C   UNL     1       3.617   1.655  18.943  0.00  0.00    +0.000 C 
ENDBRANCH   3  22
BRANCH   4  24
ATOM     24  O   UNL     1       2.436   4.308  21.112  0.00  0.00    +0.000 OA
ATOM     25  C   UNL     1       1.207   3.605  21.041  0.00  0.00    +0.000 C 
ENDBRANCH   4  24
BRANCH   8  26
ATOM     26  O   UNL     1       2.180  10.185  18.327  0.00  0.00    +0.000 OA
ATOM     27  H   UNL     1       2.743  10.737  18.895  0.00  0.00    +0.000 HD
ENDBRANCH   8  26
BRANCH   1  28
ATOM     28  O   UNL     1       5.059   6.078  16.558  0.00  0.00    +0.000 OA
BRANCH  28  29
ATOM     29  C   UNL     1       5.389   4.994  15.690  0.00  0.00    +0.000 C 
BRANCH  29  30
ATOM     30  C   UNL     1       6.876   5.011  15.369  0.00  0.00    +0.000 C 
BRANCH  30  31
ATOM     31  C   UNL     1       7.077   4.737  13.878  0.00  0.00    +0.000 C 
BRANCH  31  32
ATOM     32  C   UNL     1       6.094   3.695  13.362  0.00  0.00    +0.000 C 
BRANCH  32  34
ATOM     33  C   UNL     1       5.863   1.978  11.546  0.00  0.00    +0.000 C 
ATOM     34  C   UNL     1       6.357   3.371  11.893  0.00  0.00    +0.000 C 
ENDBRANCH  32  34
ENDBRANCH  31  32
ENDBRANCH  30  31
ENDBRANCH  29  30
ENDBRANCH  28  29
ENDBRANCH   1  28
TORSDOF 12
ENDMDL
MODEL 5
REMARK VINA RESULT:      -7.0      2.212      3.691
REMARK  Name = 
REMARK  15 active torsions:
REMARK  status: ('A' for Active; 'I' for Inactive)
REMARK    1  A    between atoms: C_1  and  C_2
REMARK    2  A    between atoms: C_2  and  C_3
REMARK    3  A    between atoms: C_3  and  C_4
REMARK    4  A    between atoms: C_4  and  C_5
REMARK    5  A    between atoms: C_5  and  C_6
REMARK    6  A    between atoms: C_6  and  O_7
REMARK    7  A    between atoms: O_7  and  C_8
REMARK    8  A    between atoms: C_10  and  O_11
REMARK    9  A    between atoms: O_11  and  C_12
REMARK   10  A    between atoms: C_13  and  O_14
REMARK   11  A    between atoms: O_14  and  C_15
REMARK   12  A    between atoms: C_18  and  C_19
REMARK   13  A    between atoms: C_22  and  O_23
REMARK   14  A    between atoms: C_24  and  O_25
REMARK   15  A    between atoms: C_27  and  O_28
REMARK                            x       y       z     vdW  Elec       q    Type
REMARK                         _______ _______ _______ _____ _____    ______ ____
ROOT
ATOM      1  C   UNL     1       4.339   5.483  17.761  0.00  0.00    +0.000 A 
ATOM      2  C   UNL     1       4.489   4.183  18.261  0.00  0.00    +0.000 A 
ATOM      3  C   UNL     1       3.785   3.757  19.389  0.00  0.00    +0.000 A 
ATOM      4  C   UNL     1       2.930   4.655  20.066  0.00  0.00    +0.000 A 
ATOM      5  C   UNL     1       2.755   5.952  19.550  0.00  0.00    +0.000 A 
ATOM      6  O   UNL     1       1.915   6.820  20.209  0.00  0.00    +0.000 OA
ATOM      7  C   UNL     1       1.881   8.146  19.838  0.00  0.00    +0.000 A 
ATOM      8  C   UNL     1       2.413   8.636  18.707  0.00  0.00    +0.000 A 
ATOM      9  C   UNL     1       2.998   7.636  17.781  0.00  0.00    +0.000 A 
ATOM     10  O   UNL     1       3.075   7.868  16.581  0.00  0.00    +0.000 OA
ATOM     11  C   UNL     1       3.412   6.342  18.369  0.00  0.00    +0.000 A 
ENDROOT
BRANCH   7  12
ATOM     12  C   UNL     1       1.033   8.974  20.699  0.00  0.00    +0.000 A 
ATOM     13  C   UNL     1       1.082   8.750  22.087  0.00  0.00    +0.000 A 
ATOM     14  C   UNL     1       0.232   9.446  22.949  0.00  0.00    +0.000 A 
ATOM     15  C   UNL     1      -0.670  10.357  22.415  0.00  0.00    +0.000 A 
ATOM     16  C   UNL     1      -0.713  10.586  21.040  0.00  0.00    +0.000 A 
ATOM     17  C   UNL     1       0.129   9.906  20.171  0.00  0.00    +0.000 A 
BRANCH  15  18
ATOM     18  O   UNL     1      -1.548  11.045  23.205  0.00  0.00    +0.000 OA
ATOM     19  H   UNL     1      -1.043  11.484  23.911  0.00  0.00    +0.000 HD
ENDBRANCH  15  18
BRANCH  16  20
ATOM     20  O   UNL     1      -1.611  11.480  20.528  0.00  0.00    +0.000 OA
ATOM     21  H   UNL     1      -1.103  12.310  20.428  0.00  0.00    +0.000 HD
ENDBRANCH  16  20
ENDBRANCH   7  12
BRANCH   3  22
ATOM     22  O   UNL     1       3.871   2.491  19.919  0.00  0.00    +0.000 OA
ATOM     23  C   UNL     1       3.821   1.387  19.025  0.00  0.00    +0.000 C 
ENDBRANCH   3  22
BRANCH   4  24
ATOM     24  O   UNL     1       2.337   4.119  21.183  0.00  0.00    +0.000 OA
ATOM     25  C   UNL     1       1.158   3.340  21.067  0.00  0.00    +0.000 C 
ENDBRANCH   4  24
BRANCH   8  26
ATOM     26  O   UNL     1       2.352   9.954  18.298  0.00  0.00    +0.000 OA
ATOM     27  H   UNL     1       1.487  10.326  18.537  0.00  0.00    +0.000 HD
ENDBRANCH   8  26
BRANCH   1  28
ATOM     28  O   UNL     1       5.153   5.730  16.686  0.00  0.00    +0.000 OA
BRANCH  28  29
ATOM     29  C   UNL     1       6.548   5.876  16.947  0.00  0.00    +0.000 C 
BRANCH  29  30
ATOM     30  C   UNL     1       6.966   7.330  16.780  0.00  0.00    +0.000 C 
BRANCH  30  31
ATOM     31  C   UNL     1       7.842   7.745  17.964  0.00  0.00    +0.000 C 
BRANCH  31  32
ATOM     32  C   UNL     1       8.193   9.226  17.908  0.00  0.00    +0.000 C 
BRANCH  32  34
ATOM     33  C   UNL     1       9.620  11.042  18.890  0.00  0.00    +0.000 C 
ATOM     34  C   UNL     1       9.141   9.608  19.042  0.00  0.00    +0.000 C 
ENDBRANCH  32  34
ENDBRANCH  31  32
ENDBRANCH  30  31
ENDBRANCH  29  30
ENDBRANCH  28  29
ENDBRANCH   1  28
TORSDOF 12
ENDMDL
MODEL 6
REMARK VINA RESULT:      -6.8      1.610      2.842
REMARK  Name = 
REMARK  15 active torsions:
REMARK  status: ('A' for Active; 'I' for Inactive)
REMARK    1  A    between atoms: C_1  and  C_2
REMARK    2  A    between atoms: C_2  and  C_3
REMARK    3  A    between atoms: C_3  and  C_4
REMARK    4  A    between atoms: C_4  and  C_5
REMARK    5  A    between atoms: C_5  and  C_6
REMARK    6  A    between atoms: C_6  and  O_7
REMARK    7  A    between atoms: O_7  and  C_8
REMARK    8  A    between atoms: C_10  and  O_11
REMARK    9  A    between atoms: O_11  and  C_12
REMARK   10  A    between atoms: C_13  and  O_14
REMARK   11  A    between atoms: O_14  and  C_15
REMARK   12  A    between atoms: C_18  and  C_19
REMARK   13  A    between atoms: C_22  and  O_23
REMARK   14  A    between atoms: C_24  and  O_25
REMARK   15  A    between atoms: C_27  and  O_28
REMARK                            x       y       z     vdW  Elec       q    Type
REMARK                         _______ _______ _______ _____ _____    ______ ____
ROOT
ATOM      1  C   UNL     1       3.917   5.455  17.894  0.00  0.00    +0.000 A 
ATOM      2  C   UNL     1       4.051   4.159  18.410  0.00  0.00    +0.000 A 
ATOM      3  C   UNL     1       3.394   3.775  19.581  0.00  0.00    +0.000 A 
ATOM      4  C   UNL     1       2.607   4.713  20.286  0.00  0.00    +0.000 A 
ATOM      5  C   UNL     1       2.447   6.006  19.756  0.00  0.00    +0.000 A 
ATOM      6  O   UNL     1       1.671   6.912  20.443  0.00  0.00    +0.000 OA
ATOM      7  C   UNL     1       1.660   8.232  20.050  0.00  0.00    +0.000 A 
ATOM      8  C   UNL     1       2.148   8.686  18.885  0.00  0.00    +0.000 A 
ATOM      9  C   UNL     1       2.649   7.652  17.947  0.00  0.00    +0.000 A 
ATOM     10  O   UNL     1       2.669   7.862  16.740  0.00  0.00    +0.000 OA
ATOM     11  C   UNL     1       3.052   6.355  18.535  0.00  0.00    +0.000 A 
ENDROOT
BRANCH   7  12
ATOM     12  C   UNL     1       0.887   9.102  20.940  0.00  0.00    +0.000 A 
ATOM     13  C   UNL     1       0.929   8.839  22.322  0.00  0.00    +0.000 A 
ATOM     14  C   UNL     1       0.143   9.578  23.208  0.00  0.00    +0.000 A 
ATOM     15  C   UNL     1      -0.688  10.570  22.706  0.00  0.00    +0.000 A 
ATOM     16  C   UNL     1      -0.723  10.838  21.338  0.00  0.00    +0.000 A 
ATOM     17  C   UNL     1       0.056  10.115  20.444  0.00  0.00    +0.000 A 
BRANCH  15  18
ATOM     18  O   UNL     1      -1.503  11.305  23.521  0.00  0.00    +0.000 OA
ATOM     19  H   UNL     1      -2.336  11.472  23.047  0.00  0.00    +0.000 HD
ENDBRANCH  15  18
BRANCH  16  20
ATOM     20  O   UNL     1      -1.552  11.813  20.857  0.00  0.00    +0.000 OA
ATOM     21  H   UNL     1      -1.180  12.647  21.207  0.00  0.00    +0.000 HD
ENDBRANCH  16  20
ENDBRANCH   7  12
BRANCH   3  22
ATOM     22  O   UNL     1       3.468   2.516  20.128  0.00  0.00    +0.000 OA
ATOM     23  C   UNL     1       4.754   1.936  20.301  0.00  0.00    +0.000 C 
ENDBRANCH   3  22
BRANCH   4  24
ATOM     24  O   UNL     1       2.057   4.215  21.442  0.00  0.00    +0.000 OA
ATOM     25  C   UNL     1       1.155   3.122  21.397  0.00  0.00    +0.000 C 
ENDBRANCH   4  24
BRANCH   8  26
ATOM     26  O   UNL     1       2.107   9.998  18.455  0.00  0.00    +0.000 OA
ATOM     27  H   UNL     1       2.480  10.056  17.560  0.00  0.00    +0.000 HD
ENDBRANCH   8  26
BRANCH   1  28
ATOM     28  O   UNL     1       4.679   5.657  16.774  0.00  0.00    +0.000 OA
BRANCH  28  29
ATOM     29  C   UNL     1       5.079   4.499  16.041  0.00  0.00    +0.000 C 
BRANCH  29  30
ATOM     30  C   UNL     1       6.543   4.609  15.639  0.00  0.00    +0.000 C 
BRANCH  30  31
ATOM     31  C   UNL     1       7.386   4.933  16.873  0.00  0.00    +0.000 C 
BRANCH  31  32
ATOM     32  C   UNL     1       7.664   6.426  16.985  0.00  0.00    +0.000 C 
BRANCH  32  34
ATOM     33  C   UNL     1       7.655   5.665  19.376  0.00  0.00    +0.000 C 
ATOM     34  C   UNL     1       7.729   6.864  18.447  0.00  0.00    +0.000 C 
ENDBRANCH  32  34
ENDBRANCH  31  32
ENDBRANCH  30  31
ENDBRANCH  29  30
ENDBRANCH  28  29
ENDBRANCH   1  28
TORSDOF 12
ENDMDL
MODEL 7
REMARK VINA RESULT:      -6.8      0.718      1.124
REMARK  Name = 
REMARK  15 active torsions:
REMARK  status: ('A' for Active; 'I' for Inactive)
REMARK    1  A    between atoms: C_1  and  C_2
REMARK    2  A    between atoms: C_2  and  C_3
REMARK    3  A    between atoms: C_3  and  C_4
REMARK    4  A    between atoms: C_4  and  C_5
REMARK    5  A    between atoms: C_5  and  C_6
REMARK    6  A    between atoms: C_6  and  O_7
REMARK    7  A    between atoms: O_7  and  C_8
REMARK    8  A    between atoms: C_10  and  O_11
REMARK    9  A    between atoms: O_11  and  C_12
REMARK   10  A    between atoms: C_13  and  O_14
REMARK   11  A    between atoms: O_14  and  C_15
REMARK   12  A    between atoms: C_18  and  C_19
REMARK   13  A    between atoms: C_22  and  O_23
REMARK   14  A    between atoms: C_24  and  O_25
REMARK   15  A    between atoms: C_27  and  O_28
REMARK                            x       y       z     vdW  Elec       q    Type
REMARK                         _______ _______ _______ _____ _____    ______ ____
ROOT
ATOM      1  C   UNL     1       4.635   5.477  17.603  0.00  0.00    +0.000 A 
ATOM      2  C   UNL     1       4.807   4.175  18.089  0.00  0.00    +0.000 A 
ATOM      3  C   UNL     1       4.071   3.707  19.180  0.00  0.00    +0.000 A 
ATOM      4  C   UNL     1       3.159   4.565  19.834  0.00  0.00    +0.000 A 
ATOM      5  C   UNL     1       2.963   5.864  19.331  0.00  0.00    +0.000 A 
ATOM      6  O   UNL     1       2.067   6.692  19.967  0.00  0.00    +0.000 OA
ATOM      7  C   UNL     1       2.003   8.022  19.616  0.00  0.00    +0.000 A 
ATOM      8  C   UNL     1       2.566   8.549  18.517  0.00  0.00    +0.000 A 
ATOM      9  C   UNL     1       3.222   7.585  17.600  0.00  0.00    +0.000 A 
ATOM     10  O   UNL     1       3.341   7.840  16.409  0.00  0.00    +0.000 OA
ATOM     11  C   UNL     1       3.655   6.296  18.185  0.00  0.00    +0.000 A 
ENDROOT
BRANCH   7  12
ATOM     12  C   UNL     1       1.093   8.807  20.454  0.00  0.00    +0.000 A 
ATOM     13  C   UNL     1       0.186   9.672  19.816  0.00  0.00    +0.000 A 
ATOM     14  C   UNL     1      -0.643  10.509  20.565  0.00  0.00    +0.000 A 
ATOM     15  C   UNL     1      -0.553  10.483  21.950  0.00  0.00    +0.000 A 
ATOM     16  C   UNL     1       0.340   9.619  22.584  0.00  0.00    +0.000 A 
ATOM     17  C   UNL     1       1.167   8.777  21.853  0.00  0.00    +0.000 A 
BRANCH  15  18
ATOM     18  O   UNL     1      -1.316  11.301  22.735  0.00  0.00    +0.000 OA
ATOM     19  H   UNL     1      -2.045  10.775  23.106  0.00  0.00    +0.000 HD
ENDBRANCH  15  18
BRANCH  16  20
ATOM     20  O   UNL     1       0.423   9.610  23.948  0.00  0.00    +0.000 OA
ATOM     21  H   UNL     1      -0.022   8.781  24.217  0.00  0.00    +0.000 HD
ENDBRANCH  16  20
ENDBRANCH   7  12
BRANCH   3  22
ATOM     22  O   UNL     1       4.178   2.436  19.692  0.00  0.00    +0.000 OA
ATOM     23  C   UNL     1       3.722   1.352  18.894  0.00  0.00    +0.000 C 
ENDBRANCH   3  22
BRANCH   4  24
ATOM     24  O   UNL     1       2.538   3.990  20.916  0.00  0.00    +0.000 OA
ATOM     25  C   UNL     1       1.219   3.484  20.803  0.00  0.00    +0.000 C 
ENDBRANCH   4  24
BRANCH   8  26
ATOM     26  O   UNL     1       2.477   9.871  18.126  0.00  0.00    +0.000 OA
ATOM     27  H   UNL     1       2.602  10.445  18.900  0.00  0.00    +0.000 HD
ENDBRANCH   8  26
BRANCH   1  28
ATOM     28  O   UNL     1       5.483   5.770  16.567  0.00  0.00    +0.000 OA
BRANCH  28  29
ATOM     29  C   UNL     1       5.124   5.282  15.275  0.00  0.00    +0.000 C 
BRANCH  29  30
ATOM     30  C   UNL     1       6.087   4.189  14.837  0.00  0.00    +0.000 C 
BRANCH  30  31
ATOM     31  C   UNL     1       5.750   3.756  13.409  0.00  0.00    +0.000 C 
BRANCH  31  32
ATOM     32  C   UNL     1       6.999   3.661  12.543  0.00  0.00    +0.000 C 
BRANCH  32  34
ATOM     33  C   UNL     1       8.430   5.719  12.681  0.00  0.00    +0.000 C 
ATOM     34  C   UNL     1       7.331   5.010  11.908  0.00  0.00    +0.000 C 
ENDBRANCH  32  34
ENDBRANCH  31  32
ENDBRANCH  30  31
ENDBRANCH  29  30
ENDBRANCH  28  29
ENDBRANCH   1  28
TORSDOF 12
ENDMDL
MODEL 8
REMARK VINA RESULT:      -6.7      2.562      3.798
REMARK  Name = 
REMARK  15 active torsions:
REMARK  status: ('A' for Active; 'I' for Inactive)
REMARK    1  A    between atoms: C_1  and  C_2
REMARK    2  A    between atoms: C_2  and  C_3
REMARK    3  A    between atoms: C_3  and  C_4
REMARK    4  A    between atoms: C_4  and  C_5
REMARK    5  A    between atoms: C_5  and  C_6
REMARK    6  A    between atoms: C_6  and  O_7
REMARK    7  A    between atoms: O_7  and  C_8
REMARK    8  A    between atoms: C_10  and  O_11
REMARK    9  A    between atoms: O_11  and  C_12
REMARK   10  A    between atoms: C_13  and  O_14
REMARK   11  A    between atoms: O_14  and  C_15
REMARK   12  A    between atoms: C_18  and  C_19
REMARK   13  A    between atoms: C_22  and  O_23
REMARK   14  A    between atoms: C_24  and  O_25
REMARK   15  A    between atoms: C_27  and  O_28
REMARK                            x       y       z     vdW  Elec       q    Type
REMARK                         _______ _______ _______ _____ _____    ______ ____
ROOT
ATOM      1  C   UNL     1       4.960   5.182  18.170  0.00  0.00    +0.000 A 
ATOM      2  C   UNL     1       4.927   3.977  18.883  0.00  0.00    +0.000 A 
ATOM      3  C   UNL     1       3.919   3.714  19.813  0.00  0.00    +0.000 A 
ATOM      4  C   UNL     1       2.929   4.688  20.072  0.00  0.00    +0.000 A 
ATOM      5  C   UNL     1       2.943   5.888  19.337  0.00  0.00    +0.000 A 
ATOM      6  O   UNL     1       1.972   6.830  19.588  0.00  0.00    +0.000 OA
ATOM      7  C   UNL     1       2.079   8.083  19.026  0.00  0.00    +0.000 A 
ATOM      8  C   UNL     1       2.925   8.405  18.036  0.00  0.00    +0.000 A 
ATOM      9  C   UNL     1       3.725   7.287  17.479  0.00  0.00    +0.000 A 
ATOM     10  O   UNL     1       4.148   7.335  16.330  0.00  0.00    +0.000 OA
ATOM     11  C   UNL     1       3.920   6.106  18.349  0.00  0.00    +0.000 A 
ENDROOT
BRANCH   7  12
ATOM     12  C   UNL     1       1.042   9.016  19.473  0.00  0.00    +0.000 A 
ATOM     13  C   UNL     1       0.153   9.528  18.510  0.00  0.00    +0.000 A 
ATOM     14  C   UNL     1      -0.797  10.488  18.862  0.00  0.00    +0.000 A 
ATOM     15  C   UNL     1      -0.848  10.938  20.174  0.00  0.00    +0.000 A 
ATOM     16  C   UNL     1       0.026  10.424  21.131  0.00  0.00    +0.000 A 
ATOM     17  C   UNL     1       0.974   9.465  20.799  0.00  0.00    +0.000 A 
BRANCH  15  18
ATOM     18  O   UNL     1      -1.736  11.899  20.571  0.00  0.00    +0.000 OA
ATOM     19  H   UNL     1      -1.235  12.628  20.976  0.00  0.00    +0.000 HD
ENDBRANCH  15  18
BRANCH  16  20
ATOM     20  O   UNL     1      -0.030  10.882  22.418  0.00  0.00    +0.000 OA
ATOM     21  H   UNL     1      -0.943  11.218  22.521  0.00  0.00    +0.000 HD
ENDBRANCH  16  20
ENDBRANCH   7  12
BRANCH   3  22
ATOM     22  O   UNL     1       3.817   2.545  20.530  0.00  0.00    +0.000 OA
ATOM     23  C   UNL     1       4.936   1.669  20.543  0.00  0.00    +0.000 C 
ENDBRANCH   3  22
BRANCH   4  24
ATOM     24  O   UNL     1       2.027   4.317  21.039  0.00  0.00    +0.000 OA
ATOM     25  C   UNL     1       0.836   3.634  20.688  0.00  0.00    +0.000 C 
ENDBRANCH   4  24
BRANCH   8  26
ATOM     26  O   UNL     1       3.018   9.644  17.431  0.00  0.00    +0.000 OA
ATOM     27  H   UNL     1       3.925   9.981  17.524  0.00  0.00    +0.000 HD
ENDBRANCH   8  26
BRANCH   1  28
ATOM     28  O   UNL     1       6.053   5.278  17.349  0.00  0.00    +0.000 OA
BRANCH  28  29
ATOM     29  C   UNL     1       7.221   5.895  17.891  0.00  0.00    +0.000 C 
BRANCH  29  30
ATOM     30  C   UNL     1       7.396   7.291  17.312  0.00  0.00    +0.000 C 
BRANCH  30  31
ATOM     31  C   UNL     1       8.260   8.128  18.257  0.00  0.00    +0.000 C 
BRANCH  31  32
ATOM     32  C   UNL     1       8.210   9.608  17.899  0.00  0.00    +0.000 C 
BRANCH  32  34
ATOM     33  C   UNL     1       9.302  10.371  20.025  0.00  0.00    +0.000 C 
ATOM     34  C   UNL     1       9.390  10.360  18.509  0.00  0.00    +0.000 C 
ENDBRANCH  32  34
ENDBRANCH  31  32
ENDBRANCH  30  31
ENDBRANCH  29  30
ENDBRANCH  28  29
ENDBRANCH   1  28
TORSDOF 12
ENDMDL
MODEL 9
REMARK VINA RESULT:      -6.6      1.458      2.060
REMARK  Name = 
REMARK  15 active torsions:
REMARK  status: ('A' for Active; 'I' for Inactive)
REMARK    1  A    between atoms: C_1  and  C_2
REMARK    2  A    between atoms: C_2  and  C_3
REMARK    3  A    between atoms: C_3  and  C_4
REMARK    4  A    between atoms: C_4  and  C_5
REMARK    5  A    between atoms: C_5  and  C_6
REMARK    6  A    between atoms: C_6  and  O_7
REMARK    7  A    between atoms: O_7  and  C_8
REMARK    8  A    between atoms: C_10  and  O_11
REMARK    9  A    between atoms: O_11  and  C_12
REMARK   10  A    between atoms: C_13  and  O_14
REMARK   11  A    between atoms: O_14  and  C_15
REMARK   12  A    between atoms: C_18  and  C_19
REMARK   13  A    between atoms: C_22  and  O_23
REMARK   14  A    between atoms: C_24  and  O_25
REMARK   15  A    between atoms: C_27  and  O_28
REMARK                            x       y       z     vdW  Elec       q    Type
REMARK                         _______ _______ _______ _____ _____    ______ ____
ROOT
ATOM      1  C   UNL     1       5.112   5.043  18.233  0.00  0.00    +0.000 A 
ATOM      2  C   UNL     1       4.992   3.864  18.979  0.00  0.00    +0.000 A 
ATOM      3  C   UNL     1       3.902   3.652  19.826  0.00  0.00    +0.000 A 
ATOM      4  C   UNL     1       2.915   4.653  19.967  0.00  0.00    +0.000 A 
ATOM      5  C   UNL     1       3.018   5.826  19.199  0.00  0.00    +0.000 A 
ATOM      6  O   UNL     1       2.049   6.794  19.334  0.00  0.00    +0.000 OA
ATOM      7  C   UNL     1       2.231   8.025  18.743  0.00  0.00    +0.000 A 
ATOM      8  C   UNL     1       3.166   8.297  17.820  0.00  0.00    +0.000 A 
ATOM      9  C   UNL     1       3.986   7.147  17.370  0.00  0.00    +0.000 A 
ATOM     10  O   UNL     1       4.507   7.148  16.262  0.00  0.00    +0.000 OA
ATOM     11  C   UNL     1       4.081   5.993  18.292  0.00  0.00    +0.000 A 
ENDROOT
BRANCH   7  12
ATOM     12  C   UNL     1       1.180   8.992  19.069  0.00  0.00    +0.000 A 
ATOM     13  C   UNL     1       0.829   9.159  20.421  0.00  0.00    +0.000 A 
ATOM     14  C   UNL     1      -0.225   9.999  20.782  0.00  0.00    +0.000 A 
ATOM     15  C   UNL     1      -0.931  10.662  19.787  0.00  0.00    +0.000 A 
ATOM     16  C   UNL     1      -0.578  10.504  18.447  0.00  0.00    +0.000 A 
ATOM     17  C   UNL     1       0.471   9.676  18.072  0.00  0.00    +0.000 A 
BRANCH  15  18
ATOM     18  O   UNL     1      -1.992  11.473  20.076  0.00  0.00    +0.000 OA
ATOM     19  H   UNL     1      -2.786  10.917  20.160  0.00  0.00    +0.000 HD
ENDBRANCH  15  18
BRANCH  16  20
ATOM     20  O   UNL     1      -1.286  11.157  17.477  0.00  0.00    +0.000 OA
ATOM     21  H   UNL     1      -2.170  10.738  17.492  0.00  0.00    +0.000 HD
ENDBRANCH  16  20
ENDBRANCH   7  12
BRANCH   3  22
ATOM     22  O   UNL     1       3.715   2.510  20.569  0.00  0.00    +0.000 OA
ATOM     23  C   UNL     1       4.826   1.643  20.756  0.00  0.00    +0.000 C 
ENDBRANCH   3  22
BRANCH   4  24
ATOM     24  O   UNL     1       1.926   4.332  20.865  0.00  0.00    +0.000 OA
ATOM     25  C   UNL     1       0.711   3.754  20.419  0.00  0.00    +0.000 C 
ENDBRANCH   4  24
BRANCH   8  26
ATOM     26  O   UNL     1       3.336   9.513  17.186  0.00  0.00    +0.000 OA
ATOM     27  H   UNL     1       2.582  10.091  17.389  0.00  0.00    +0.000 HD
ENDBRANCH   8  26
BRANCH   1  28
ATOM     28  O   UNL     1       6.273   5.091  17.507  0.00  0.00    +0.000 OA
BRANCH  28  29
ATOM     29  C   UNL     1       6.428   4.129  16.464  0.00  0.00    +0.000 C 
BRANCH  29  30
ATOM     30  C   UNL     1       7.189   4.736  15.294  0.00  0.00    +0.000 C 
BRANCH  30  31
ATOM     31  C   UNL     1       6.226   4.972  14.129  0.00  0.00    +0.000 C 
BRANCH  31  32
ATOM     32  C   UNL     1       5.528   3.684  13.710  0.00  0.00    +0.000 C 
BRANCH  32  34
ATOM     33  C   UNL     1       4.429   3.226  11.502  0.00  0.00    +0.000 C 
ATOM     34  C   UNL     1       5.752   3.397  12.227  0.00  0.00    +0.000 C 
ENDBRANCH  32  34
ENDBRANCH  31  32
ENDBRANCH  30  31
ENDBRANCH  29  30
ENDBRANCH  28  29
ENDBRANCH   1  28
TORSDOF 12
ENDMDL
