MODEL 1
REMARK VINA RESULT:      -8.1      0.000      0.000
REMARK  Name = 
REMARK  9 active torsions:
REMARK  status: ('A' for Active; 'I' for Inactive)
REMARK    1  A    between atoms: C_1  and  N_2
REMARK    2  A    between atoms: C_7  and  O_8
REMARK    3  A    between atoms: O_8  and  C_9
REMARK    4  A    between atoms: C_9  and  C_11
REMARK    5  A    between atoms: C_11  and  O_12
REMARK    6  A    between atoms: C_11  and  C_20
REMARK    7  A    between atoms: C_11  and  C_26
REMARK    8  A    between atoms: O_12  and  C_13
REMARK    9  A    between atoms: C_13  and  C_14
REMARK                            x       y       z     vdW  Elec       q    Type
REMARK                         _______ _______ _______ _____ _____    ______ ____
ROOT
ATOM      1  C   UNL     1       3.984   5.627  17.594  0.00  0.00    +0.000 C 
ENDROOT
BRANCH   1   2
ATOM      2  C   UNL     1       5.427   5.944  18.079  0.00  0.00    +0.000 A 
ATOM      3  C   UNL     1       6.231   6.895  17.414  0.00  0.00    +0.000 A 
ATOM      4  C   UNL     1       7.514   7.197  17.863  0.00  0.00    +0.000 A 
ATOM      5  C   UNL     1       8.044   6.509  18.948  0.00  0.00    +0.000 A 
ATOM      6  C   UNL     1       7.293   5.514  19.577  0.00  0.00    +0.000 A 
ATOM      7  C   UNL     1       6.000   5.229  19.145  0.00  0.00    +0.000 A 
ENDBRANCH   1   2
BRANCH   1   8
ATOM      8  C   UNL     1       3.123   4.866  18.650  0.00  0.00    +0.000 A 
ATOM      9  C   UNL     1       3.204   5.122  20.027  0.00  0.00    +0.000 A 
ATOM     10  C   UNL     1       2.383   4.434  20.928  0.00  0.00    +0.000 A 
ATOM     11  C   UNL     1       1.454   3.487  20.487  0.00  0.00    +0.000 A 
ATOM     12  C   UNL     1       1.330   3.241  19.128  0.00  0.00    +0.000 A 
ATOM     13  C   UNL     1       2.143   3.925  18.230  0.00  0.00    +0.000 A 
ENDBRANCH   1   8
BRANCH   1  14
ATOM     14  C   UNL     1       3.409   7.066  17.172  0.00  0.00    +0.000 C 
ATOM     15  O   UNL     1       3.898   7.822  16.348  0.00  0.00    +0.000 OA
BRANCH  14  16
ATOM     16  O   UNL     1       2.330   7.433  17.949  0.00  0.00    +0.000 OA
BRANCH  16  23
ATOM     17  C   UNL     1       2.047  12.038  19.151  0.00  0.00    +0.000 C 
ATOM     18  N   UNL     1       1.090  11.057  18.700  0.00  0.00    +0.000 NA
ATOM     19  C   UNL     1       0.200  10.530  19.724  0.00  0.00    +0.000 C 
ATOM     20  C   UNL     1      -0.791   9.858  18.772  0.00  0.00    +0.000 C 
ATOM     21  C   UNL     1       0.059   9.384  17.573  0.00  0.00    +0.000 C 
ATOM     22  C   UNL     1       1.479   9.883  17.883  0.00  0.00    +0.000 C 
ATOM     23  C   UNL     1       2.275   8.752  18.619  0.00  0.00    +0.000 C 
ATOM     24  C   UNL     1       1.618   8.409  19.969  0.00  0.00    +0.000 C 
ATOM     25  C   UNL     1       0.978   9.600  20.672  0.00  0.00    +0.000 C 
ENDBRANCH  16  23
ENDBRANCH  14  16
ENDBRANCH   1  14
BRANCH   1  26
ATOM     26  O   UNL     1       4.018   4.828  16.365  0.00  0.00    +0.000 OA
BRANCH  26  27
ATOM     27  C   UNL     1       5.146   3.961  16.194  0.00  0.00    +0.000 C 
BRANCH  27  28
ATOM     28  C   UNL     1       5.853   4.100  14.860  0.00  0.00    +0.000 A 
ATOM     29  C   UNL     1       7.023   4.853  14.692  0.00  0.00    +0.000 A 
ATOM     30  C   UNL     1       7.604   4.993  13.426  0.00  0.00    +0.000 A 
ATOM     31  C   UNL     1       7.016   4.384  12.312  0.00  0.00    +0.000 A 
ATOM     32  C   UNL     1       5.860   3.626  12.465  0.00  0.00    +0.000 A 
ATOM     33  C   UNL     1       5.284   3.484  13.729  0.00  0.00    +0.000 A 
ENDBRANCH  27  28
ENDBRANCH  26  27
ENDBRANCH   1  26
TORSDOF 8
ENDMDL
MODEL 2
REMARK VINA RESULT:      -8.1      0.635      1.572
REMARK  Name = 
REMARK  9 active torsions:
REMARK  status: ('A' for Active; 'I' for Inactive)
REMARK    1  A    between atoms: C_1  and  N_2
REMARK    2  A    between atoms: C_7  and  O_8
REMARK    3  A    between atoms: O_8  and  C_9
REMARK    4  A    between atoms: C_9  and  C_11
REMARK    5  A    between atoms: C_11  and  O_12
REMARK    6  A    between atoms: C_11  and  C_20
REMARK    7  A    between atoms: C_11  and  C_26
REMARK    8  A    between atoms: O_12  and  C_13
REMARK    9  A    between atoms: C_13  and  C_14
REMARK                            x       y       z     vdW  Elec       q    Type
REMARK                         _______ _______ _______ _____ _____    ______ ____
ROOT
ATOM      1  C   UNL     1       4.039   5.797  17.566  0.00  0.00    +0.000 C 
ENDROOT
BRANCH   1   2
ATOM      2  C   UNL     1       5.490   6.023  18.080  0.00  0.00    +0.000 A 
ATOM      3  C   UNL     1       6.350   6.953  17.457  0.00  0.00    +0.000 A 
ATOM      4  C   UNL     1       7.641   7.173  17.932  0.00  0.00    +0.000 A 
ATOM      5  C   UNL     1       8.119   6.423  19.000  0.00  0.00    +0.000 A 
ATOM      6  C   UNL     1       7.309   5.449  19.586  0.00  0.00    +0.000 A 
ATOM      7  C   UNL     1       6.010   5.245  19.128  0.00  0.00    +0.000 A 
ENDBRANCH   1   2
BRANCH   1   8
ATOM      8  C   UNL     1       3.106   5.111  18.611  0.00  0.00    +0.000 A 
ATOM      9  C   UNL     1       3.042   5.512  19.955  0.00  0.00    +0.000 A 
ATOM     10  C   UNL     1       2.160   4.884  20.842  0.00  0.00    +0.000 A 
ATOM     11  C   UNL     1       1.313   3.856  20.420  0.00  0.00    +0.000 A 
ATOM     12  C   UNL     1       1.332   3.465  19.090  0.00  0.00    +0.000 A 
ATOM     13  C   UNL     1       2.206   4.088  18.205  0.00  0.00    +0.000 A 
ENDBRANCH   1   8
BRANCH   1  14
ATOM     14  C   UNL     1       3.573   7.265  17.112  0.00  0.00    +0.000 C 
ATOM     15  O   UNL     1       3.774   7.779  16.023  0.00  0.00    +0.000 OA
BRANCH  14  16
ATOM     16  O   UNL     1       3.002   7.965  18.155  0.00  0.00    +0.000 OA
BRANCH  16  23
ATOM     17  C   UNL     1      -1.182  10.236  17.881  0.00  0.00    +0.000 C 
ATOM     18  N   UNL     1      -0.264   9.946  18.956  0.00  0.00    +0.000 NA
ATOM     19  C   UNL     1       0.541  11.068  19.416  0.00  0.00    +0.000 C 
ATOM     20  C   UNL     1       1.046  10.412  20.702  0.00  0.00    +0.000 C 
ATOM     21  C   UNL     1       1.177   8.910  20.365  0.00  0.00    +0.000 C 
ATOM     22  C   UNL     1       0.665   8.792  18.920  0.00  0.00    +0.000 C 
ATOM     23  C   UNL     1       1.876   8.899  17.932  0.00  0.00    +0.000 C 
ATOM     24  C   UNL     1       2.559  10.275  18.051  0.00  0.00    +0.000 C 
ATOM     25  C   UNL     1       1.605  11.421  18.363  0.00  0.00    +0.000 C 
ENDBRANCH  16  23
ENDBRANCH  14  16
ENDBRANCH   1  14
BRANCH   1  26
ATOM     26  O   UNL     1       4.046   4.980  16.348  0.00  0.00    +0.000 OA
BRANCH  26  27
ATOM     27  C   UNL     1       5.175   4.118  16.160  0.00  0.00    +0.000 C 
BRANCH  27  28
ATOM     28  C   UNL     1       5.803   4.192  14.782  0.00  0.00    +0.000 A 
ATOM     29  C   UNL     1       5.284   3.515  13.670  0.00  0.00    +0.000 A 
ATOM     30  C   UNL     1       5.937   3.575  12.433  0.00  0.00    +0.000 A 
ATOM     31  C   UNL     1       7.119   4.308  12.296  0.00  0.00    +0.000 A 
ATOM     32  C   UNL     1       7.642   4.993  13.389  0.00  0.00    +0.000 A 
ATOM     33  C   UNL     1       6.987   4.936  14.621  0.00  0.00    +0.000 A 
ENDBRANCH  27  28
ENDBRANCH  26  27
ENDBRANCH   1  26
TORSDOF 8
ENDMDL
MODEL 3
REMARK VINA RESULT:      -7.9      0.223      1.458
REMARK  Name = 
REMARK  9 active torsions:
REMARK  status: ('A' for Active; 'I' for Inactive)
REMARK    1  A    between atoms: C_1  and  N_2
REMARK    2  A    between atoms: C_7  and  O_8
REMARK    3  A    between atoms: O_8  and  C_9
REMARK    4  A    between atoms: C_9  and  C_11
REMARK    5  A    between atoms: C_11  and  O_12
REMARK    6  A    between atoms: C_11  and  C_20
REMARK    7  A    between atoms: C_11  and  C_26
REMARK    8  A    between atoms: O_12  and  C_13
REMARK    9  A    between atoms: C_13  and  C_14
REMARK                            x       y       z     vdW  Elec       q    Type
REMARK                         _______ _______ _______ _____ _____    ______ ____
ROOT
ATOM      1  C   UNL     1       4.023   5.598  17.600  0.00  0.00    +0.000 C 
ENDROOT
BRANCH   1   2
ATOM      2  C   UNL     1       5.476   5.928  18.050  0.00  0.00    +0.000 A 
ATOM      3  C   UNL     1       6.075   5.256  19.138  0.00  0.00    +0.000 A 
ATOM      4  C   UNL     1       7.383   5.534  19.525  0.00  0.00    +0.000 A 
ATOM      5  C   UNL     1       8.098   6.532  18.874  0.00  0.00    +0.000 A 
ATOM      6  C   UNL     1       7.500   7.258  17.843  0.00  0.00    +0.000 A 
ATOM      7  C   UNL     1       6.200   6.964  17.437  0.00  0.00    +0.000 A 
ENDBRANCH   1   2
BRANCH   1   8
ATOM      8  C   UNL     1       3.221   4.762  18.646  0.00  0.00    +0.000 A 
ATOM      9  C   UNL     1       2.636   3.523  18.343  0.00  0.00    +0.000 A 
ATOM     10  C   UNL     1       1.957   2.798  19.329  0.00  0.00    +0.000 A 
ATOM     11  C   UNL     1       1.852   3.275  20.639  0.00  0.00    +0.000 A 
ATOM     12  C   UNL     1       2.451   4.480  20.972  0.00  0.00    +0.000 A 
ATOM     13  C   UNL     1       3.129   5.202  19.995  0.00  0.00    +0.000 A 
ENDBRANCH   1   8
BRANCH   1  14
ATOM     14  C   UNL     1       3.399   7.040  17.273  0.00  0.00    +0.000 C 
ATOM     15  O   UNL     1       3.814   7.831  16.441  0.00  0.00    +0.000 OA
BRANCH  14  16
ATOM     16  O   UNL     1       2.377   7.363  18.142  0.00  0.00    +0.000 OA
BRANCH  16  23
ATOM     17  C   UNL     1       1.997  12.016  19.115  0.00  0.00    +0.000 C 
ATOM     18  N   UNL     1       1.073  11.006  18.659  0.00  0.00    +0.000 NA
ATOM     19  C   UNL     1       0.133  10.517  19.657  0.00  0.00    +0.000 C 
ATOM     20  C   UNL     1      -0.801   9.794  18.685  0.00  0.00    +0.000 C 
ATOM     21  C   UNL     1       0.116   9.274  17.556  0.00  0.00    +0.000 C 
ATOM     22  C   UNL     1       1.514   9.800  17.919  0.00  0.00    +0.000 C 
ATOM     23  C   UNL     1       2.277   8.711  18.747  0.00  0.00    +0.000 C 
ATOM     24  C   UNL     1       1.550   8.424  20.074  0.00  0.00    +0.000 C 
ATOM     25  C   UNL     1       0.865   9.639  20.686  0.00  0.00    +0.000 C 
ENDBRANCH  16  23
ENDBRANCH  14  16
ENDBRANCH   1  14
BRANCH   1  26
ATOM     26  O   UNL     1       4.033   4.862  16.331  0.00  0.00    +0.000 OA
BRANCH  26  27
ATOM     27  C   UNL     1       5.145   3.989  16.103  0.00  0.00    +0.000 C 
BRANCH  27  28
ATOM     28  C   UNL     1       5.798   4.139  14.743  0.00  0.00    +0.000 A 
ATOM     29  C   UNL     1       5.309   3.511  13.590  0.00  0.00    +0.000 A 
ATOM     30  C   UNL     1       5.984   3.640  12.370  0.00  0.00    +0.000 A 
ATOM     31  C   UNL     1       7.158   4.395  12.291  0.00  0.00    +0.000 A 
ATOM     32  C   UNL     1       7.649   5.033  13.427  0.00  0.00    +0.000 A 
ATOM     33  C   UNL     1       6.973   4.906  14.642  0.00  0.00    +0.000 A 
ENDBRANCH  27  28
ENDBRANCH  26  27
ENDBRANCH   1  26
TORSDOF 8
ENDMDL
MODEL 4
REMARK VINA RESULT:      -7.9      0.639      1.963
REMARK  Name = 
REMARK  9 active torsions:
REMARK  status: ('A' for Active; 'I' for Inactive)
REMARK    1  A    between atoms: C_1  and  N_2
REMARK    2  A    between atoms: C_7  and  O_8
REMARK    3  A    between atoms: O_8  and  C_9
REMARK    4  A    between atoms: C_9  and  C_11
REMARK    5  A    between atoms: C_11  and  O_12
REMARK    6  A    between atoms: C_11  and  C_20
REMARK    7  A    between atoms: C_11  and  C_26
REMARK    8  A    between atoms: O_12  and  C_13
REMARK    9  A    between atoms: C_13  and  C_14
REMARK                            x       y       z     vdW  Elec       q    Type
REMARK                         _______ _______ _______ _____ _____    ______ ____
ROOT
ATOM      1  C   UNL     1       4.046   5.801  17.505  0.00  0.00    +0.000 C 
ENDROOT
BRANCH   1   2
ATOM      2  C   UNL     1       5.499   6.013  18.017  0.00  0.00    +0.000 A 
ATOM      3  C   UNL     1       5.991   5.307  19.136  0.00  0.00    +0.000 A 
ATOM      4  C   UNL     1       7.300   5.479  19.580  0.00  0.00    +0.000 A 
ATOM      5  C   UNL     1       8.124   6.406  18.952  0.00  0.00    +0.000 A 
ATOM      6  C   UNL     1       7.636   7.165  17.888  0.00  0.00    +0.000 A 
ATOM      7  C   UNL     1       6.335   6.977  17.427  0.00  0.00    +0.000 A 
ENDBRANCH   1   2
BRANCH   1   8
ATOM      8  C   UNL     1       3.113   5.106  18.546  0.00  0.00    +0.000 A 
ATOM      9  C   UNL     1       2.391   3.937  18.262  0.00  0.00    +0.000 A 
ATOM     10  C   UNL     1       1.596   3.335  19.244  0.00  0.00    +0.000 A 
ATOM     11  C   UNL     1       1.508   3.868  20.533  0.00  0.00    +0.000 A 
ATOM     12  C   UNL     1       2.239   5.003  20.851  0.00  0.00    +0.000 A 
ATOM     13  C   UNL     1       3.031   5.601  19.876  0.00  0.00    +0.000 A 
ENDBRANCH   1   8
BRANCH   1  14
ATOM     14  C   UNL     1       3.585   7.276  17.071  0.00  0.00    +0.000 C 
ATOM     15  O   UNL     1       3.786   7.803  15.989  0.00  0.00    +0.000 OA
BRANCH  14  16
ATOM     16  O   UNL     1       3.020   7.965  18.125  0.00  0.00    +0.000 OA
BRANCH  16  23
ATOM     17  C   UNL     1      -1.178  10.214  17.886  0.00  0.00    +0.000 C 
ATOM     18  N   UNL     1      -0.261   9.908  18.958  0.00  0.00    +0.000 NA
ATOM     19  C   UNL     1       0.535  11.026  19.442  0.00  0.00    +0.000 C 
ATOM     20  C   UNL     1       1.043  10.348  20.715  0.00  0.00    +0.000 C 
ATOM     21  C   UNL     1       1.184   8.855  20.348  0.00  0.00    +0.000 C 
ATOM     22  C   UNL     1       0.675   8.762  18.901  0.00  0.00    +0.000 C 
ATOM     23  C   UNL     1       1.888   8.896  17.917  0.00  0.00    +0.000 C 
ATOM     24  C   UNL     1       2.562  10.273  18.065  0.00  0.00    +0.000 C 
ATOM     25  C   UNL     1       1.599  11.407  18.397  0.00  0.00    +0.000 C 
ENDBRANCH  16  23
ENDBRANCH  14  16
ENDBRANCH   1  14
BRANCH   1  26
ATOM     26  O   UNL     1       4.045   4.997  16.278  0.00  0.00    +0.000 OA
BRANCH  26  27
ATOM     27  C   UNL     1       5.153   4.110  16.090  0.00  0.00    +0.000 C 
BRANCH  27  28
ATOM     28  C   UNL     1       5.806   4.194  14.724  0.00  0.00    +0.000 A 
ATOM     29  C   UNL     1       5.305   3.529  13.598  0.00  0.00    +0.000 A 
ATOM     30  C   UNL     1       5.980   3.598  12.373  0.00  0.00    +0.000 A 
ATOM     31  C   UNL     1       7.167   4.330  12.264  0.00  0.00    +0.000 A 
ATOM     32  C   UNL     1       7.671   5.003  13.373  0.00  0.00    +0.000 A 
ATOM     33  C   UNL     1       6.995   4.936  14.593  0.00  0.00    +0.000 A 
ENDBRANCH  27  28
ENDBRANCH  26  27
ENDBRANCH   1  26
TORSDOF 8
ENDMDL
MODEL 5
REMARK VINA RESULT:      -7.8      4.992      8.539
REMARK  Name = 
REMARK  9 active torsions:
REMARK  status: ('A' for Active; 'I' for Inactive)
REMARK    1  A    between atoms: C_1  and  N_2
REMARK    2  A    between atoms: C_7  and  O_8
REMARK    3  A    between atoms: O_8  and  C_9
REMARK    4  A    between atoms: C_9  and  C_11
REMARK    5  A    between atoms: C_11  and  O_12
REMARK    6  A    between atoms: C_11  and  C_20
REMARK    7  A    between atoms: C_11  and  C_26
REMARK    8  A    between atoms: O_12  and  C_13
REMARK    9  A    between atoms: C_13  and  C_14
REMARK                            x       y       z     vdW  Elec       q    Type
REMARK                         _______ _______ _______ _____ _____    ______ ____
ROOT
ATOM      1  C   UNL     1      -0.026  11.112  20.199  0.00  0.00    +0.000 C 
ENDROOT
BRANCH   1   2
ATOM      2  C   UNL     1       0.615  12.507  19.949  0.00  0.00    +0.000 A 
ATOM      3  C   UNL     1       0.068  13.405  19.007  0.00  0.00    +0.000 A 
ATOM      4  C   UNL     1       0.628  14.664  18.802  0.00  0.00    +0.000 A 
ATOM      5  C   UNL     1       1.781  15.027  19.488  0.00  0.00    +0.000 A 
ATOM      6  C   UNL     1       2.378  14.126  20.372  0.00  0.00    +0.000 A 
ATOM      7  C   UNL     1       1.806  12.877  20.597  0.00  0.00    +0.000 A 
ENDBRANCH   1   2
BRANCH   1   8
ATOM      8  C   UNL     1       0.814   9.928  19.626  0.00  0.00    +0.000 A 
ATOM      9  C   UNL     1       1.390   9.951  18.347  0.00  0.00    +0.000 A 
ATOM     10  C   UNL     1       2.165   8.876  17.896  0.00  0.00    +0.000 A 
ATOM     11  C   UNL     1       2.398   7.760  18.705  0.00  0.00    +0.000 A 
ATOM     12  C   UNL     1       1.869   7.727  19.986  0.00  0.00    +0.000 A 
ATOM     13  C   UNL     1       1.101   8.796  20.437  0.00  0.00    +0.000 A 
ENDBRANCH   1   8
BRANCH   1  14
ATOM     14  C   UNL     1      -0.236  11.078  21.790  0.00  0.00    +0.000 C 
ATOM     15  O   UNL     1       0.545  10.621  22.609  0.00  0.00    +0.000 OA
BRANCH  14  16
ATOM     16  O   UNL     1      -1.491  11.525  22.149  0.00  0.00    +0.000 OA
BRANCH  16  23
ATOM     17  C   UNL     1      -1.368  15.253  25.121  0.00  0.00    +0.000 C 
ATOM     18  N   UNL     1      -1.907  15.038  23.799  0.00  0.00    +0.000 NA
ATOM     19  C   UNL     1      -3.354  14.889  23.728  0.00  0.00    +0.000 C 
ATOM     20  C   UNL     1      -3.475  15.041  22.211  0.00  0.00    +0.000 C 
ATOM     21  C   UNL     1      -2.183  14.418  21.638  0.00  0.00    +0.000 C 
ATOM     22  C   UNL     1      -1.367  14.013  22.876  0.00  0.00    +0.000 C 
ATOM     23  C   UNL     1      -1.673  12.519  23.232  0.00  0.00    +0.000 C 
ATOM     24  C   UNL     1      -3.158  12.337  23.599  0.00  0.00    +0.000 C 
ATOM     25  C   UNL     1      -3.774  13.532  24.317  0.00  0.00    +0.000 C 
ENDBRANCH  16  23
ENDBRANCH  14  16
ENDBRANCH   1  14
BRANCH   1  26
ATOM     26  O   UNL     1      -1.369  11.050  19.611  0.00  0.00    +0.000 OA
BRANCH  26  27
ATOM     27  C   UNL     1      -1.668   9.901  18.811  0.00  0.00    +0.000 C 
BRANCH  27  28
ATOM     28  C   UNL     1      -2.474  10.194  17.561  0.00  0.00    +0.000 A 
ATOM     29  C   UNL     1      -2.128   9.697  16.297  0.00  0.00    +0.000 A 
ATOM     30  C   UNL     1      -2.878  10.045  15.167  0.00  0.00    +0.000 A 
ATOM     31  C   UNL     1      -3.980  10.898  15.289  0.00  0.00    +0.000 A 
ATOM     32  C   UNL     1      -4.341  11.391  16.539  0.00  0.00    +0.000 A 
ATOM     33  C   UNL     1      -3.594  11.039  17.666  0.00  0.00    +0.000 A 
ENDBRANCH  27  28
ENDBRANCH  26  27
ENDBRANCH   1  26
TORSDOF 8
ENDMDL
MODEL 6
REMARK VINA RESULT:      -7.7      5.114      8.664
REMARK  Name = 
REMARK  9 active torsions:
REMARK  status: ('A' for Active; 'I' for Inactive)
REMARK    1  A    between atoms: C_1  and  N_2
REMARK    2  A    between atoms: C_7  and  O_8
REMARK    3  A    between atoms: O_8  and  C_9
REMARK    4  A    between atoms: C_9  and  C_11
REMARK    5  A    between atoms: C_11  and  O_12
REMARK    6  A    between atoms: C_11  and  C_20
REMARK    7  A    between atoms: C_11  and  C_26
REMARK    8  A    between atoms: O_12  and  C_13
REMARK    9  A    between atoms: C_13  and  C_14
REMARK                            x       y       z     vdW  Elec       q    Type
REMARK                         _______ _______ _______ _____ _____    ______ ____
ROOT
ATOM      1  C   UNL     1       0.113  11.455  20.153  0.00  0.00    +0.000 C 
ENDROOT
BRANCH   1   2
ATOM      2  C   UNL     1       0.891  12.794  20.000  0.00  0.00    +0.000 A 
ATOM      3  C   UNL     1       2.138  12.992  20.631  0.00  0.00    +0.000 A 
ATOM      4  C   UNL     1       2.846  14.181  20.474  0.00  0.00    +0.000 A 
ATOM      5  C   UNL     1       2.293  15.220  19.735  0.00  0.00    +0.000 A 
ATOM      6  C   UNL     1       1.029  15.071  19.162  0.00  0.00    +0.000 A 
ATOM      7  C   UNL     1       0.331  13.874  19.296  0.00  0.00    +0.000 A 
ENDBRANCH   1   2
BRANCH   1   8
ATOM      8  C   UNL     1       0.909  10.210  19.650  0.00  0.00    +0.000 A 
ATOM      9  C   UNL     1       1.077   9.050  20.422  0.00  0.00    +0.000 A 
ATOM     10  C   UNL     1       1.770   7.949  19.907  0.00  0.00    +0.000 A 
ATOM     11  C   UNL     1       2.301   7.964  18.614  0.00  0.00    +0.000 A 
ATOM     12  C   UNL     1       2.119   9.084  17.819  0.00  0.00    +0.000 A 
ATOM     13  C   UNL     1       1.428  10.180  18.327  0.00  0.00    +0.000 A 
ENDBRANCH   1   8
BRANCH   1  14
ATOM     14  C   UNL     1      -0.268  11.423  21.712  0.00  0.00    +0.000 C 
ATOM     15  O   UNL     1       0.372  10.879  22.598  0.00  0.00    +0.000 OA
BRANCH  14  16
ATOM     16  O   UNL     1      -1.503  11.991  21.948  0.00  0.00    +0.000 OA
BRANCH  16  23
ATOM     17  C   UNL     1      -1.757  15.246  25.423  0.00  0.00    +0.000 C 
ATOM     18  N   UNL     1      -2.337  15.134  24.107  0.00  0.00    +0.000 NA
ATOM     19  C   UNL     1      -3.747  14.772  24.070  0.00  0.00    +0.000 C 
ATOM     20  C   UNL     1      -3.982  15.111  22.597  0.00  0.00    +0.000 C 
ATOM     21  C   UNL     1      -2.648  14.782  21.891  0.00  0.00    +0.000 C 
ATOM     22  C   UNL     1      -1.707  14.343  23.024  0.00  0.00    +0.000 C 
ATOM     23  C   UNL     1      -1.766  12.784  23.170  0.00  0.00    +0.000 C 
ATOM     24  C   UNL     1      -3.182  12.325  23.564  0.00  0.00    +0.000 C 
ATOM     25  C   UNL     1      -3.925  13.298  24.472  0.00  0.00    +0.000 C 
ENDBRANCH  16  23
ENDBRANCH  14  16
ENDBRANCH   1  14
BRANCH   1  26
ATOM     26  O   UNL     1      -1.159  11.514  19.426  0.00  0.00    +0.000 OA
BRANCH  26  27
ATOM     27  C   UNL     1      -1.698  10.266  18.973  0.00  0.00    +0.000 C 
BRANCH  27  28
ATOM     28  C   UNL     1      -2.459  10.345  17.664  0.00  0.00    +0.000 A 
ATOM     29  C   UNL     1      -2.036   9.699  16.496  0.00  0.00    +0.000 A 
ATOM     30  C   UNL     1      -2.749   9.851  15.300  0.00  0.00    +0.000 A 
ATOM     31  C   UNL     1      -3.892  10.656  15.260  0.00  0.00    +0.000 A 
ATOM     32  C   UNL     1      -4.329  11.297  16.416  0.00  0.00    +0.000 A 
ATOM     33  C   UNL     1      -3.619  11.141  17.608  0.00  0.00    +0.000 A 
ENDBRANCH  27  28
ENDBRANCH  26  27
ENDBRANCH   1  26
TORSDOF 8
ENDMDL
MODEL 7
REMARK VINA RESULT:      -7.7      4.479      8.199
REMARK  Name = 
REMARK  9 active torsions:
REMARK  status: ('A' for Active; 'I' for Inactive)
REMARK    1  A    between atoms: C_1  and  N_2
REMARK    2  A    between atoms: C_7  and  O_8
REMARK    3  A    between atoms: O_8  and  C_9
REMARK    4  A    between atoms: C_9  and  C_11
REMARK    5  A    between atoms: C_11  and  O_12
REMARK    6  A    between atoms: C_11  and  C_20
REMARK    7  A    between atoms: C_11  and  C_26
REMARK    8  A    between atoms: O_12  and  C_13
REMARK    9  A    between atoms: C_13  and  C_14
REMARK                            x       y       z     vdW  Elec       q    Type
REMARK                         _______ _______ _______ _____ _____    ______ ____
ROOT
ATOM      1  C   UNL     1       0.384  10.510  20.096  0.00  0.00    +0.000 C 
ENDROOT
BRANCH   1   2
ATOM      2  C   UNL     1       0.955  11.919  19.762  0.00  0.00    +0.000 A 
ATOM      3  C   UNL     1       1.984  12.494  20.539  0.00  0.00    +0.000 A 
ATOM      4  C   UNL     1       2.512  13.743  20.225  0.00  0.00    +0.000 A 
ATOM      5  C   UNL     1       1.980  14.471  19.167  0.00  0.00    +0.000 A 
ATOM      6  C   UNL     1       0.914  13.952  18.430  0.00  0.00    +0.000 A 
ATOM      7  C   UNL     1       0.402  12.691  18.727  0.00  0.00    +0.000 A 
ENDBRANCH   1   2
BRANCH   1   8
ATOM      8  C   UNL     1       1.259   9.338  19.554  0.00  0.00    +0.000 A 
ATOM      9  C   UNL     1       1.460   8.145  20.265  0.00  0.00    +0.000 A 
ATOM     10  C   UNL     1       2.226   7.110  19.716  0.00  0.00    +0.000 A 
ATOM     11  C   UNL     1       2.799   7.226  18.446  0.00  0.00    +0.000 A 
ATOM     12  C   UNL     1       2.587   8.380  17.708  0.00  0.00    +0.000 A 
ATOM     13  C   UNL     1       1.824   9.409  18.251  0.00  0.00    +0.000 A 
ENDBRANCH   1   8
BRANCH   1  14
ATOM     14  C   UNL     1       0.221  10.544  21.693  0.00  0.00    +0.000 C 
ATOM     15  O   UNL     1       1.055  10.185  22.508  0.00  0.00    +0.000 OA
BRANCH  14  16
ATOM     16  O   UNL     1      -1.052  10.922  22.069  0.00  0.00    +0.000 OA
BRANCH  16  23
ATOM     17  C   UNL     1      -1.203  15.228  24.111  0.00  0.00    +0.000 C 
ATOM     18  N   UNL     1      -1.807  14.652  22.934  0.00  0.00    +0.000 NA
ATOM     19  C   UNL     1      -3.222  14.329  23.048  0.00  0.00    +0.000 C 
ATOM     20  C   UNL     1      -3.477  14.109  21.556  0.00  0.00    +0.000 C 
ATOM     21  C   UNL     1      -2.161  13.519  21.005  0.00  0.00    +0.000 C 
ATOM     22  C   UNL     1      -1.206  13.508  22.209  0.00  0.00    +0.000 C 
ATOM     23  C   UNL     1      -1.283  12.113  22.917  0.00  0.00    +0.000 C 
ATOM     24  C   UNL     1      -2.698  11.856  23.468  0.00  0.00    +0.000 C 
ATOM     25  C   UNL     1      -3.412  13.107  23.964  0.00  0.00    +0.000 C 
ENDBRANCH  16  23
ENDBRANCH  14  16
ENDBRANCH   1  14
BRANCH   1  26
ATOM     26  O   UNL     1      -0.971  10.363  19.553  0.00  0.00    +0.000 OA
BRANCH  26  27
ATOM     27  C   UNL     1      -1.075   9.924  18.194  0.00  0.00    +0.000 C 
BRANCH  27  28
ATOM     28  C   UNL     1      -2.283  10.455  17.448  0.00  0.00    +0.000 A 
ATOM     29  C   UNL     1      -3.255  11.264  18.051  0.00  0.00    +0.000 A 
ATOM     30  C   UNL     1      -4.381  11.681  17.330  0.00  0.00    +0.000 A 
ATOM     31  C   UNL     1      -4.547  11.289  15.997  0.00  0.00    +0.000 A 
ATOM     32  C   UNL     1      -3.584  10.494  15.383  0.00  0.00    +0.000 A 
ATOM     33  C   UNL     1      -2.461  10.082  16.103  0.00  0.00    +0.000 A 
ENDBRANCH  27  28
ENDBRANCH  26  27
ENDBRANCH   1  26
TORSDOF 8
ENDMDL
MODEL 8
REMARK VINA RESULT:      -7.6      5.093      8.595
REMARK  Name = 
REMARK  9 active torsions:
REMARK  status: ('A' for Active; 'I' for Inactive)
REMARK    1  A    between atoms: C_1  and  N_2
REMARK    2  A    between atoms: C_7  and  O_8
REMARK    3  A    between atoms: O_8  and  C_9
REMARK    4  A    between atoms: C_9  and  C_11
REMARK    5  A    between atoms: C_11  and  O_12
REMARK    6  A    between atoms: C_11  and  C_20
REMARK    7  A    between atoms: C_11  and  C_26
REMARK    8  A    between atoms: O_12  and  C_13
REMARK    9  A    between atoms: C_13  and  C_14
REMARK                            x       y       z     vdW  Elec       q    Type
REMARK                         _______ _______ _______ _____ _____    ______ ____
ROOT
ATOM      1  C   UNL     1       0.503  11.684  19.839  0.00  0.00    +0.000 C 
ENDROOT
BRANCH   1   2
ATOM      2  C   UNL     1       1.511  12.859  19.681  0.00  0.00    +0.000 A 
ATOM      3  C   UNL     1       2.456  13.153  20.687  0.00  0.00    +0.000 A 
ATOM      4  C   UNL     1       3.374  14.189  20.534  0.00  0.00    +0.000 A 
ATOM      5  C   UNL     1       3.325  14.992  19.401  0.00  0.00    +0.000 A 
ATOM      6  C   UNL     1       2.352  14.764  18.426  0.00  0.00    +0.000 A 
ATOM      7  C   UNL     1       1.449  13.712  18.566  0.00  0.00    +0.000 A 
ENDBRANCH   1   2
BRANCH   1   8
ATOM      8  C   UNL     1       1.125  10.284  19.542  0.00  0.00    +0.000 A 
ATOM      9  C   UNL     1       1.144   9.243  20.482  0.00  0.00    +0.000 A 
ATOM     10  C   UNL     1       1.683   7.995  20.150  0.00  0.00    +0.000 A 
ATOM     11  C   UNL     1       2.205   7.744  18.878  0.00  0.00    +0.000 A 
ATOM     12  C   UNL     1       2.167   8.745  17.919  0.00  0.00    +0.000 A 
ATOM     13  C   UNL     1       1.629   9.986  18.246  0.00  0.00    +0.000 A 
ENDBRANCH   1   8
BRANCH   1  14
ATOM     14  C   UNL     1      -0.050  11.868  21.335  0.00  0.00    +0.000 C 
ATOM     15  O   UNL     1       0.222  11.165  22.294  0.00  0.00    +0.000 OA
BRANCH  14  16
ATOM     16  O   UNL     1      -0.997  12.869  21.409  0.00  0.00    +0.000 OA
BRANCH  16  23
ATOM     17  C   UNL     1      -4.364  12.454  24.761  0.00  0.00    +0.000 C 
ATOM     18  N   UNL     1      -3.611  13.562  24.223  0.00  0.00    +0.000 NA
ATOM     19  C   UNL     1      -4.342  14.436  23.317  0.00  0.00    +0.000 C 
ATOM     20  C   UNL     1      -3.320  15.574  23.303  0.00  0.00    +0.000 C 
ATOM     21  C   UNL     1      -1.946  14.885  23.445  0.00  0.00    +0.000 C 
ATOM     22  C   UNL     1      -2.276  13.392  23.606  0.00  0.00    +0.000 C 
ATOM     23  C   UNL     1      -2.237  12.700  22.201  0.00  0.00    +0.000 C 
ATOM     24  C   UNL     1      -3.308  13.295  21.268  0.00  0.00    +0.000 C 
ATOM     25  C   UNL     1      -4.588  13.719  21.977  0.00  0.00    +0.000 C 
ENDBRANCH  16  23
ENDBRANCH  14  16
ENDBRANCH   1  14
BRANCH   1  26
ATOM     26  O   UNL     1      -0.651  11.873  18.953  0.00  0.00    +0.000 OA
BRANCH  26  27
ATOM     27  C   UNL     1      -1.671  10.869  19.005  0.00  0.00    +0.000 C 
BRANCH  27  28
ATOM     28  C   UNL     1      -2.431  10.673  17.708  0.00  0.00    +0.000 A 
ATOM     29  C   UNL     1      -1.953   9.876  16.659  0.00  0.00    +0.000 A 
ATOM     30  C   UNL     1      -2.670   9.774  15.460  0.00  0.00    +0.000 A 
ATOM     31  C   UNL     1      -3.871  10.473  15.297  0.00  0.00    +0.000 A 
ATOM     32  C   UNL     1      -4.361  11.260  16.334  0.00  0.00    +0.000 A 
ATOM     33  C   UNL     1      -3.647  11.358  17.530  0.00  0.00    +0.000 A 
ENDBRANCH  27  28
ENDBRANCH  26  27
ENDBRANCH   1  26
TORSDOF 8
ENDMDL
MODEL 9
REMARK VINA RESULT:      -7.6      5.180      8.677
REMARK  Name = 
REMARK  9 active torsions:
REMARK  status: ('A' for Active; 'I' for Inactive)
REMARK    1  A    between atoms: C_1  and  N_2
REMARK    2  A    between atoms: C_7  and  O_8
REMARK    3  A    between atoms: O_8  and  C_9
REMARK    4  A    between atoms: C_9  and  C_11
REMARK    5  A    between atoms: C_11  and  O_12
REMARK    6  A    between atoms: C_11  and  C_20
REMARK    7  A    between atoms: C_11  and  C_26
REMARK    8  A    between atoms: O_12  and  C_13
REMARK    9  A    between atoms: C_13  and  C_14
REMARK                            x       y       z     vdW  Elec       q    Type
REMARK                         _______ _______ _______ _____ _____    ______ ____
ROOT
ATOM      1  C   UNL     1       0.466  11.812  19.898  0.00  0.00    +0.000 C 
ENDROOT
BRANCH   1   2
ATOM      2  C   UNL     1       1.456  13.002  19.743  0.00  0.00    +0.000 A 
ATOM      3  C   UNL     1       1.400  13.859  18.622  0.00  0.00    +0.000 A 
ATOM      4  C   UNL     1       2.270  14.939  18.496  0.00  0.00    +0.000 A 
ATOM      5  C   UNL     1       3.254  15.147  19.455  0.00  0.00    +0.000 A 
ATOM      6  C   UNL     1       3.373  14.270  20.535  0.00  0.00    +0.000 A 
ATOM      7  C   UNL     1       2.487  13.205  20.676  0.00  0.00    +0.000 A 
ENDBRANCH   1   2
BRANCH   1   8
ATOM      8  C   UNL     1       1.089  10.430  19.526  0.00  0.00    +0.000 A 
ATOM      9  C   UNL     1       1.096   9.336  20.404  0.00  0.00    +0.000 A 
ATOM     10  C   UNL     1       1.636   8.108  20.006  0.00  0.00    +0.000 A 
ATOM     11  C   UNL     1       2.169   7.930  18.726  0.00  0.00    +0.000 A 
ATOM     12  C   UNL     1       2.142   8.984  17.827  0.00  0.00    +0.000 A 
ATOM     13  C   UNL     1       1.604  10.206  18.219  0.00  0.00    +0.000 A 
ENDBRANCH   1   8
BRANCH   1  14
ATOM     14  C   UNL     1      -0.030  11.936  21.420  0.00  0.00    +0.000 C 
ATOM     15  O   UNL     1       0.212  11.150  22.322  0.00  0.00    +0.000 OA
BRANCH  14  16
ATOM     16  O   UNL     1      -0.892  13.000  21.590  0.00  0.00    +0.000 OA
BRANCH  16  23
ATOM     17  C   UNL     1      -4.478  12.444  24.684  0.00  0.00    +0.000 C 
ATOM     18  N   UNL     1      -3.608  13.543  24.340  0.00  0.00    +0.000 NA
ATOM     19  C   UNL     1      -4.209  14.590  23.526  0.00  0.00    +0.000 C 
ATOM     20  C   UNL     1      -3.101  15.626  23.718  0.00  0.00    +0.000 C 
ATOM     21  C   UNL     1      -1.797  14.806  23.832  0.00  0.00    +0.000 C 
ATOM     22  C   UNL     1      -2.255  13.340  23.772  0.00  0.00    +0.000 C 
ATOM     23  C   UNL     1      -2.187  12.838  22.289  0.00  0.00    +0.000 C 
ATOM     24  C   UNL     1      -3.149  13.642  21.394  0.00  0.00    +0.000 C 
ATOM     25  C   UNL     1      -4.431  14.080  22.091  0.00  0.00    +0.000 C 
ENDBRANCH  16  23
ENDBRANCH  14  16
ENDBRANCH   1  14
BRANCH   1  26
ATOM     26  O   UNL     1      -0.723  12.021  19.065  0.00  0.00    +0.000 OA
BRANCH  26  27
ATOM     27  C   UNL     1      -1.699  10.972  19.064  0.00  0.00    +0.000 C 
BRANCH  27  28
ATOM     28  C   UNL     1      -2.477  10.834  17.770  0.00  0.00    +0.000 A 
ATOM     29  C   UNL     1      -3.706  11.468  17.548  0.00  0.00    +0.000 A 
ATOM     30  C   UNL     1      -4.408  11.262  16.354  0.00  0.00    +0.000 A 
ATOM     31  C   UNL     1      -3.889  10.413  15.371  0.00  0.00    +0.000 A 
ATOM     32  C   UNL     1      -2.664   9.783  15.574  0.00  0.00    +0.000 A 
ATOM     33  C   UNL     1      -1.964   9.994  16.764  0.00  0.00    +0.000 A 
ENDBRANCH  27  28
ENDBRANCH  26  27
ENDBRANCH   1  26
TORSDOF 8
ENDMDL
