MODEL 1
REMARK VINA RESULT:      -7.1      0.000      0.000
REMARK  Name = 
REMARK  13 active torsions:
REMARK  status: ('A' for Active; 'I' for Inactive)
REMARK    1  A    between atoms: C_1  and  C_2
REMARK    2  A    between atoms: C_2  and  C_3
REMARK    3  A    between atoms: C_2  and  C_4
REMARK    4  A    between atoms: C_4  and  C_5
REMARK    5  A    between atoms: C_5  and  C_6
REMARK    6  A    between atoms: N_9  and  C_10
REMARK    7  A    between atoms: C_10  and  C_11
REMARK    8  A    between atoms: C_11  and  C_12
REMARK    9  A    between atoms: C_11  and  C_13
REMARK   10  A    between atoms: N_16  and  C_17
REMARK   11  A    between atoms: C_17  and  C_18
REMARK   12  A    between atoms: C_18  and  C_19
REMARK   13  A    between atoms: C_18  and  C_20
REMARK                            x       y       z     vdW  Elec       q    Type
REMARK                         _______ _______ _______ _____ _____    ______ ____
ROOT
ATOM      1  C   UNL     1       7.251   6.531  17.732  0.00  0.00    +0.000 A 
ATOM      2  N   UNL     1       6.240   6.066  18.464  0.00  0.00    +0.000 NA
ATOM      3  C   UNL     1       5.498   5.136  17.880  0.00  0.00    +0.000 A 
ATOM      4  N   UNL     1       4.491   4.491  18.593  0.00  0.00    +0.000 N 
ATOM      5  N   UNL     1       5.683   4.714  16.637  0.00  0.00    +0.000 NA
ATOM      6  C   UNL     1       6.673   5.280  15.961  0.00  0.00    +0.000 A 
ATOM      7  N   UNL     1       6.863   4.982  14.619  0.00  0.00    +0.000 N 
ATOM      8  N   UNL     1       7.531   6.138  16.492  0.00  0.00    +0.000 NA
ATOM      9  H   UNL     1       4.831   3.561  18.800  0.00  0.00    +0.000 HD
ATOM     10  H   UNL     1       7.762   4.530  14.520  0.00  0.00    +0.000 HD
ENDROOT
BRANCH   1  11
ATOM     11  C   UNL     1       8.121   7.602  18.336  0.00  0.00    +0.000 C 
BRANCH  11  12
ATOM     12  C   UNL     1       7.885   8.963  17.678  0.00  0.00    +0.000 C 
BRANCH  12  14
ATOM     13  C   UNL     1       8.358  11.428  17.745  0.00  0.00    +0.000 C 
ATOM     14  C   UNL     1       8.897  10.041  18.110  0.00  0.00    +0.000 C 
ATOM     15  C   UNL     1       9.213   9.990  19.606  0.00  0.00    +0.000 C 
ENDBRANCH  12  14
ENDBRANCH  11  12
ENDBRANCH   1  11
BRANCH   4  16
ATOM     16  C   UNL     1       3.970   5.215  19.740  0.00  0.00    +0.000 C 
BRANCH  16  17
ATOM     17  C   UNL     1       2.897   4.369  20.453  0.00  0.00    +0.000 C 
ATOM     18  C   UNL     1       1.599   5.169  20.567  0.00  0.00    +0.000 C 
ATOM     19  C   UNL     1       2.626   3.043  19.737  0.00  0.00    +0.000 C 
ENDBRANCH  16  17
ENDBRANCH   4  16
BRANCH   7  20
ATOM     20  C   UNL     1       5.745   4.367  13.926  0.00  0.00    +0.000 C 
BRANCH  20  21
ATOM     21  C   UNL     1       6.238   3.553  12.715  0.00  0.00    +0.000 C 
ATOM     22  C   UNL     1       5.050   3.175  11.824  0.00  0.00    +0.000 C 
ATOM     23  C   UNL     1       7.285   4.301  11.885  0.00  0.00    +0.000 C 
ENDBRANCH  20  21
ENDBRANCH   7  20
TORSDOF 7
ENDMDL
MODEL 2
REMARK VINA RESULT:      -7.1      1.465      2.136
REMARK  Name = 
REMARK  13 active torsions:
REMARK  status: ('A' for Active; 'I' for Inactive)
REMARK    1  A    between atoms: C_1  and  C_2
REMARK    2  A    between atoms: C_2  and  C_3
REMARK    3  A    between atoms: C_2  and  C_4
REMARK    4  A    between atoms: C_4  and  C_5
REMARK    5  A    between atoms: C_5  and  C_6
REMARK    6  A    between atoms: N_9  and  C_10
REMARK    7  A    between atoms: C_10  and  C_11
REMARK    8  A    between atoms: C_11  and  C_12
REMARK    9  A    between atoms: C_11  and  C_13
REMARK   10  A    between atoms: N_16  and  C_17
REMARK   11  A    between atoms: C_17  and  C_18
REMARK   12  A    between atoms: C_18  and  C_19
REMARK   13  A    between atoms: C_18  and  C_20
REMARK                            x       y       z     vdW  Elec       q    Type
REMARK                         _______ _______ _______ _____ _____    ______ ____
ROOT
ATOM      1  C   UNL     1       7.052   4.535  17.645  0.00  0.00    +0.000 A 
ATOM      2  N   UNL     1       5.914   4.275  18.287  0.00  0.00    +0.000 NA
ATOM      3  C   UNL     1       4.949   3.752  17.543  0.00  0.00    +0.000 A 
ATOM      4  N   UNL     1       3.761   3.327  18.130  0.00  0.00    +0.000 N 
ATOM      5  N   UNL     1       5.054   3.541  16.239  0.00  0.00    +0.000 NA
ATOM      6  C   UNL     1       6.201   3.890  15.672  0.00  0.00    +0.000 A 
ATOM      7  N   UNL     1       6.351   3.811  14.295  0.00  0.00    +0.000 N 
ATOM      8  N   UNL     1       7.255   4.320  16.347  0.00  0.00    +0.000 NA
ATOM      9  H   UNL     1       3.789   2.316  18.145  0.00  0.00    +0.000 HD
ATOM     10  H   UNL     1       7.072   3.130  14.094  0.00  0.00    +0.000 HD
ENDROOT
BRANCH   1  11
ATOM     11  C   UNL     1       8.179   5.145  18.434  0.00  0.00    +0.000 C 
BRANCH  11  12
ATOM     12  C   UNL     1       7.864   6.581  18.857  0.00  0.00    +0.000 C 
BRANCH  12  14
ATOM     13  C   UNL     1       6.276   7.661  17.239  0.00  0.00    +0.000 C 
ATOM     14  C   UNL     1       7.741   7.561  17.675  0.00  0.00    +0.000 C 
ATOM     15  C   UNL     1       8.275   8.956  18.005  0.00  0.00    +0.000 C 
ENDBRANCH  12  14
ENDBRANCH  11  12
ENDBRANCH   1  11
BRANCH   4  16
ATOM     16  C   UNL     1       3.435   3.943  19.406  0.00  0.00    +0.000 C 
BRANCH  16  17
ATOM     17  C   UNL     1       1.991   4.479  19.378  0.00  0.00    +0.000 C 
ATOM     18  C   UNL     1       1.429   4.379  17.960  0.00  0.00    +0.000 C 
ATOM     19  C   UNL     1       1.072   3.737  20.352  0.00  0.00    +0.000 C 
ENDBRANCH  16  17
ENDBRANCH   4  16
BRANCH   7  20
ATOM     20  C   UNL     1       5.131   3.719  13.512  0.00  0.00    +0.000 C 
BRANCH  20  21
ATOM     21  C   UNL     1       5.458   3.520  12.019  0.00  0.00    +0.000 C 
ATOM     22  C   UNL     1       6.506   2.414  11.859  0.00  0.00    +0.000 C 
ATOM     23  C   UNL     1       4.222   3.181  11.182  0.00  0.00    +0.000 C 
ENDBRANCH  20  21
ENDBRANCH   7  20
TORSDOF 7
ENDMDL
MODEL 3
REMARK VINA RESULT:      -7.0      1.311      1.847
REMARK  Name = 
REMARK  13 active torsions:
REMARK  status: ('A' for Active; 'I' for Inactive)
REMARK    1  A    between atoms: C_1  and  C_2
REMARK    2  A    between atoms: C_2  and  C_3
REMARK    3  A    between atoms: C_2  and  C_4
REMARK    4  A    between atoms: C_4  and  C_5
REMARK    5  A    between atoms: C_5  and  C_6
REMARK    6  A    between atoms: N_9  and  C_10
REMARK    7  A    between atoms: C_10  and  C_11
REMARK    8  A    between atoms: C_11  and  C_12
REMARK    9  A    between atoms: C_11  and  C_13
REMARK   10  A    between atoms: N_16  and  C_17
REMARK   11  A    between atoms: C_17  and  C_18
REMARK   12  A    between atoms: C_18  and  C_19
REMARK   13  A    between atoms: C_18  and  C_20
REMARK                            x       y       z     vdW  Elec       q    Type
REMARK                         _______ _______ _______ _____ _____    ______ ____
ROOT
ATOM      1  C   UNL     1       7.165   4.647  17.817  0.00  0.00    +0.000 A 
ATOM      2  N   UNL     1       6.030   4.286  18.412  0.00  0.00    +0.000 NA
ATOM      3  C   UNL     1       5.109   3.768  17.610  0.00  0.00    +0.000 A 
ATOM      4  N   UNL     1       3.933   3.244  18.137  0.00  0.00    +0.000 N 
ATOM      5  N   UNL     1       5.252   3.654  16.297  0.00  0.00    +0.000 NA
ATOM      6  C   UNL     1       6.390   4.100  15.784  0.00  0.00    +0.000 A 
ATOM      7  N   UNL     1       6.574   4.126  14.409  0.00  0.00    +0.000 N 
ATOM      8  N   UNL     1       7.407   4.534  16.513  0.00  0.00    +0.000 NA
ATOM      9  H   UNL     1       4.013   2.237  18.082  0.00  0.00    +0.000 HD
ATOM     10  H   UNL     1       7.333   3.497  14.179  0.00  0.00    +0.000 HD
ENDROOT
BRANCH   1  11
ATOM     11  C   UNL     1       8.243   5.257  18.674  0.00  0.00    +0.000 C 
BRANCH  11  12
ATOM     12  C   UNL     1       7.933   6.713  19.026  0.00  0.00    +0.000 C 
BRANCH  12  14
ATOM     13  C   UNL     1       6.406   7.714  17.301  0.00  0.00    +0.000 C 
ATOM     14  C   UNL     1       7.853   7.642  17.799  0.00  0.00    +0.000 C 
ATOM     15  C   UNL     1       8.366   9.053  18.091  0.00  0.00    +0.000 C 
ENDBRANCH  12  14
ENDBRANCH  11  12
ENDBRANCH   1  11
BRANCH   4  16
ATOM     16  C   UNL     1       3.549   3.751  19.444  0.00  0.00    +0.000 C 
BRANCH  16  17
ATOM     17  C   UNL     1       2.098   4.269  19.402  0.00  0.00    +0.000 C 
ATOM     18  C   UNL     1       2.012   5.624  20.106  0.00  0.00    +0.000 C 
ATOM     19  C   UNL     1       1.562   4.394  17.973  0.00  0.00    +0.000 C 
ENDBRANCH  16  17
ENDBRANCH   4  16
BRANCH   7  20
ATOM     20  C   UNL     1       5.377   4.027  13.592  0.00  0.00    +0.000 C 
BRANCH  20  21
ATOM     21  C   UNL     1       5.636   3.149  12.353  0.00  0.00    +0.000 C 
ATOM     22  C   UNL     1       4.439   3.226  11.400  0.00  0.00    +0.000 C 
ATOM     23  C   UNL     1       6.914   3.540  11.606  0.00  0.00    +0.000 C 
ENDBRANCH  20  21
ENDBRANCH   7  20
TORSDOF 7
ENDMDL
MODEL 4
REMARK VINA RESULT:      -7.0      0.981      5.980
REMARK  Name = 
REMARK  13 active torsions:
REMARK  status: ('A' for Active; 'I' for Inactive)
REMARK    1  A    between atoms: C_1  and  C_2
REMARK    2  A    between atoms: C_2  and  C_3
REMARK    3  A    between atoms: C_2  and  C_4
REMARK    4  A    between atoms: C_4  and  C_5
REMARK    5  A    between atoms: C_5  and  C_6
REMARK    6  A    between atoms: N_9  and  C_10
REMARK    7  A    between atoms: C_10  and  C_11
REMARK    8  A    between atoms: C_11  and  C_12
REMARK    9  A    between atoms: C_11  and  C_13
REMARK   10  A    between atoms: N_16  and  C_17
REMARK   11  A    between atoms: C_17  and  C_18
REMARK   12  A    between atoms: C_18  and  C_19
REMARK   13  A    between atoms: C_18  and  C_20
REMARK                            x       y       z     vdW  Elec       q    Type
REMARK                         _______ _______ _______ _____ _____    ______ ____
ROOT
ATOM      1  C   UNL     1       6.504   5.001  16.057  0.00  0.00    +0.000 A 
ATOM      2  N   UNL     1       5.654   4.679  17.030  0.00  0.00    +0.000 NA
ATOM      3  C   UNL     1       5.541   5.572  18.004  0.00  0.00    +0.000 A 
ATOM      4  N   UNL     1       4.595   5.399  19.009  0.00  0.00    +0.000 N 
ATOM      5  N   UNL     1       6.248   6.691  18.066  0.00  0.00    +0.000 NA
ATOM      6  C   UNL     1       7.117   6.899  17.086  0.00  0.00    +0.000 A 
ATOM      7  N   UNL     1       7.978   7.986  17.135  0.00  0.00    +0.000 N 
ATOM      8  N   UNL     1       7.225   6.120  16.021  0.00  0.00    +0.000 NA
ATOM      9  H   UNL     1       3.849   6.057  18.824  0.00  0.00    +0.000 HD
ATOM     10  H   UNL     1       7.762   8.595  16.356  0.00  0.00    +0.000 HD
ENDROOT
BRANCH   1  11
ATOM     11  C   UNL     1       6.687   4.019  14.931  0.00  0.00    +0.000 C 
BRANCH  11  12
ATOM     12  C   UNL     1       5.565   4.125  13.896  0.00  0.00    +0.000 C 
BRANCH  12  14
ATOM     13  C   UNL     1       4.616   3.394  11.690  0.00  0.00    +0.000 C 
ATOM     14  C   UNL     1       5.854   3.360  12.591  0.00  0.00    +0.000 C 
ATOM     15  C   UNL     1       7.057   3.920  11.831  0.00  0.00    +0.000 C 
ENDBRANCH  12  14
ENDBRANCH  11  12
ENDBRANCH   1  11
BRANCH   4  16
ATOM     16  C   UNL     1       4.155   4.031  19.230  0.00  0.00    +0.000 C 
BRANCH  16  17
ATOM     17  C   UNL     1       2.615   3.974  19.272  0.00  0.00    +0.000 C 
ATOM     18  C   UNL     1       2.038   4.595  17.999  0.00  0.00    +0.000 C 
ATOM     19  C   UNL     1       2.086   2.546  19.435  0.00  0.00    +0.000 C 
ENDBRANCH  16  17
ENDBRANCH   4  16
BRANCH   7  20
ATOM     20  C   UNL     1       8.151   8.620  18.430  0.00  0.00    +0.000 C 
BRANCH  20  21
ATOM     21  C   UNL     1       8.969   9.918  18.294  0.00  0.00    +0.000 C 
ATOM     22  C   UNL     1       8.107  11.012  17.653  0.00  0.00    +0.000 C 
ATOM     23  C   UNL     1       9.519  10.416  19.633  0.00  0.00    +0.000 C 
ENDBRANCH  20  21
ENDBRANCH   7  20
TORSDOF 7
ENDMDL
MODEL 5
REMARK VINA RESULT:      -7.0      0.632      1.172
REMARK  Name = 
REMARK  13 active torsions:
REMARK  status: ('A' for Active; 'I' for Inactive)
REMARK    1  A    between atoms: C_1  and  C_2
REMARK    2  A    between atoms: C_2  and  C_3
REMARK    3  A    between atoms: C_2  and  C_4
REMARK    4  A    between atoms: C_4  and  C_5
REMARK    5  A    between atoms: C_5  and  C_6
REMARK    6  A    between atoms: N_9  and  C_10
REMARK    7  A    between atoms: C_10  and  C_11
REMARK    8  A    between atoms: C_11  and  C_12
REMARK    9  A    between atoms: C_11  and  C_13
REMARK   10  A    between atoms: N_16  and  C_17
REMARK   11  A    between atoms: C_17  and  C_18
REMARK   12  A    between atoms: C_18  and  C_19
REMARK   13  A    between atoms: C_18  and  C_20
REMARK                            x       y       z     vdW  Elec       q    Type
REMARK                         _______ _______ _______ _____ _____    ______ ____
ROOT
ATOM      1  C   UNL     1       7.231   6.435  17.705  0.00  0.00    +0.000 A 
ATOM      2  N   UNL     1       6.242   5.913  18.428  0.00  0.00    +0.000 NA
ATOM      3  C   UNL     1       5.520   4.985  17.815  0.00  0.00    +0.000 A 
ATOM      4  N   UNL     1       4.539   4.284  18.510  0.00  0.00    +0.000 N 
ATOM      5  N   UNL     1       5.705   4.617  16.555  0.00  0.00    +0.000 NA
ATOM      6  C   UNL     1       6.672   5.238  15.892  0.00  0.00    +0.000 A 
ATOM      7  N   UNL     1       6.856   4.997  14.538  0.00  0.00    +0.000 N 
ATOM      8  N   UNL     1       7.510   6.098  16.448  0.00  0.00    +0.000 NA
ATOM      9  H   UNL     1       4.908   3.357  18.678  0.00  0.00    +0.000 HD
ATOM     10  H   UNL     1       7.767   4.575  14.413  0.00  0.00    +0.000 HD
ENDROOT
BRANCH   1  11
ATOM     11  C   UNL     1       8.076   7.506  18.342  0.00  0.00    +0.000 C 
BRANCH  11  12
ATOM     12  C   UNL     1       8.062   8.800  17.527  0.00  0.00    +0.000 C 
BRANCH  12  14
ATOM     13  C   UNL     1       9.474   9.945  19.260  0.00  0.00    +0.000 C 
ATOM     14  C   UNL     1       8.226  10.071  18.382  0.00  0.00    +0.000 C 
ATOM     15  C   UNL     1       8.318  11.344  17.538  0.00  0.00    +0.000 C 
ENDBRANCH  12  14
ENDBRANCH  11  12
ENDBRANCH   1  11
BRANCH   4  16
ATOM     16  C   UNL     1       4.010   4.948  19.690  0.00  0.00    +0.000 C 
BRANCH  16  17
ATOM     17  C   UNL     1       2.583   5.459  19.411  0.00  0.00    +0.000 C 
ATOM     18  C   UNL     1       1.941   4.623  18.303  0.00  0.00    +0.000 C 
ATOM     19  C   UNL     1       1.696   5.430  20.659  0.00  0.00    +0.000 C 
ENDBRANCH  16  17
ENDBRANCH   4  16
BRANCH   7  20
ATOM     20  C   UNL     1       5.748   4.377  13.832  0.00  0.00    +0.000 C 
BRANCH  20  21
ATOM     21  C   UNL     1       6.262   3.532  12.651  0.00  0.00    +0.000 C 
ATOM     22  C   UNL     1       5.086   3.103  11.766  0.00  0.00    +0.000 C 
ATOM     23  C   UNL     1       7.301   4.269  11.802  0.00  0.00    +0.000 C 
ENDBRANCH  20  21
ENDBRANCH   7  20
TORSDOF 7
ENDMDL
MODEL 6
REMARK VINA RESULT:      -7.0      3.273      6.934
REMARK  Name = 
REMARK  13 active torsions:
REMARK  status: ('A' for Active; 'I' for Inactive)
REMARK    1  A    between atoms: C_1  and  C_2
REMARK    2  A    between atoms: C_2  and  C_3
REMARK    3  A    between atoms: C_2  and  C_4
REMARK    4  A    between atoms: C_4  and  C_5
REMARK    5  A    between atoms: C_5  and  C_6
REMARK    6  A    between atoms: N_9  and  C_10
REMARK    7  A    between atoms: C_10  and  C_11
REMARK    8  A    between atoms: C_11  and  C_12
REMARK    9  A    between atoms: C_11  and  C_13
REMARK   10  A    between atoms: N_16  and  C_17
REMARK   11  A    between atoms: C_17  and  C_18
REMARK   12  A    between atoms: C_18  and  C_19
REMARK   13  A    between atoms: C_18  and  C_20
REMARK                            x       y       z     vdW  Elec       q    Type
REMARK                         _______ _______ _______ _____ _____    ______ ____
ROOT
ATOM      1  C   UNL     1       2.528   6.059  19.605  0.00  0.00    +0.000 A 
ATOM      2  N   UNL     1       1.920   7.175  19.206  0.00  0.00    +0.000 NA
ATOM      3  C   UNL     1       2.496   7.804  18.191  0.00  0.00    +0.000 A 
ATOM      4  N   UNL     1       1.884   8.911  17.612  0.00  0.00    +0.000 N 
ATOM      5  N   UNL     1       3.628   7.411  17.625  0.00  0.00    +0.000 NA
ATOM      6  C   UNL     1       4.198   6.325  18.130  0.00  0.00    +0.000 A 
ATOM      7  N   UNL     1       5.442   5.913  17.674  0.00  0.00    +0.000 N 
ATOM      8  N   UNL     1       3.646   5.573  19.069  0.00  0.00    +0.000 NA
ATOM      9  H   UNL     1       1.508   8.604  16.724  0.00  0.00    +0.000 HD
ATOM     10  H   UNL     1       5.334   5.007  17.238  0.00  0.00    +0.000 HD
ENDROOT
BRANCH   1  11
ATOM     11  C   UNL     1       1.929   5.309  20.764  0.00  0.00    +0.000 C 
BRANCH  11  12
ATOM     12  C   UNL     1       0.890   4.285  20.302  0.00  0.00    +0.000 C 
BRANCH  12  14
ATOM     13  C   UNL     1       1.766   2.151  19.310  0.00  0.00    +0.000 C 
ATOM     14  C   UNL     1       1.286   2.826  20.598  0.00  0.00    +0.000 C 
ATOM     15  C   UNL     1       2.370   2.713  21.672  0.00  0.00    +0.000 C 
ENDBRANCH  12  14
ENDBRANCH  11  12
ENDBRANCH   1  11
BRANCH   4  16
ATOM     16  C   UNL     1       0.938   9.620  18.457  0.00  0.00    +0.000 C 
BRANCH  16  17
ATOM     17  C   UNL     1       1.623  10.838  19.107  0.00  0.00    +0.000 C 
ATOM     18  C   UNL     1       2.264  11.710  18.027  0.00  0.00    +0.000 C 
ATOM     19  C   UNL     1       0.654  11.679  19.942  0.00  0.00    +0.000 C 
ENDBRANCH  16  17
ENDBRANCH   4  16
BRANCH   7  20
ATOM     20  C   UNL     1       6.227   6.896  16.948  0.00  0.00    +0.000 C 
BRANCH  20  21
ATOM     21  C   UNL     1       7.641   7.013  17.547  0.00  0.00    +0.000 C 
ATOM     22  C   UNL     1       7.964   8.482  17.837  0.00  0.00    +0.000 C 
ATOM     23  C   UNL     1       7.813   6.187  18.825  0.00  0.00    +0.000 C 
ENDBRANCH  20  21
ENDBRANCH   7  20
TORSDOF 7
ENDMDL
MODEL 7
REMARK VINA RESULT:      -6.9      3.436      5.530
REMARK  Name = 
REMARK  13 active torsions:
REMARK  status: ('A' for Active; 'I' for Inactive)
REMARK    1  A    between atoms: C_1  and  C_2
REMARK    2  A    between atoms: C_2  and  C_3
REMARK    3  A    between atoms: C_2  and  C_4
REMARK    4  A    between atoms: C_4  and  C_5
REMARK    5  A    between atoms: C_5  and  C_6
REMARK    6  A    between atoms: N_9  and  C_10
REMARK    7  A    between atoms: C_10  and  C_11
REMARK    8  A    between atoms: C_11  and  C_12
REMARK    9  A    between atoms: C_11  and  C_13
REMARK   10  A    between atoms: N_16  and  C_17
REMARK   11  A    between atoms: C_17  and  C_18
REMARK   12  A    between atoms: C_18  and  C_19
REMARK   13  A    between atoms: C_18  and  C_20
REMARK                            x       y       z     vdW  Elec       q    Type
REMARK                         _______ _______ _______ _____ _____    ______ ____
ROOT
ATOM      1  C   UNL     1       2.345   8.191  18.086  0.00  0.00    +0.000 A 
ATOM      2  N   UNL     1       2.126   7.294  19.046  0.00  0.00    +0.000 NA
ATOM      3  C   UNL     1       3.030   6.329  19.139  0.00  0.00    +0.000 A 
ATOM      4  N   UNL     1       2.970   5.408  20.180  0.00  0.00    +0.000 N 
ATOM      5  N   UNL     1       4.062   6.202  18.317  0.00  0.00    +0.000 NA
ATOM      6  C   UNL     1       4.165   7.104  17.351  0.00  0.00    +0.000 A 
ATOM      7  N   UNL     1       5.148   6.977  16.379  0.00  0.00    +0.000 N 
ATOM      8  N   UNL     1       3.375   8.160  17.243  0.00  0.00    +0.000 NA
ATOM      9  H   UNL     1       3.707   5.652  20.828  0.00  0.00    +0.000 HD
ATOM     10  H   UNL     1       5.774   7.768  16.458  0.00  0.00    +0.000 HD
ENDROOT
BRANCH   1  11
ATOM     11  C   UNL     1       1.344   9.302  17.921  0.00  0.00    +0.000 C 
BRANCH  11  12
ATOM     12  C   UNL     1       0.636   9.629  19.238  0.00  0.00    +0.000 C 
BRANCH  12  14
ATOM     13  C   UNL     1      -1.635  10.231  18.350  0.00  0.00    +0.000 C 
ATOM     14  C   UNL     1      -0.413  10.750  19.114  0.00  0.00    +0.000 C 
ATOM     15  C   UNL     1      -0.853  11.301  20.472  0.00  0.00    +0.000 C 
ENDBRANCH  12  14
ENDBRANCH  11  12
ENDBRANCH   1  11
BRANCH   4  16
ATOM     16  C   UNL     1       1.662   5.232  20.789  0.00  0.00    +0.000 C 
BRANCH  16  17
ATOM     17  C   UNL     1       1.283   3.738  20.801  0.00  0.00    +0.000 C 
ATOM     18  C   UNL     1       1.112   3.236  19.367  0.00  0.00    +0.000 C 
ATOM     19  C   UNL     1       2.318   2.877  21.530  0.00  0.00    +0.000 C 
ENDBRANCH  16  17
ENDBRANCH   4  16
BRANCH   7  20
ATOM     20  C   UNL     1       5.765   5.669  16.245  0.00  0.00    +0.000 C 
BRANCH  20  21
ATOM     21  C   UNL     1       7.235   5.712  16.703  0.00  0.00    +0.000 C 
ATOM     22  C   UNL     1       7.531   7.056  17.377  0.00  0.00    +0.000 C 
ATOM     23  C   UNL     1       7.592   4.570  17.657  0.00  0.00    +0.000 C 
ENDBRANCH  20  21
ENDBRANCH   7  20
TORSDOF 7
ENDMDL
MODEL 8
REMARK VINA RESULT:      -6.9      3.379      6.917
REMARK  Name = 
REMARK  13 active torsions:
REMARK  status: ('A' for Active; 'I' for Inactive)
REMARK    1  A    between atoms: C_1  and  C_2
REMARK    2  A    between atoms: C_2  and  C_3
REMARK    3  A    between atoms: C_2  and  C_4
REMARK    4  A    between atoms: C_4  and  C_5
REMARK    5  A    between atoms: C_5  and  C_6
REMARK    6  A    between atoms: N_9  and  C_10
REMARK    7  A    between atoms: C_10  and  C_11
REMARK    8  A    between atoms: C_11  and  C_12
REMARK    9  A    between atoms: C_11  and  C_13
REMARK   10  A    between atoms: N_16  and  C_17
REMARK   11  A    between atoms: C_17  and  C_18
REMARK   12  A    between atoms: C_18  and  C_19
REMARK   13  A    between atoms: C_18  and  C_20
REMARK                            x       y       z     vdW  Elec       q    Type
REMARK                         _______ _______ _______ _____ _____    ______ ____
ROOT
ATOM      1  C   UNL     1       2.355   6.003  19.811  0.00  0.00    +0.000 A 
ATOM      2  N   UNL     1       1.838   7.224  19.691  0.00  0.00    +0.000 NA
ATOM      3  C   UNL     1       2.349   7.964  18.717  0.00  0.00    +0.000 A 
ATOM      4  N   UNL     1       1.803   9.209  18.420  0.00  0.00    +0.000 N 
ATOM      5  N   UNL     1       3.343   7.571  17.934  0.00  0.00    +0.000 NA
ATOM      6  C   UNL     1       3.840   6.364  18.168  0.00  0.00    +0.000 A 
ATOM      7  N   UNL     1       4.956   5.921  17.473  0.00  0.00    +0.000 N 
ATOM      8  N   UNL     1       3.328   5.514  19.045  0.00  0.00    +0.000 NA
ATOM      9  H   UNL     1       1.282   9.101  17.560  0.00  0.00    +0.000 HD
ATOM     10  H   UNL     1       4.685   5.120  16.917  0.00  0.00    +0.000 HD
ENDROOT
BRANCH   1  11
ATOM     11  C   UNL     1       1.825   5.121  20.910  0.00  0.00    +0.000 C 
BRANCH  11  12
ATOM     12  C   UNL     1       0.875   4.050  20.371  0.00  0.00    +0.000 C 
BRANCH  12  14
ATOM     13  C   UNL     1       1.849   2.056  19.195  0.00  0.00    +0.000 C 
ATOM     14  C   UNL     1       1.400   2.612  20.549  0.00  0.00    +0.000 C 
ATOM     15  C   UNL     1       2.554   2.523  21.549  0.00  0.00    +0.000 C 
ENDBRANCH  12  14
ENDBRANCH  11  12
ENDBRANCH   1  11
BRANCH   4  16
ATOM     16  C   UNL     1       1.066   9.846  19.499  0.00  0.00    +0.000 C 
BRANCH  16  17
ATOM     17  C   UNL     1      -0.191  10.541  18.939  0.00  0.00    +0.000 C 
ATOM     18  C   UNL     1       0.113  12.013  18.659  0.00  0.00    +0.000 C 
ATOM     19  C   UNL     1      -0.713   9.870  17.666  0.00  0.00    +0.000 C 
ENDBRANCH  16  17
ENDBRANCH   4  16
BRANCH   7  20
ATOM     20  C   UNL     1       5.752   6.937  16.807  0.00  0.00    +0.000 C 
BRANCH  20  21
ATOM     21  C   UNL     1       7.229   6.835  17.232  0.00  0.00    +0.000 C 
ATOM     22  C   UNL     1       7.754   8.220  17.626  0.00  0.00    +0.000 C 
ATOM     23  C   UNL     1       7.447   5.854  18.387  0.00  0.00    +0.000 C 
ENDBRANCH  20  21
ENDBRANCH   7  20
TORSDOF 7
ENDMDL
MODEL 9
REMARK VINA RESULT:      -6.8      1.061      6.957
REMARK  Name = 
REMARK  13 active torsions:
REMARK  status: ('A' for Active; 'I' for Inactive)
REMARK    1  A    between atoms: C_1  and  C_2
REMARK    2  A    between atoms: C_2  and  C_3
REMARK    3  A    between atoms: C_2  and  C_4
REMARK    4  A    between atoms: C_4  and  C_5
REMARK    5  A    between atoms: C_5  and  C_6
REMARK    6  A    between atoms: N_9  and  C_10
REMARK    7  A    between atoms: C_10  and  C_11
REMARK    8  A    between atoms: C_11  and  C_12
REMARK    9  A    between atoms: C_11  and  C_13
REMARK   10  A    between atoms: N_16  and  C_17
REMARK   11  A    between atoms: C_17  and  C_18
REMARK   12  A    between atoms: C_18  and  C_19
REMARK   13  A    between atoms: C_18  and  C_20
REMARK                            x       y       z     vdW  Elec       q    Type
REMARK                         _______ _______ _______ _____ _____    ______ ____
ROOT
ATOM      1  C   UNL     1       5.971   4.687  18.110  0.00  0.00    +0.000 A 
ATOM      2  N   UNL     1       5.935   4.481  16.795  0.00  0.00    +0.000 NA
ATOM      3  C   UNL     1       6.687   5.298  16.071  0.00  0.00    +0.000 A 
ATOM      4  N   UNL     1       6.823   5.100  14.700  0.00  0.00    +0.000 N 
ATOM      5  N   UNL     1       7.394   6.297  16.580  0.00  0.00    +0.000 NA
ATOM      6  C   UNL     1       7.319   6.468  17.893  0.00  0.00    +0.000 A 
ATOM      7  N   UNL     1       7.934   7.558  18.492  0.00  0.00    +0.000 N 
ATOM      8  N   UNL     1       6.682   5.641  18.707  0.00  0.00    +0.000 NA
ATOM      9  H   UNL     1       7.748   4.719  14.552  0.00  0.00    +0.000 HD
ATOM     10  H   UNL     1       8.654   7.213  19.113  0.00  0.00    +0.000 HD
ENDROOT
BRANCH   1  11
ATOM     11  C   UNL     1       5.125   3.800  18.983  0.00  0.00    +0.000 C 
BRANCH  11  12
ATOM     12  C   UNL     1       3.740   4.401  19.231  0.00  0.00    +0.000 C 
BRANCH  12  14
ATOM     13  C   UNL     1       1.759   4.401  17.688  0.00  0.00    +0.000 C 
ATOM     14  C   UNL     1       2.587   3.555  18.659  0.00  0.00    +0.000 C 
ATOM     15  C   UNL     1       3.076   2.291  17.951  0.00  0.00    +0.000 C 
ENDBRANCH  12  14
ENDBRANCH  11  12
ENDBRANCH   1  11
BRANCH   4  16
ATOM     16  C   UNL     1       5.750   4.353  14.064  0.00  0.00    +0.000 C 
BRANCH  16  17
ATOM     17  C   UNL     1       6.280   3.644  12.802  0.00  0.00    +0.000 C 
ATOM     18  C   UNL     1       5.107   3.212  11.921  0.00  0.00    +0.000 C 
ATOM     19  C   UNL     1       7.237   4.524  11.994  0.00  0.00    +0.000 C 
ENDBRANCH  16  17
ENDBRANCH   4  16
BRANCH   7  20
ATOM     20  C   UNL     1       8.300   8.659  17.618  0.00  0.00    +0.000 C 
BRANCH  20  21
ATOM     21  C   UNL     1       8.321   9.987  18.398  0.00  0.00    +0.000 C 
ATOM     22  C   UNL     1       9.498   9.996  19.379  0.00  0.00    +0.000 C 
ATOM     23  C   UNL     1       8.407  11.211  17.482  0.00  0.00    +0.000 C 
ENDBRANCH  20  21
ENDBRANCH   7  20
TORSDOF 7
ENDMDL
