MODEL 1
REMARK VINA RESULT:      -7.4      0.000      0.000
REMARK  Name = 
REMARK  12 active torsions:
REMARK  status: ('A' for Active; 'I' for Inactive)
REMARK    1  A    between atoms: C_5  and  N_6
REMARK    2  A    between atoms: N_6  and  C_7
REMARK    3  A    between atoms: C_7  and  C_8
REMARK    4  A    between atoms: C_8  and  C_9
REMARK    5  A    between atoms: C_9  and  C_10
REMARK    6  A    between atoms: C_10  and  C_11
REMARK    7  A    between atoms: C_11  and  C_12
REMARK    8  A    between atoms: C_12  and  C_13
REMARK    9  A    between atoms: C_13  and  C_14
REMARK   10  A    between atoms: C_14  and  C_15
REMARK   11  A    between atoms: C_15  and  C_16
REMARK   12  A    between atoms: C_16  and  N_17
REMARK                            x       y       z     vdW  Elec       q    Type
REMARK                         _______ _______ _______ _____ _____    ______ ____
ROOT
ATOM      1  N   UNL     1       0.234   9.258  17.896  0.00  0.00    +0.000 N 
ATOM      2  H   UNL     1       0.043   8.280  18.103  0.00  0.00    +0.000 HD
ENDROOT
BRANCH   1   7
ATOM      3  C   UNL     1      -4.121  11.042  15.990  0.00  0.00    +0.000 A 
ATOM      4  C   UNL     1      -3.182  10.147  15.510  0.00  0.00    +0.000 A 
ATOM      5  C   UNL     1      -2.076   9.830  16.299  0.00  0.00    +0.000 A 
ATOM      6  C   UNL     1      -1.890  10.379  17.600  0.00  0.00    +0.000 A 
ATOM      7  C   UNL     1      -0.786  10.074  18.468  0.00  0.00    +0.000 A 
ATOM      8  C   UNL     1      -0.749  10.685  19.759  0.00  0.00    +0.000 A 
ATOM      9  C   UNL     1      -1.769  11.602  20.073  0.00  0.00    +0.000 A 
ATOM     10  N   UNL     1      -2.803  11.884  19.250  0.00  0.00    +0.000 NA
ATOM     11  C   UNL     1      -2.866  11.291  18.061  0.00  0.00    +0.000 A 
ATOM     12  C   UNL     1      -3.950  11.604  17.254  0.00  0.00    +0.000 A 
ATOM     13  C   UNL     1      -1.848  12.328  21.398  0.00  0.00    +0.000 C 
ATOM     14  C   UNL     1      -0.596  12.255  22.255  0.00  0.00    +0.000 C 
ATOM     15  C   UNL     1      -0.072  10.841  22.245  0.00  0.00    +0.000 C 
ATOM     16  C   UNL     1       0.310  10.450  20.820  0.00  0.00    +0.000 C 
ENDBRANCH   1   7
BRANCH   1  17
ATOM     17  C   UNL     1       1.628   9.559  18.100  0.00  0.00    +0.000 C 
BRANCH  17  18
ATOM     18  C   UNL     1       2.587   8.419  17.775  0.00  0.00    +0.000 C 
BRANCH  18  19
ATOM     19  C   UNL     1       2.011   7.103  18.333  0.00  0.00    +0.000 C 
BRANCH  19  20
ATOM     20  C   UNL     1       2.627   6.755  19.690  0.00  0.00    +0.000 C 
BRANCH  20  21
ATOM     21  C   UNL     1       1.879   5.684  20.456  0.00  0.00    +0.000 C 
BRANCH  21  22
ATOM     22  C   UNL     1       1.309   4.678  19.452  0.00  0.00    +0.000 C 
BRANCH  22  23
ATOM     23  C   UNL     1       2.289   3.546  19.242  0.00  0.00    +0.000 C 
BRANCH  23  24
ATOM     24  C   UNL     1       2.274   3.005  17.811  0.00  0.00    +0.000 C 
BRANCH  24  25
ATOM     25  C   UNL     1       3.428   3.675  17.080  0.00  0.00    +0.000 C 
BRANCH  25  26
ATOM     26  C   UNL     1       4.607   4.083  17.959  0.00  0.00    +0.000 C 
BRANCH  26  27
ATOM     27  N   UNL     1       5.233   5.315  17.442  0.00  0.00    +0.000 NA
ATOM     28  C   UNL     1       5.475   5.235  15.985  0.00  0.00    +0.000 C 
ATOM     29  C   UNL     1       6.665   4.338  15.587  0.00  0.00    +0.000 C 
ATOM     30  O   UNL     1       7.863   4.634  16.318  0.00  0.00    +0.000 OA
ATOM     31  C   UNL     1       7.625   4.629  17.731  0.00  0.00    +0.000 C 
ATOM     32  C   UNL     1       6.530   5.643  18.078  0.00  0.00    +0.000 C 
ENDBRANCH  26  27
ENDBRANCH  25  26
ENDBRANCH  24  25
ENDBRANCH  23  24
ENDBRANCH  22  23
ENDBRANCH  21  22
ENDBRANCH  20  21
ENDBRANCH  19  20
ENDBRANCH  18  19
ENDBRANCH  17  18
ENDBRANCH   1  17
TORSDOF 12
ENDMDL
MODEL 2
REMARK VINA RESULT:      -7.2      3.937     10.131
REMARK  Name = 
REMARK  12 active torsions:
REMARK  status: ('A' for Active; 'I' for Inactive)
REMARK    1  A    between atoms: C_5  and  N_6
REMARK    2  A    between atoms: N_6  and  C_7
REMARK    3  A    between atoms: C_7  and  C_8
REMARK    4  A    between atoms: C_8  and  C_9
REMARK    5  A    between atoms: C_9  and  C_10
REMARK    6  A    between atoms: C_10  and  C_11
REMARK    7  A    between atoms: C_11  and  C_12
REMARK    8  A    between atoms: C_12  and  C_13
REMARK    9  A    between atoms: C_13  and  C_14
REMARK   10  A    between atoms: C_14  and  C_15
REMARK   11  A    between atoms: C_15  and  C_16
REMARK   12  A    between atoms: C_16  and  N_17
REMARK                            x       y       z     vdW  Elec       q    Type
REMARK                         _______ _______ _______ _____ _____    ______ ____
ROOT
ATOM      1  N   UNL     1       2.893   7.189  18.805  0.00  0.00    +0.000 N 
ATOM      2  H   UNL     1       2.894   7.301  19.816  0.00  0.00    +0.000 HD
ENDROOT
BRANCH   1   7
ATOM      3  C   UNL     1       5.787   5.025  15.237  0.00  0.00    +0.000 A 
ATOM      4  C   UNL     1       5.641   6.333  15.663  0.00  0.00    +0.000 A 
ATOM      5  C   UNL     1       4.764   6.615  16.711  0.00  0.00    +0.000 A 
ATOM      6  C   UNL     1       4.027   5.596  17.378  0.00  0.00    +0.000 A 
ATOM      7  C   UNL     1       3.128   5.821  18.477  0.00  0.00    +0.000 A 
ATOM      8  C   UNL     1       2.478   4.692  19.062  0.00  0.00    +0.000 A 
ATOM      9  C   UNL     1       2.711   3.432  18.480  0.00  0.00    +0.000 A 
ATOM     10  N   UNL     1       3.557   3.231  17.446  0.00  0.00    +0.000 NA
ATOM     11  C   UNL     1       4.197   4.271  16.919  0.00  0.00    +0.000 A 
ATOM     12  C   UNL     1       5.062   4.015  15.865  0.00  0.00    +0.000 A 
ATOM     13  C   UNL     1       2.081   2.155  18.991  0.00  0.00    +0.000 C 
ATOM     14  C   UNL     1       0.936   2.343  19.971  0.00  0.00    +0.000 C 
ATOM     15  C   UNL     1       1.312   3.406  20.974  0.00  0.00    +0.000 C 
ATOM     16  C   UNL     1       1.533   4.732  20.250  0.00  0.00    +0.000 C 
ENDBRANCH   1   7
BRANCH   1  17
ATOM     17  C   UNL     1       1.802   7.918  18.213  0.00  0.00    +0.000 C 
BRANCH  17  18
ATOM     18  C   UNL     1       2.151   9.322  17.731  0.00  0.00    +0.000 C 
BRANCH  18  19
ATOM     19  C   UNL     1       1.412  10.352  18.606  0.00  0.00    +0.000 C 
BRANCH  19  20
ATOM     20  C   UNL     1      -0.071  10.001  18.749  0.00  0.00    +0.000 C 
BRANCH  20  21
ATOM     21  C   UNL     1      -0.626  10.199  20.145  0.00  0.00    +0.000 C 
BRANCH  21  22
ATOM     22  C   UNL     1       0.297   9.488  21.139  0.00  0.00    +0.000 C 
BRANCH  22  23
ATOM     23  C   UNL     1       0.332  10.248  22.445  0.00  0.00    +0.000 C 
BRANCH  23  24
ATOM     24  C   UNL     1      -1.059  10.478  23.035  0.00  0.00    +0.000 C 
BRANCH  24  25
ATOM     25  C   UNL     1      -1.312  11.977  22.984  0.00  0.00    +0.000 C 
BRANCH  25  26
ATOM     26  C   UNL     1      -2.644  12.392  22.365  0.00  0.00    +0.000 C 
BRANCH  26  27
ATOM     27  N   UNL     1      -3.197  13.565  23.071  0.00  0.00    +0.000 NA
ATOM     28  C   UNL     1      -3.475  13.267  24.492  0.00  0.00    +0.000 C 
ATOM     29  C   UNL     1      -4.730  12.402  24.727  0.00  0.00    +0.000 C 
ATOM     30  O   UNL     1      -5.890  12.896  24.043  0.00  0.00    +0.000 OA
ATOM     31  C   UNL     1      -5.623  13.104  22.651  0.00  0.00    +0.000 C 
ATOM     32  C   UNL     1      -4.455  14.081  22.484  0.00  0.00    +0.000 C 
ENDBRANCH  26  27
ENDBRANCH  25  26
ENDBRANCH  24  25
ENDBRANCH  23  24
ENDBRANCH  22  23
ENDBRANCH  21  22
ENDBRANCH  20  21
ENDBRANCH  19  20
ENDBRANCH  18  19
ENDBRANCH  17  18
ENDBRANCH   1  17
TORSDOF 12
ENDMDL
MODEL 3
REMARK VINA RESULT:      -7.2      4.189     10.392
REMARK  Name = 
REMARK  12 active torsions:
REMARK  status: ('A' for Active; 'I' for Inactive)
REMARK    1  A    between atoms: C_5  and  N_6
REMARK    2  A    between atoms: N_6  and  C_7
REMARK    3  A    between atoms: C_7  and  C_8
REMARK    4  A    between atoms: C_8  and  C_9
REMARK    5  A    between atoms: C_9  and  C_10
REMARK    6  A    between atoms: C_10  and  C_11
REMARK    7  A    between atoms: C_11  and  C_12
REMARK    8  A    between atoms: C_12  and  C_13
REMARK    9  A    between atoms: C_13  and  C_14
REMARK   10  A    between atoms: C_14  and  C_15
REMARK   11  A    between atoms: C_15  and  C_16
REMARK   12  A    between atoms: C_16  and  N_17
REMARK                            x       y       z     vdW  Elec       q    Type
REMARK                         _______ _______ _______ _____ _____    ______ ____
ROOT
ATOM      1  N   UNL     1       2.829   7.250  18.630  0.00  0.00    +0.000 N 
ATOM      2  H   UNL     1       2.290   7.353  19.487  0.00  0.00    +0.000 HD
ENDROOT
BRANCH   1   7
ATOM      3  C   UNL     1       5.779   4.927  15.211  0.00  0.00    +0.000 A 
ATOM      4  C   UNL     1       5.574   6.258  15.526  0.00  0.00    +0.000 A 
ATOM      5  C   UNL     1       4.698   6.588  16.561  0.00  0.00    +0.000 A 
ATOM      6  C   UNL     1       4.022   5.596  17.326  0.00  0.00    +0.000 A 
ATOM      7  C   UNL     1       3.127   5.871  18.417  0.00  0.00    +0.000 A 
ATOM      8  C   UNL     1       2.541   4.767  19.109  0.00  0.00    +0.000 A 
ATOM      9  C   UNL     1       2.830   3.475  18.633  0.00  0.00    +0.000 A 
ATOM     10  N   UNL     1       3.671   3.225  17.606  0.00  0.00    +0.000 NA
ATOM     11  C   UNL     1       4.251   4.245  16.979  0.00  0.00    +0.000 A 
ATOM     12  C   UNL     1       5.114   3.941  15.937  0.00  0.00    +0.000 A 
ATOM     13  C   UNL     1       2.270   2.218  19.263  0.00  0.00    +0.000 C 
ATOM     14  C   UNL     1       1.131   2.435  20.244  0.00  0.00    +0.000 C 
ATOM     15  C   UNL     1       1.467   3.598  21.144  0.00  0.00    +0.000 C 
ATOM     16  C   UNL     1       1.612   4.865  20.305  0.00  0.00    +0.000 C 
ENDBRANCH   1   7
BRANCH   1  17
ATOM     17  C   UNL     1       2.273   8.061  17.578  0.00  0.00    +0.000 C 
BRANCH  17  18
ATOM     18  C   UNL     1       2.098   9.535  17.925  0.00  0.00    +0.000 C 
BRANCH  18  19
ATOM     19  C   UNL     1       0.730   9.732  18.606  0.00  0.00    +0.000 C 
BRANCH  19  20
ATOM     20  C   UNL     1       0.887  10.018  20.101  0.00  0.00    +0.000 C 
BRANCH  20  21
ATOM     21  C   UNL     1      -0.365   9.768  20.917  0.00  0.00    +0.000 C 
BRANCH  21  22
ATOM     22  C   UNL     1       0.031   9.656  22.392  0.00  0.00    +0.000 C 
BRANCH  22  23
ATOM     23  C   UNL     1      -0.953  10.418  23.249  0.00  0.00    +0.000 C 
BRANCH  23  24
ATOM     24  C   UNL     1      -1.161  11.858  22.777  0.00  0.00    +0.000 C 
BRANCH  24  25
ATOM     25  C   UNL     1      -2.547  12.274  23.245  0.00  0.00    +0.000 C 
BRANCH  25  26
ATOM     26  C   UNL     1      -3.514  12.682  22.136  0.00  0.00    +0.000 C 
BRANCH  26  27
ATOM     27  N   UNL     1      -4.904  12.378  22.527  0.00  0.00    +0.000 NA
ATOM     28  C   UNL     1      -5.861  12.719  21.453  0.00  0.00    +0.000 C 
ATOM     29  C   UNL     1      -6.125  14.230  21.292  0.00  0.00    +0.000 C 
ATOM     30  O   UNL     1      -6.449  14.880  22.530  0.00  0.00    +0.000 OA
ATOM     31  C   UNL     1      -5.468  14.601  23.536  0.00  0.00    +0.000 C 
ATOM     32  C   UNL     1      -5.353  13.088  23.747  0.00  0.00    +0.000 C 
ENDBRANCH  26  27
ENDBRANCH  25  26
ENDBRANCH  24  25
ENDBRANCH  23  24
ENDBRANCH  22  23
ENDBRANCH  21  22
ENDBRANCH  20  21
ENDBRANCH  19  20
ENDBRANCH  18  19
ENDBRANCH  17  18
ENDBRANCH   1  17
TORSDOF 12
ENDMDL
MODEL 4
REMARK VINA RESULT:      -7.2      4.343     10.549
REMARK  Name = 
REMARK  12 active torsions:
REMARK  status: ('A' for Active; 'I' for Inactive)
REMARK    1  A    between atoms: C_5  and  N_6
REMARK    2  A    between atoms: N_6  and  C_7
REMARK    3  A    between atoms: C_7  and  C_8
REMARK    4  A    between atoms: C_8  and  C_9
REMARK    5  A    between atoms: C_9  and  C_10
REMARK    6  A    between atoms: C_10  and  C_11
REMARK    7  A    between atoms: C_11  and  C_12
REMARK    8  A    between atoms: C_12  and  C_13
REMARK    9  A    between atoms: C_13  and  C_14
REMARK   10  A    between atoms: C_14  and  C_15
REMARK   11  A    between atoms: C_15  and  C_16
REMARK   12  A    between atoms: C_16  and  N_17
REMARK                            x       y       z     vdW  Elec       q    Type
REMARK                         _______ _______ _______ _____ _____    ______ ____
ROOT
ATOM      1  N   UNL     1       2.324   6.578  17.709  0.00  0.00    +0.000 N 
ATOM      2  H   UNL     1       2.512   6.799  16.734  0.00  0.00    +0.000 HD
ENDROOT
BRANCH   1   7
ATOM      3  C   UNL     1       1.983   2.332  20.474  0.00  0.00    +0.000 A 
ATOM      4  C   UNL     1       1.035   3.145  19.879  0.00  0.00    +0.000 A 
ATOM      5  C   UNL     1       1.453   4.255  19.143  0.00  0.00    +0.000 A 
ATOM      6  C   UNL     1       2.829   4.568  18.961  0.00  0.00    +0.000 A 
ATOM      7  C   UNL     1       3.321   5.682  18.196  0.00  0.00    +0.000 A 
ATOM      8  C   UNL     1       4.735   5.853  18.081  0.00  0.00    +0.000 A 
ATOM      9  C   UNL     1       5.558   4.953  18.782  0.00  0.00    +0.000 A 
ATOM     10  N   UNL     1       5.087   3.910  19.500  0.00  0.00    +0.000 NA
ATOM     11  C   UNL     1       3.773   3.720  19.581  0.00  0.00    +0.000 A 
ATOM     12  C   UNL     1       3.335   2.631  20.321  0.00  0.00    +0.000 A 
ATOM     13  C   UNL     1       7.069   5.024  18.758  0.00  0.00    +0.000 C 
ATOM     14  C   UNL     1       7.651   6.307  18.190  0.00  0.00    +0.000 C 
ATOM     15  C   UNL     1       6.897   6.680  16.938  0.00  0.00    +0.000 C 
ATOM     16  C   UNL     1       5.433   6.940  17.283  0.00  0.00    +0.000 C 
ENDBRANCH   1   7
BRANCH   1  17
ATOM     17  C   UNL     1       1.973   7.767  18.442  0.00  0.00    +0.000 C 
BRANCH  17  18
ATOM     18  C   UNL     1       2.201   9.075  17.694  0.00  0.00    +0.000 C 
BRANCH  18  19
ATOM     19  C   UNL     1       1.525  10.223  18.469  0.00  0.00    +0.000 C 
BRANCH  19  20
ATOM     20  C   UNL     1       0.545   9.687  19.516  0.00  0.00    +0.000 C 
BRANCH  20  21
ATOM     21  C   UNL     1       0.772  10.226  20.913  0.00  0.00    +0.000 C 
BRANCH  21  22
ATOM     22  C   UNL     1       0.204   9.221  21.919  0.00  0.00    +0.000 C 
BRANCH  22  23
ATOM     23  C   UNL     1      -0.497   9.953  23.041  0.00  0.00    +0.000 C 
BRANCH  23  24
ATOM     24  C   UNL     1      -0.868  11.390  22.671  0.00  0.00    +0.000 C 
BRANCH  24  25
ATOM     25  C   UNL     1      -2.194  11.687  23.353  0.00  0.00    +0.000 C 
BRANCH  25  26
ATOM     26  C   UNL     1      -2.710  13.113  23.182  0.00  0.00    +0.000 C 
BRANCH  26  27
ATOM     27  N   UNL     1      -3.450  13.541  24.384  0.00  0.00    +0.000 NA
ATOM     28  C   UNL     1      -4.630  12.684  24.634  0.00  0.00    +0.000 C 
ATOM     29  C   UNL     1      -5.816  12.942  23.682  0.00  0.00    +0.000 C 
ATOM     30  O   UNL     1      -6.168  14.330  23.584  0.00  0.00    +0.000 OA
ATOM     31  C   UNL     1      -5.026  15.134  23.265  0.00  0.00    +0.000 C 
ATOM     32  C   UNL     1      -3.937  14.939  24.324  0.00  0.00    +0.000 C 
ENDBRANCH  26  27
ENDBRANCH  25  26
ENDBRANCH  24  25
ENDBRANCH  23  24
ENDBRANCH  22  23
ENDBRANCH  21  22
ENDBRANCH  20  21
ENDBRANCH  19  20
ENDBRANCH  18  19
ENDBRANCH  17  18
ENDBRANCH   1  17
TORSDOF 12
ENDMDL
MODEL 5
REMARK VINA RESULT:      -7.1      4.207     10.488
REMARK  Name = 
REMARK  12 active torsions:
REMARK  status: ('A' for Active; 'I' for Inactive)
REMARK    1  A    between atoms: C_5  and  N_6
REMARK    2  A    between atoms: N_6  and  C_7
REMARK    3  A    between atoms: C_7  and  C_8
REMARK    4  A    between atoms: C_8  and  C_9
REMARK    5  A    between atoms: C_9  and  C_10
REMARK    6  A    between atoms: C_10  and  C_11
REMARK    7  A    between atoms: C_11  and  C_12
REMARK    8  A    between atoms: C_12  and  C_13
REMARK    9  A    between atoms: C_13  and  C_14
REMARK   10  A    between atoms: C_14  and  C_15
REMARK   11  A    between atoms: C_15  and  C_16
REMARK   12  A    between atoms: C_16  and  N_17
REMARK                            x       y       z     vdW  Elec       q    Type
REMARK                         _______ _______ _______ _____ _____    ______ ____
ROOT
ATOM      1  N   UNL     1       2.755   7.174  18.874  0.00  0.00    +0.000 N 
ATOM      2  H   UNL     1       2.523   7.230  19.863  0.00  0.00    +0.000 HD
ENDROOT
BRANCH   1   7
ATOM      3  C   UNL     1       5.917   5.146  15.456  0.00  0.00    +0.000 A 
ATOM      4  C   UNL     1       5.724   6.439  15.907  0.00  0.00    +0.000 A 
ATOM      5  C   UNL     1       4.773   6.682  16.899  0.00  0.00    +0.000 A 
ATOM      6  C   UNL     1       4.006   5.635  17.485  0.00  0.00    +0.000 A 
ATOM      7  C   UNL     1       3.030   5.818  18.525  0.00  0.00    +0.000 A 
ATOM      8  C   UNL     1       2.357   4.665  19.034  0.00  0.00    +0.000 A 
ATOM      9  C   UNL     1       2.648   3.426  18.435  0.00  0.00    +0.000 A 
ATOM     10  N   UNL     1       3.565   3.263  17.457  0.00  0.00    +0.000 NA
ATOM     11  C   UNL     1       4.225   4.325  17.003  0.00  0.00    +0.000 A 
ATOM     12  C   UNL     1       5.164   4.109  16.005  0.00  0.00    +0.000 A 
ATOM     13  C   UNL     1       2.002   2.128  18.866  0.00  0.00    +0.000 C 
ATOM     14  C   UNL     1       0.790   2.274  19.770  0.00  0.00    +0.000 C 
ATOM     15  C   UNL     1       1.081   3.313  20.824  0.00  0.00    +0.000 C 
ATOM     16  C   UNL     1       1.333   4.661  20.154  0.00  0.00    +0.000 C 
ENDBRANCH   1   7
BRANCH   1  17
ATOM     17  C   UNL     1       1.846   7.972  18.091  0.00  0.00    +0.000 C 
BRANCH  17  18
ATOM     18  C   UNL     1       1.414   9.280  18.743  0.00  0.00    +0.000 C 
BRANCH  18  19
ATOM     19  C   UNL     1       1.352   9.085  20.270  0.00  0.00    +0.000 C 
BRANCH  19  20
ATOM     20  C   UNL     1      -0.013   9.489  20.830  0.00  0.00    +0.000 C 
BRANCH  20  21
ATOM     21  C   UNL     1      -0.282   8.990  22.235  0.00  0.00    +0.000 C 
BRANCH  21  22
ATOM     22  C   UNL     1      -0.785  10.165  23.079  0.00  0.00    +0.000 C 
BRANCH  22  23
ATOM     23  C   UNL     1      -0.569  11.464  22.337  0.00  0.00    +0.000 C 
BRANCH  23  24
ATOM     24  C   UNL     1      -1.215  12.661  23.035  0.00  0.00    +0.000 C 
BRANCH  24  25
ATOM     25  C   UNL     1      -2.398  13.081  22.175  0.00  0.00    +0.000 C 
BRANCH  25  26
ATOM     26  C   UNL     1      -3.764  12.626  22.680  0.00  0.00    +0.000 C 
BRANCH  26  27
ATOM     27  N   UNL     1      -4.790  13.643  22.377  0.00  0.00    +0.000 NA
ATOM     28  C   UNL     1      -5.753  13.797  23.488  0.00  0.00    +0.000 C 
ATOM     29  C   UNL     1      -6.775  12.649  23.608  0.00  0.00    +0.000 C 
ATOM     30  O   UNL     1      -7.428  12.344  22.366  0.00  0.00    +0.000 OA
ATOM     31  C   UNL     1      -6.476  12.121  21.320  0.00  0.00    +0.000 C 
ATOM     32  C   UNL     1      -5.580  13.354  21.158  0.00  0.00    +0.000 C 
ENDBRANCH  26  27
ENDBRANCH  25  26
ENDBRANCH  24  25
ENDBRANCH  23  24
ENDBRANCH  22  23
ENDBRANCH  21  22
ENDBRANCH  20  21
ENDBRANCH  19  20
ENDBRANCH  18  19
ENDBRANCH  17  18
ENDBRANCH   1  17
TORSDOF 12
ENDMDL
MODEL 6
REMARK VINA RESULT:      -7.1      2.868      9.278
REMARK  Name = 
REMARK  12 active torsions:
REMARK  status: ('A' for Active; 'I' for Inactive)
REMARK    1  A    between atoms: C_5  and  N_6
REMARK    2  A    between atoms: N_6  and  C_7
REMARK    3  A    between atoms: C_7  and  C_8
REMARK    4  A    between atoms: C_8  and  C_9
REMARK    5  A    between atoms: C_9  and  C_10
REMARK    6  A    between atoms: C_10  and  C_11
REMARK    7  A    between atoms: C_11  and  C_12
REMARK    8  A    between atoms: C_12  and  C_13
REMARK    9  A    between atoms: C_13  and  C_14
REMARK   10  A    between atoms: C_14  and  C_15
REMARK   11  A    between atoms: C_15  and  C_16
REMARK   12  A    between atoms: C_16  and  N_17
REMARK                            x       y       z     vdW  Elec       q    Type
REMARK                         _______ _______ _______ _____ _____    ______ ____
ROOT
ATOM      1  N   UNL     1       2.810   7.097  19.209  0.00  0.00    +0.000 N 
ATOM      2  H   UNL     1       2.299   6.908  20.068  0.00  0.00    +0.000 HD
ENDROOT
BRANCH   1   7
ATOM      3  C   UNL     1       1.500   2.301  20.243  0.00  0.00    +0.000 A 
ATOM      4  C   UNL     1       1.089   3.519  20.754  0.00  0.00    +0.000 A 
ATOM      5  C   UNL     1       1.628   4.695  20.232  0.00  0.00    +0.000 A 
ATOM      6  C   UNL     1       2.574   4.688  19.169  0.00  0.00    +0.000 A 
ATOM      7  C   UNL     1       3.147   5.864  18.574  0.00  0.00    +0.000 A 
ATOM      8  C   UNL     1       4.066   5.699  17.493  0.00  0.00    +0.000 A 
ATOM      9  C   UNL     1       4.403   4.384  17.121  0.00  0.00    +0.000 A 
ATOM     10  N   UNL     1       3.860   3.284  17.687  0.00  0.00    +0.000 NA
ATOM     11  C   UNL     1       2.975   3.428  18.669  0.00  0.00    +0.000 A 
ATOM     12  C   UNL     1       2.437   2.271  19.213  0.00  0.00    +0.000 A 
ATOM     13  C   UNL     1       5.369   4.063  16.003  0.00  0.00    +0.000 C 
ATOM     14  C   UNL     1       6.199   5.234  15.505  0.00  0.00    +0.000 C 
ATOM     15  C   UNL     1       5.310   6.444  15.357  0.00  0.00    +0.000 C 
ATOM     16  C   UNL     1       4.734   6.821  16.719  0.00  0.00    +0.000 C 
ENDBRANCH   1   7
BRANCH   1  17
ATOM     17  C   UNL     1       2.190   8.167  18.472  0.00  0.00    +0.000 C 
BRANCH  17  18
ATOM     18  C   UNL     1       1.500   9.223  19.327  0.00  0.00    +0.000 C 
BRANCH  18  19
ATOM     19  C   UNL     1       1.061   8.583  20.659  0.00  0.00    +0.000 C 
BRANCH  19  20
ATOM     20  C   UNL     1       0.811   9.644  21.732  0.00  0.00    +0.000 C 
BRANCH  20  21
ATOM     21  C   UNL     1      -0.172   9.224  22.805  0.00  0.00    +0.000 C 
BRANCH  21  22
ATOM     22  C   UNL     1      -0.953  10.460  23.259  0.00  0.00    +0.000 C 
BRANCH  22  23
ATOM     23  C   UNL     1      -0.616  11.638  22.373  0.00  0.00    +0.000 C 
BRANCH  23  24
ATOM     24  C   UNL     1      -1.835  12.191  21.633  0.00  0.00    +0.000 C 
BRANCH  24  25
ATOM     25  C   UNL     1      -1.376  12.514  20.219  0.00  0.00    +0.000 C 
BRANCH  25  26
ATOM     26  C   UNL     1      -1.491  11.366  19.220  0.00  0.00    +0.000 C 
BRANCH  26  27
ATOM     27  N   UNL     1      -2.200  11.811  18.004  0.00  0.00    +0.000 NA
ATOM     28  C   UNL     1      -3.572  12.272  18.309  0.00  0.00    +0.000 C 
ATOM     29  C   UNL     1      -4.573  11.137  18.607  0.00  0.00    +0.000 C 
ATOM     30  O   UNL     1      -4.560  10.101  17.614  0.00  0.00    +0.000 OA
ATOM     31  C   UNL     1      -3.232   9.613  17.389  0.00  0.00    +0.000 C 
ATOM     32  C   UNL     1      -2.318  10.766  16.961  0.00  0.00    +0.000 C 
ENDBRANCH  26  27
ENDBRANCH  25  26
ENDBRANCH  24  25
ENDBRANCH  23  24
ENDBRANCH  22  23
ENDBRANCH  21  22
ENDBRANCH  20  21
ENDBRANCH  19  20
ENDBRANCH  18  19
ENDBRANCH  17  18
ENDBRANCH   1  17
TORSDOF 12
ENDMDL
MODEL 7
REMARK VINA RESULT:      -7.1      3.802     10.266
REMARK  Name = 
REMARK  12 active torsions:
REMARK  status: ('A' for Active; 'I' for Inactive)
REMARK    1  A    between atoms: C_5  and  N_6
REMARK    2  A    between atoms: N_6  and  C_7
REMARK    3  A    between atoms: C_7  and  C_8
REMARK    4  A    between atoms: C_8  and  C_9
REMARK    5  A    between atoms: C_9  and  C_10
REMARK    6  A    between atoms: C_10  and  C_11
REMARK    7  A    between atoms: C_11  and  C_12
REMARK    8  A    between atoms: C_12  and  C_13
REMARK    9  A    between atoms: C_13  and  C_14
REMARK   10  A    between atoms: C_14  and  C_15
REMARK   11  A    between atoms: C_15  and  C_16
REMARK   12  A    between atoms: C_16  and  N_17
REMARK                            x       y       z     vdW  Elec       q    Type
REMARK                         _______ _______ _______ _____ _____    ______ ____
ROOT
ATOM      1  N   UNL     1       3.111   6.901  19.610  0.00  0.00    +0.000 N 
ATOM      2  H   UNL     1       3.214   6.631  20.585  0.00  0.00    +0.000 HD
ENDROOT
BRANCH   1   7
ATOM      3  C   UNL     1       1.277   2.185  20.048  0.00  0.00    +0.000 A 
ATOM      4  C   UNL     1       1.054   3.351  20.759  0.00  0.00    +0.000 A 
ATOM      5  C   UNL     1       1.703   4.523  20.369  0.00  0.00    +0.000 A 
ATOM      6  C   UNL     1       2.573   4.569  19.244  0.00  0.00    +0.000 A 
ATOM      7  C   UNL     1       3.251   5.749  18.780  0.00  0.00    +0.000 A 
ATOM      8  C   UNL     1       4.074   5.644  17.617  0.00  0.00    +0.000 A 
ATOM      9  C   UNL     1       4.221   4.372  17.036  0.00  0.00    +0.000 A 
ATOM     10  N   UNL     1       3.581   3.268  17.480  0.00  0.00    +0.000 NA
ATOM     11  C   UNL     1       2.782   3.362  18.539  0.00  0.00    +0.000 A 
ATOM     12  C   UNL     1       2.139   2.205  18.953  0.00  0.00    +0.000 A 
ATOM     13  C   UNL     1       5.069   4.115  15.810  0.00  0.00    +0.000 C 
ATOM     14  C   UNL     1       6.007   5.245  15.421  0.00  0.00    +0.000 C 
ATOM     15  C   UNL     1       5.269   6.557  15.518  0.00  0.00    +0.000 C 
ATOM     16  C   UNL     1       4.828   6.787  16.962  0.00  0.00    +0.000 C 
ENDBRANCH   1   7
BRANCH   1  17
ATOM     17  C   UNL     1       2.001   7.804  19.444  0.00  0.00    +0.000 C 
BRANCH  17  18
ATOM     18  C   UNL     1       1.988   8.572  18.128  0.00  0.00    +0.000 C 
BRANCH  18  19
ATOM     19  C   UNL     1       1.326   9.945  18.354  0.00  0.00    +0.000 C 
BRANCH  19  20
ATOM     20  C   UNL     1      -0.156   9.919  17.973  0.00  0.00    +0.000 C 
BRANCH  20  21
ATOM     21  C   UNL     1      -1.094  10.306  19.099  0.00  0.00    +0.000 C 
BRANCH  21  22
ATOM     22  C   UNL     1      -1.139  11.834  19.190  0.00  0.00    +0.000 C 
BRANCH  22  23
ATOM     23  C   UNL     1      -0.714  12.282  20.569  0.00  0.00    +0.000 C 
BRANCH  23  24
ATOM     24  C   UNL     1      -0.447  11.112  21.517  0.00  0.00    +0.000 C 
BRANCH  24  25
ATOM     25  C   UNL     1      -1.055  11.491  22.859  0.00  0.00    +0.000 C 
BRANCH  25  26
ATOM     26  C   UNL     1      -2.470  12.059  22.795  0.00  0.00    +0.000 C 
BRANCH  26  27
ATOM     27  N   UNL     1      -2.585  13.251  23.657  0.00  0.00    +0.000 NA
ATOM     28  C   UNL     1      -3.859  13.262  24.408  0.00  0.00    +0.000 C 
ATOM     29  C   UNL     1      -5.094  13.626  23.561  0.00  0.00    +0.000 C 
ATOM     30  O   UNL     1      -4.914  14.821  22.787  0.00  0.00    +0.000 OA
ATOM     31  C   UNL     1      -3.715  14.759  22.006  0.00  0.00    +0.000 C 
ATOM     32  C   UNL     1      -2.507  14.535  22.921  0.00  0.00    +0.000 C 
ENDBRANCH  26  27
ENDBRANCH  25  26
ENDBRANCH  24  25
ENDBRANCH  23  24
ENDBRANCH  22  23
ENDBRANCH  21  22
ENDBRANCH  20  21
ENDBRANCH  19  20
ENDBRANCH  18  19
ENDBRANCH  17  18
ENDBRANCH   1  17
TORSDOF 12
ENDMDL
MODEL 8
REMARK VINA RESULT:      -7.0      5.804      8.736
REMARK  Name = 
REMARK  12 active torsions:
REMARK  status: ('A' for Active; 'I' for Inactive)
REMARK    1  A    between atoms: C_5  and  N_6
REMARK    2  A    between atoms: N_6  and  C_7
REMARK    3  A    between atoms: C_7  and  C_8
REMARK    4  A    between atoms: C_8  and  C_9
REMARK    5  A    between atoms: C_9  and  C_10
REMARK    6  A    between atoms: C_10  and  C_11
REMARK    7  A    between atoms: C_11  and  C_12
REMARK    8  A    between atoms: C_12  and  C_13
REMARK    9  A    between atoms: C_13  and  C_14
REMARK   10  A    between atoms: C_14  and  C_15
REMARK   11  A    between atoms: C_15  and  C_16
REMARK   12  A    between atoms: C_16  and  N_17
REMARK                            x       y       z     vdW  Elec       q    Type
REMARK                         _______ _______ _______ _____ _____    ______ ____
ROOT
ATOM      1  N   UNL     1       4.050   6.074  17.077  0.00  0.00    +0.000 N 
ATOM      2  H   UNL     1       4.067   5.165  16.623  0.00  0.00    +0.000 HD
ENDROOT
BRANCH   1   7
ATOM      3  C   UNL     1       1.230   9.595  19.409  0.00  0.00    +0.000 A 
ATOM      4  C   UNL     1       1.929   9.590  18.216  0.00  0.00    +0.000 A 
ATOM      5  C   UNL     1       2.602   8.432  17.824  0.00  0.00    +0.000 A 
ATOM      6  C   UNL     1       2.574   7.240  18.602  0.00  0.00    +0.000 A 
ATOM      7  C   UNL     1       3.227   6.011  18.241  0.00  0.00    +0.000 A 
ATOM      8  C   UNL     1       3.087   4.888  19.112  0.00  0.00    +0.000 A 
ATOM      9  C   UNL     1       2.369   5.077  20.307  0.00  0.00    +0.000 A 
ATOM     10  N   UNL     1       1.760   6.237  20.639  0.00  0.00    +0.000 NA
ATOM     11  C   UNL     1       1.852   7.277  19.816  0.00  0.00    +0.000 A 
ATOM     12  C   UNL     1       1.204   8.444  20.193  0.00  0.00    +0.000 A 
ATOM     13  C   UNL     1       2.153   3.979  21.325  0.00  0.00    +0.000 C 
ATOM     14  C   UNL     1       3.016   2.743  21.140  0.00  0.00    +0.000 C 
ATOM     15  C   UNL     1       3.040   2.369  19.679  0.00  0.00    +0.000 C 
ATOM     16  C   UNL     1       3.666   3.505  18.873  0.00  0.00    +0.000 C 
ENDBRANCH   1   7
BRANCH   1  17
ATOM     17  C   UNL     1       5.373   6.640  17.135  0.00  0.00    +0.000 C 
BRANCH  17  18
ATOM     18  C   UNL     1       6.414   5.773  17.834  0.00  0.00    +0.000 C 
BRANCH  18  19
ATOM     19  C   UNL     1       7.523   6.680  18.403  0.00  0.00    +0.000 C 
BRANCH  19  20
ATOM     20  C   UNL     1       7.954   7.739  17.385  0.00  0.00    +0.000 C 
BRANCH  20  21
ATOM     21  C   UNL     1       7.707   9.166  17.830  0.00  0.00    +0.000 C 
BRANCH  21  22
ATOM     22  C   UNL     1       8.936   9.652  18.604  0.00  0.00    +0.000 C 
BRANCH  22  23
ATOM     23  C   UNL     1       9.265  11.074  18.211  0.00  0.00    +0.000 C 
BRANCH  23  24
ATOM     24  C   UNL     1      10.749  11.276  17.903  0.00  0.00    +0.000 C 
BRANCH  24  25
ATOM     25  C   UNL     1      11.009  12.774  17.977  0.00  0.00    +0.000 C 
BRANCH  25  26
ATOM     26  C   UNL     1       9.762  13.653  17.933  0.00  0.00    +0.000 C 
BRANCH  26  27
ATOM     27  N   UNL     1       9.729  14.558  19.099  0.00  0.00    +0.000 NA
ATOM     28  C   UNL     1       8.592  15.501  19.027  0.00  0.00    +0.000 C 
ATOM     29  C   UNL     1       8.778  16.646  18.011  0.00  0.00    +0.000 C 
ATOM     30  O   UNL     1      10.034  17.325  18.152  0.00  0.00    +0.000 OA
ATOM     31  C   UNL     1      11.129  16.401  18.141  0.00  0.00    +0.000 C 
ATOM     32  C   UNL     1      10.955  15.372  19.263  0.00  0.00    +0.000 C 
ENDBRANCH  26  27
ENDBRANCH  25  26
ENDBRANCH  24  25
ENDBRANCH  23  24
ENDBRANCH  22  23
ENDBRANCH  21  22
ENDBRANCH  20  21
ENDBRANCH  19  20
ENDBRANCH  18  19
ENDBRANCH  17  18
ENDBRANCH   1  17
TORSDOF 12
ENDMDL
MODEL 9
REMARK VINA RESULT:      -7.0      2.805      9.069
REMARK  Name = 
REMARK  12 active torsions:
REMARK  status: ('A' for Active; 'I' for Inactive)
REMARK    1  A    between atoms: C_5  and  N_6
REMARK    2  A    between atoms: N_6  and  C_7
REMARK    3  A    between atoms: C_7  and  C_8
REMARK    4  A    between atoms: C_8  and  C_9
REMARK    5  A    between atoms: C_9  and  C_10
REMARK    6  A    between atoms: C_10  and  C_11
REMARK    7  A    between atoms: C_11  and  C_12
REMARK    8  A    between atoms: C_12  and  C_13
REMARK    9  A    between atoms: C_13  and  C_14
REMARK   10  A    between atoms: C_14  and  C_15
REMARK   11  A    between atoms: C_15  and  C_16
REMARK   12  A    between atoms: C_16  and  N_17
REMARK                            x       y       z     vdW  Elec       q    Type
REMARK                         _______ _______ _______ _____ _____    ______ ____
ROOT
ATOM      1  N   UNL     1       2.343   6.894  17.930  0.00  0.00    +0.000 N 
ATOM      2  H   UNL     1       1.955   6.781  16.997  0.00  0.00    +0.000 HD
ENDROOT
BRANCH   1   7
ATOM      3  C   UNL     1       6.576   5.166  15.719  0.00  0.00    +0.000 A 
ATOM      4  C   UNL     1       5.816   6.306  15.532  0.00  0.00    +0.000 A 
ATOM      5  C   UNL     1       4.694   6.518  16.334  0.00  0.00    +0.000 A 
ATOM      6  C   UNL     1       4.314   5.608  17.361  0.00  0.00    +0.000 A 
ATOM      7  C   UNL     1       3.185   5.783  18.233  0.00  0.00    +0.000 A 
ATOM      8  C   UNL     1       2.945   4.795  19.237  0.00  0.00    +0.000 A 
ATOM      9  C   UNL     1       3.797   3.675  19.265  0.00  0.00    +0.000 A 
ATOM     10  N   UNL     1       4.855   3.519  18.439  0.00  0.00    +0.000 NA
ATOM     11  C   UNL     1       5.110   4.453  17.526  0.00  0.00    +0.000 A 
ATOM     12  C   UNL     1       6.212   4.254  16.708  0.00  0.00    +0.000 A 
ATOM     13  C   UNL     1       3.652   2.550  20.265  0.00  0.00    +0.000 C 
ATOM     14  C   UNL     1       2.347   2.536  21.042  0.00  0.00    +0.000 C 
ATOM     15  C   UNL     1       2.022   3.939  21.491  0.00  0.00    +0.000 C 
ATOM     16  C   UNL     1       1.832   4.834  20.269  0.00  0.00    +0.000 C 
ENDBRANCH   1   7
BRANCH   1  17
ATOM     17  C   UNL     1       2.797   8.245  18.133  0.00  0.00    +0.000 C 
BRANCH  17  18
ATOM     18  C   UNL     1       1.755   9.323  17.852  0.00  0.00    +0.000 C 
BRANCH  18  19
ATOM     19  C   UNL     1       0.796   9.421  19.054  0.00  0.00    +0.000 C 
BRANCH  19  20
ATOM     20  C   UNL     1       1.453   8.901  20.335  0.00  0.00    +0.000 C 
BRANCH  20  21
ATOM     21  C   UNL     1       0.864   9.469  21.610  0.00  0.00    +0.000 C 
BRANCH  21  22
ATOM     22  C   UNL     1      -0.449  10.177  21.265  0.00  0.00    +0.000 C 
BRANCH  22  23
ATOM     23  C   UNL     1      -0.335  11.653  21.572  0.00  0.00    +0.000 C 
BRANCH  23  24
ATOM     24  C   UNL     1      -0.482  12.531  20.328  0.00  0.00    +0.000 C 
BRANCH  24  25
ATOM     25  C   UNL     1      -1.884  12.291  19.789  0.00  0.00    +0.000 C 
BRANCH  25  26
ATOM     26  C   UNL     1      -1.959  11.927  18.308  0.00  0.00    +0.000 C 
BRANCH  26  27
ATOM     27  N   UNL     1      -2.677  10.651  18.127  0.00  0.00    +0.000 NA
ATOM     28  C   UNL     1      -2.190   9.913  16.942  0.00  0.00    +0.000 C 
ATOM     29  C   UNL     1      -2.663  10.492  15.593  0.00  0.00    +0.000 C 
ATOM     30  O   UNL     1      -4.080  10.718  15.544  0.00  0.00    +0.000 OA
ATOM     31  C   UNL     1      -4.520  11.501  16.660  0.00  0.00    +0.000 C 
ATOM     32  C   UNL     1      -4.142  10.802  17.970  0.00  0.00    +0.000 C 
ENDBRANCH  26  27
ENDBRANCH  25  26
ENDBRANCH  24  25
ENDBRANCH  23  24
ENDBRANCH  22  23
ENDBRANCH  21  22
ENDBRANCH  20  21
ENDBRANCH  19  20
ENDBRANCH  18  19
ENDBRANCH  17  18
ENDBRANCH   1  17
TORSDOF 12
ENDMDL
