MODEL 1
REMARK VINA RESULT:      -8.3      0.000      0.000
REMARK  Name = 
REMARK  5 active torsions:
REMARK  status: ('A' for Active; 'I' for Inactive)
REMARK    1  A    between atoms: C_1  and  N_2
REMARK    2  A    between atoms: C_3  and  C_5
REMARK    3  A    between atoms: C_5  and  O_6
REMARK    4  A    between atoms: O_6  and  C_7
REMARK    5  A    between atoms: C_7  and  C_9
REMARK                            x       y       z     vdW  Elec       q    Type
REMARK                         _______ _______ _______ _____ _____    ______ ____
ROOT
ATOM      1  C   UNL     1       5.834   5.173  15.535  0.00  0.00    +0.000 A 
ATOM      2  C   UNL     1       5.301   6.446  15.770  0.00  0.00    +0.000 A 
ATOM      3  C   UNL     1       4.348   6.635  16.785  0.00  0.00    +0.000 A 
ATOM      4  C   UNL     1       3.917   5.562  17.588  0.00  0.00    +0.000 A 
ATOM      5  C   UNL     1       4.463   4.311  17.336  0.00  0.00    +0.000 A 
ATOM      6  C   UNL     1       5.403   4.104  16.321  0.00  0.00    +0.000 A 
ATOM      7  S   UNL     1       4.025   2.925  18.297  0.00  0.00    +0.000 S 
ATOM      8  O   UNL     1       5.218   2.554  19.032  0.00  0.00    +0.000 OA
ATOM      9  O   UNL     1       3.359   2.004  17.399  0.00  0.00    +0.000 OA
ATOM     10  C   UNL     1       2.845   3.411  19.480  0.00  0.00    +0.000 A 
ATOM     11  C   UNL     1       2.353   2.422  20.343  0.00  0.00    +0.000 A 
ATOM     12  C   UNL     1       1.418   2.760  21.311  0.00  0.00    +0.000 A 
ATOM     13  C   UNL     1       0.980   4.079  21.412  0.00  0.00    +0.000 A 
ATOM     14  C   UNL     1       1.477   5.057  20.542  0.00  0.00    +0.000 A 
ATOM     15  C   UNL     1       2.422   4.732  19.557  0.00  0.00    +0.000 A 
ATOM     16  C   UNL     1       2.917   5.808  18.658  0.00  0.00    +0.000 C 
ATOM     17  O   UNL     1       2.483   6.951  18.801  0.00  0.00    +0.000 OA
ENDROOT
BRANCH   1  18
ATOM     18  C   UNL     1       6.848   4.871  14.493  0.00  0.00    +0.000 C 
ATOM     19  O   UNL     1       7.862   5.534  14.349  0.00  0.00    +0.000 OA
BRANCH  18  20
ATOM     20  O   UNL     1       6.483   3.811  13.741  0.00  0.00    +0.000 OA
BRANCH  20  21
ATOM     21  C   UNL     1       5.359   4.031  12.881  0.00  0.00    +0.000 C 
BRANCH  21  24
ATOM     22  C   UNL     1       6.247   0.901  10.921  0.00  0.00    +0.000 C 
ATOM     23  N   UNL     1       6.243   1.995  11.856  0.00  0.00    +0.000 N 
ATOM     24  C   UNL     1       5.194   2.890  11.887  0.00  0.00    +0.000 C 
ATOM     25  O   UNL     1       4.214   2.799  11.151  0.00  0.00    +0.000 OA
ATOM     26  H   UNL     1       7.074   2.184  12.408  0.00  0.00    +0.000 HD
ENDBRANCH  21  24
ENDBRANCH  20  21
ENDBRANCH  18  20
ENDBRANCH   1  18
TORSDOF 4
ENDMDL
MODEL 2
REMARK VINA RESULT:      -8.3      0.827      1.007
REMARK  Name = 
REMARK  5 active torsions:
REMARK  status: ('A' for Active; 'I' for Inactive)
REMARK    1  A    between atoms: C_1  and  N_2
REMARK    2  A    between atoms: C_3  and  C_5
REMARK    3  A    between atoms: C_5  and  O_6
REMARK    4  A    between atoms: O_6  and  C_7
REMARK    5  A    between atoms: C_7  and  C_9
REMARK                            x       y       z     vdW  Elec       q    Type
REMARK                         _______ _______ _______ _____ _____    ______ ____
ROOT
ATOM      1  C   UNL     1       5.847   5.131  15.454  0.00  0.00    +0.000 A 
ATOM      2  C   UNL     1       5.333   6.415  15.674  0.00  0.00    +0.000 A 
ATOM      3  C   UNL     1       4.390   6.634  16.692  0.00  0.00    +0.000 A 
ATOM      4  C   UNL     1       3.951   5.578  17.515  0.00  0.00    +0.000 A 
ATOM      5  C   UNL     1       4.477   4.316  17.278  0.00  0.00    +0.000 A 
ATOM      6  C   UNL     1       5.407   4.081  16.260  0.00  0.00    +0.000 A 
ATOM      7  S   UNL     1       4.027   2.952  18.264  0.00  0.00    +0.000 S 
ATOM      8  O   UNL     1       5.219   2.575  18.995  0.00  0.00    +0.000 OA
ATOM      9  O   UNL     1       3.341   2.026  17.384  0.00  0.00    +0.000 OA
ATOM     10  C   UNL     1       2.862   3.472  19.447  0.00  0.00    +0.000 A 
ATOM     11  C   UNL     1       2.363   2.504  20.329  0.00  0.00    +0.000 A 
ATOM     12  C   UNL     1       1.440   2.869  21.298  0.00  0.00    +0.000 A 
ATOM     13  C   UNL     1       1.021   4.195  21.382  0.00  0.00    +0.000 A 
ATOM     14  C   UNL     1       1.525   5.153  20.494  0.00  0.00    +0.000 A 
ATOM     15  C   UNL     1       2.458   4.800  19.506  0.00  0.00    +0.000 A 
ATOM     16  C   UNL     1       2.962   5.855  18.588  0.00  0.00    +0.000 C 
ATOM     17  O   UNL     1       2.545   7.006  18.717  0.00  0.00    +0.000 OA
ENDROOT
BRANCH   1  18
ATOM     18  C   UNL     1       6.849   4.799  14.410  0.00  0.00    +0.000 C 
ATOM     19  O   UNL     1       7.806   5.515  14.164  0.00  0.00    +0.000 OA
BRANCH  18  20
ATOM     20  O   UNL     1       6.541   3.646  13.779  0.00  0.00    +0.000 OA
BRANCH  20  21
ATOM     21  C   UNL     1       6.676   3.675  12.354  0.00  0.00    +0.000 C 
BRANCH  21  24
ATOM     22  C   UNL     1       3.274   3.005  10.803  0.00  0.00    +0.000 C 
ATOM     23  N   UNL     1       4.431   3.632  11.388  0.00  0.00    +0.000 N 
ATOM     24  C   UNL     1       5.559   2.892  11.679  0.00  0.00    +0.000 C 
ATOM     25  O   UNL     1       5.650   1.690  11.444  0.00  0.00    +0.000 OA
ATOM     26  H   UNL     1       4.371   4.593  11.705  0.00  0.00    +0.000 HD
ENDBRANCH  21  24
ENDBRANCH  20  21
ENDBRANCH  18  20
ENDBRANCH   1  18
TORSDOF 4
ENDMDL
MODEL 3
REMARK VINA RESULT:      -8.2      5.141      7.242
REMARK  Name = 
REMARK  5 active torsions:
REMARK  status: ('A' for Active; 'I' for Inactive)
REMARK    1  A    between atoms: C_1  and  N_2
REMARK    2  A    between atoms: C_3  and  C_5
REMARK    3  A    between atoms: C_5  and  O_6
REMARK    4  A    between atoms: O_6  and  C_7
REMARK    5  A    between atoms: C_7  and  C_9
REMARK                            x       y       z     vdW  Elec       q    Type
REMARK                         _______ _______ _______ _____ _____    ______ ____
ROOT
ATOM      1  C   UNL     1       2.422   7.361  18.939  0.00  0.00    +0.000 A 
ATOM      2  C   UNL     1       2.353   8.288  17.892  0.00  0.00    +0.000 A 
ATOM      3  C   UNL     1       1.651   9.493  18.061  0.00  0.00    +0.000 A 
ATOM      4  C   UNL     1       1.013   9.798  19.279  0.00  0.00    +0.000 A 
ATOM      5  C   UNL     1       1.099   8.864  20.302  0.00  0.00    +0.000 A 
ATOM      6  C   UNL     1       1.784   7.655  20.144  0.00  0.00    +0.000 A 
ATOM      7  S   UNL     1       0.376   9.162  21.859  0.00  0.00    +0.000 S 
ATOM      8  O   UNL     1       1.477   9.290  22.793  0.00  0.00    +0.000 OA
ATOM      9  O   UNL     1      -0.658   8.161  22.024  0.00  0.00    +0.000 OA
ATOM     10  C   UNL     1      -0.424  10.706  21.821  0.00  0.00    +0.000 A 
ATOM     11  C   UNL     1      -1.085  11.119  22.987  0.00  0.00    +0.000 A 
ATOM     12  C   UNL     1      -1.729  12.347  23.012  0.00  0.00    +0.000 A 
ATOM     13  C   UNL     1      -1.713  13.156  21.878  0.00  0.00    +0.000 A 
ATOM     14  C   UNL     1      -1.051  12.732  20.718  0.00  0.00    +0.000 A 
ATOM     15  C   UNL     1      -0.396  11.492  20.675  0.00  0.00    +0.000 A 
ATOM     16  C   UNL     1       0.291  11.088  19.420  0.00  0.00    +0.000 C 
ATOM     17  O   UNL     1       0.262  11.851  18.454  0.00  0.00    +0.000 OA
ENDROOT
BRANCH   1  18
ATOM     18  C   UNL     1       3.143   6.065  18.862  0.00  0.00    +0.000 C 
ATOM     19  O   UNL     1       3.923   5.693  19.724  0.00  0.00    +0.000 OA
BRANCH  18  20
ATOM     20  O   UNL     1       2.838   5.397  17.730  0.00  0.00    +0.000 OA
BRANCH  20  21
ATOM     21  C   UNL     1       1.632   4.627  17.781  0.00  0.00    +0.000 C 
BRANCH  21  24
ATOM     22  C   UNL     1       3.597   1.458  18.505  0.00  0.00    +0.000 C 
ATOM     23  N   UNL     1       3.212   2.795  18.138  0.00  0.00    +0.000 N 
ATOM     24  C   UNL     1       1.903   3.211  18.270  0.00  0.00    +0.000 C 
ATOM     25  O   UNL     1       1.013   2.490  18.716  0.00  0.00    +0.000 OA
ATOM     26  H   UNL     1       3.878   3.394  17.662  0.00  0.00    +0.000 HD
ENDBRANCH  21  24
ENDBRANCH  20  21
ENDBRANCH  18  20
ENDBRANCH   1  18
TORSDOF 4
ENDMDL
MODEL 4
REMARK VINA RESULT:      -8.1      5.109      7.049
REMARK  Name = 
REMARK  5 active torsions:
REMARK  status: ('A' for Active; 'I' for Inactive)
REMARK    1  A    between atoms: C_1  and  N_2
REMARK    2  A    between atoms: C_3  and  C_5
REMARK    3  A    between atoms: C_5  and  O_6
REMARK    4  A    between atoms: O_6  and  C_7
REMARK    5  A    between atoms: C_7  and  C_9
REMARK                            x       y       z     vdW  Elec       q    Type
REMARK                         _______ _______ _______ _____ _____    ______ ____
ROOT
ATOM      1  C   UNL     1       2.382   7.280  19.053  0.00  0.00    +0.000 A 
ATOM      2  C   UNL     1       2.310   8.175  17.979  0.00  0.00    +0.000 A 
ATOM      3  C   UNL     1       1.609   9.385  18.114  0.00  0.00    +0.000 A 
ATOM      4  C   UNL     1       0.976   9.728  19.325  0.00  0.00    +0.000 A 
ATOM      5  C   UNL     1       1.065   8.824  20.375  0.00  0.00    +0.000 A 
ATOM      6  C   UNL     1       1.749   7.610  20.251  0.00  0.00    +0.000 A 
ATOM      7  S   UNL     1       0.349   9.169  21.926  0.00  0.00    +0.000 S 
ATOM      8  O   UNL     1       1.453   9.324  22.851  0.00  0.00    +0.000 OA
ATOM      9  O   UNL     1      -0.685   8.174  22.124  0.00  0.00    +0.000 OA
ATOM     10  C   UNL     1      -0.450  10.712  21.845  0.00  0.00    +0.000 A 
ATOM     11  C   UNL     1      -1.106  11.159  23.001  0.00  0.00    +0.000 A 
ATOM     12  C   UNL     1      -1.749  12.389  22.992  0.00  0.00    +0.000 A 
ATOM     13  C   UNL     1      -1.737  13.163  21.834  0.00  0.00    +0.000 A 
ATOM     14  C   UNL     1      -1.080  12.704  20.685  0.00  0.00    +0.000 A 
ATOM     15  C   UNL     1      -0.425  11.463  20.676  0.00  0.00    +0.000 A 
ATOM     16  C   UNL     1       0.256  11.022  19.430  0.00  0.00    +0.000 C 
ATOM     17  O   UNL     1       0.224  11.756  18.442  0.00  0.00    +0.000 OA
ENDROOT
BRANCH   1  18
ATOM     18  C   UNL     1       3.102   5.982  19.011  0.00  0.00    +0.000 C 
ATOM     19  O   UNL     1       3.638   5.495  19.993  0.00  0.00    +0.000 OA
BRANCH  18  20
ATOM     20  O   UNL     1       3.096   5.453  17.769  0.00  0.00    +0.000 OA
BRANCH  20  21
ATOM     21  C   UNL     1       3.900   4.280  17.602  0.00  0.00    +0.000 C 
BRANCH  21  24
ATOM     22  C   UNL     1       7.687   4.552  17.723  0.00  0.00    +0.000 C 
ATOM     23  N   UNL     1       6.312   4.229  18.000  0.00  0.00    +0.000 N 
ATOM     24  C   UNL     1       5.308   4.638  17.146  0.00  0.00    +0.000 C 
ATOM     25  O   UNL     1       5.522   5.269  16.114  0.00  0.00    +0.000 OA
ATOM     26  H   UNL     1       6.067   3.809  18.890  0.00  0.00    +0.000 HD
ENDBRANCH  21  24
ENDBRANCH  20  21
ENDBRANCH  18  20
ENDBRANCH   1  18
TORSDOF 4
ENDMDL
MODEL 5
REMARK VINA RESULT:      -8.1      5.011      6.807
REMARK  Name = 
REMARK  5 active torsions:
REMARK  status: ('A' for Active; 'I' for Inactive)
REMARK    1  A    between atoms: C_1  and  N_2
REMARK    2  A    between atoms: C_3  and  C_5
REMARK    3  A    between atoms: C_5  and  O_6
REMARK    4  A    between atoms: O_6  and  C_7
REMARK    5  A    between atoms: C_7  and  C_9
REMARK                            x       y       z     vdW  Elec       q    Type
REMARK                         _______ _______ _______ _____ _____    ______ ____
ROOT
ATOM      1  C   UNL     1       2.429   7.564  18.805  0.00  0.00    +0.000 A 
ATOM      2  C   UNL     1       2.253   8.496  17.776  0.00  0.00    +0.000 A 
ATOM      3  C   UNL     1       1.467   9.641  17.986  0.00  0.00    +0.000 A 
ATOM      4  C   UNL     1       0.851   9.881  19.229  0.00  0.00    +0.000 A 
ATOM      5  C   UNL     1       1.043   8.943  20.234  0.00  0.00    +0.000 A 
ATOM      6  C   UNL     1       1.812   7.793  20.036  0.00  0.00    +0.000 A 
ATOM      7  S   UNL     1       0.354   9.166  21.819  0.00  0.00    +0.000 S 
ATOM      8  O   UNL     1       1.473   9.367  22.718  0.00  0.00    +0.000 OA
ATOM      9  O   UNL     1      -0.594   8.087  22.004  0.00  0.00    +0.000 OA
ATOM     10  C   UNL     1      -0.562  10.645  21.832  0.00  0.00    +0.000 A 
ATOM     11  C   UNL     1      -1.212  10.990  23.025  0.00  0.00    +0.000 A 
ATOM     12  C   UNL     1      -1.947  12.165  23.091  0.00  0.00    +0.000 A 
ATOM     13  C   UNL     1      -2.032  12.987  21.969  0.00  0.00    +0.000 A 
ATOM     14  C   UNL     1      -1.381  12.629  20.781  0.00  0.00    +0.000 A 
ATOM     15  C   UNL     1      -0.634  11.444  20.698  0.00  0.00    +0.000 A 
ATOM     16  C   UNL     1       0.037  11.110  19.413  0.00  0.00    +0.000 C 
ATOM     17  O   UNL     1      -0.083  11.880  18.461  0.00  0.00    +0.000 OA
ENDROOT
BRANCH   1  18
ATOM     18  C   UNL     1       3.244   6.328  18.685  0.00  0.00    +0.000 C 
ATOM     19  O   UNL     1       2.981   5.304  19.295  0.00  0.00    +0.000 OA
BRANCH  18  20
ATOM     20  O   UNL     1       4.292   6.507  17.853  0.00  0.00    +0.000 OA
BRANCH  20  21
ATOM     21  C   UNL     1       4.953   5.306  17.439  0.00  0.00    +0.000 C 
BRANCH  21  24
ATOM     22  C   UNL     1       6.168   4.089  14.052  0.00  0.00    +0.000 C 
ATOM     23  N   UNL     1       5.716   4.163  15.416  0.00  0.00    +0.000 N 
ATOM     24  C   UNL     1       5.345   5.372  15.969  0.00  0.00    +0.000 C 
ATOM     25  O   UNL     1       5.359   6.428  15.342  0.00  0.00    +0.000 OA
ATOM     26  H   UNL     1       5.791   3.346  16.012  0.00  0.00    +0.000 HD
ENDBRANCH  21  24
ENDBRANCH  20  21
ENDBRANCH  18  20
ENDBRANCH   1  18
TORSDOF 4
ENDMDL
MODEL 6
REMARK VINA RESULT:      -8.0      5.145      7.308
REMARK  Name = 
REMARK  5 active torsions:
REMARK  status: ('A' for Active; 'I' for Inactive)
REMARK    1  A    between atoms: C_1  and  N_2
REMARK    2  A    between atoms: C_3  and  C_5
REMARK    3  A    between atoms: C_5  and  O_6
REMARK    4  A    between atoms: O_6  and  C_7
REMARK    5  A    between atoms: C_7  and  C_9
REMARK                            x       y       z     vdW  Elec       q    Type
REMARK                         _______ _______ _______ _____ _____    ______ ____
ROOT
ATOM      1  C   UNL     1       2.442   7.661  18.669  0.00  0.00    +0.000 A 
ATOM      2  C   UNL     1       2.258   8.632  17.678  0.00  0.00    +0.000 A 
ATOM      3  C   UNL     1       1.470   9.766  17.937  0.00  0.00    +0.000 A 
ATOM      4  C   UNL     1       0.861   9.956  19.192  0.00  0.00    +0.000 A 
ATOM      5  C   UNL     1       1.060   8.980  20.158  0.00  0.00    +0.000 A 
ATOM      6  C   UNL     1       1.831   7.840  19.911  0.00  0.00    +0.000 A 
ATOM      7  S   UNL     1       0.380   9.139  21.755  0.00  0.00    +0.000 S 
ATOM      8  O   UNL     1       1.504   9.307  22.654  0.00  0.00    +0.000 OA
ATOM      9  O   UNL     1      -0.565   8.051  21.902  0.00  0.00    +0.000 OA
ATOM     10  C   UNL     1      -0.540  10.614  21.830  0.00  0.00    +0.000 A 
ATOM     11  C   UNL     1      -1.183  10.911  23.040  0.00  0.00    +0.000 A 
ATOM     12  C   UNL     1      -1.921  12.080  23.156  0.00  0.00    +0.000 A 
ATOM     13  C   UNL     1      -2.013  12.945  22.067  0.00  0.00    +0.000 A 
ATOM     14  C   UNL     1      -1.368  12.636  20.863  0.00  0.00    +0.000 A 
ATOM     15  C   UNL     1      -0.619  11.456  20.729  0.00  0.00    +0.000 A 
ATOM     16  C   UNL     1       0.046  11.175  19.429  0.00  0.00    +0.000 C 
ATOM     17  O   UNL     1      -0.082  11.981  18.508  0.00  0.00    +0.000 OA
ENDROOT
BRANCH   1  18
ATOM     18  C   UNL     1       3.258   6.433  18.496  0.00  0.00    +0.000 C 
ATOM     19  O   UNL     1       3.635   6.042  17.403  0.00  0.00    +0.000 OA
BRANCH  18  20
ATOM     20  O   UNL     1       3.490   5.822  19.677  0.00  0.00    +0.000 OA
BRANCH  20  21
ATOM     21  C   UNL     1       4.547   4.857  19.668  0.00  0.00    +0.000 C 
BRANCH  21  24
ATOM     22  C   UNL     1       3.570   1.565  18.045  0.00  0.00    +0.000 C 
ATOM     23  N   UNL     1       4.102   2.876  18.305  0.00  0.00    +0.000 N 
ATOM     24  C   UNL     1       3.999   3.441  19.560  0.00  0.00    +0.000 C 
ATOM     25  O   UNL     1       3.478   2.865  20.513  0.00  0.00    +0.000 OA
ATOM     26  H   UNL     1       4.440   3.440  17.533  0.00  0.00    +0.000 HD
ENDBRANCH  21  24
ENDBRANCH  20  21
ENDBRANCH  18  20
ENDBRANCH   1  18
TORSDOF 4
ENDMDL
MODEL 7
REMARK VINA RESULT:      -8.0      5.264      7.577
REMARK  Name = 
REMARK  5 active torsions:
REMARK  status: ('A' for Active; 'I' for Inactive)
REMARK    1  A    between atoms: C_1  and  N_2
REMARK    2  A    between atoms: C_3  and  C_5
REMARK    3  A    between atoms: C_5  and  O_6
REMARK    4  A    between atoms: O_6  and  C_7
REMARK    5  A    between atoms: C_7  and  C_9
REMARK                            x       y       z     vdW  Elec       q    Type
REMARK                         _______ _______ _______ _____ _____    ______ ____
ROOT
ATOM      1  C   UNL     1       2.435   7.670  18.745  0.00  0.00    +0.000 A 
ATOM      2  C   UNL     1       2.240   8.620  17.735  0.00  0.00    +0.000 A 
ATOM      3  C   UNL     1       1.438   9.748  17.973  0.00  0.00    +0.000 A 
ATOM      4  C   UNL     1       0.824   9.954  19.224  0.00  0.00    +0.000 A 
ATOM      5  C   UNL     1       1.035   8.998  20.208  0.00  0.00    +0.000 A 
ATOM      6  C   UNL     1       1.821   7.864  19.982  0.00  0.00    +0.000 A 
ATOM      7  S   UNL     1       0.350   9.177  21.800  0.00  0.00    +0.000 S 
ATOM      8  O   UNL     1       1.470   9.376  22.698  0.00  0.00    +0.000 OA
ATOM      9  O   UNL     1      -0.581   8.080  21.966  0.00  0.00    +0.000 OA
ATOM     10  C   UNL     1      -0.589  10.641  21.848  0.00  0.00    +0.000 A 
ATOM     11  C   UNL     1      -1.238  10.952  23.051  0.00  0.00    +0.000 A 
ATOM     12  C   UNL     1      -1.991  12.113  23.144  0.00  0.00    +0.000 A 
ATOM     13  C   UNL     1      -2.093  12.957  22.040  0.00  0.00    +0.000 A 
ATOM     14  C   UNL     1      -1.442  12.634  20.842  0.00  0.00    +0.000 A 
ATOM     15  C   UNL     1      -0.678  11.462  20.730  0.00  0.00    +0.000 A 
ATOM     16  C   UNL     1      -0.008  11.166  19.437  0.00  0.00    +0.000 C 
ATOM     17  O   UNL     1      -0.144  11.953  18.501  0.00  0.00    +0.000 OA
ENDROOT
BRANCH   1  18
ATOM     18  C   UNL     1       3.268   6.450  18.595  0.00  0.00    +0.000 C 
ATOM     19  O   UNL     1       3.624   6.025  17.508  0.00  0.00    +0.000 OA
BRANCH  18  20
ATOM     20  O   UNL     1       3.540   5.888  19.791  0.00  0.00    +0.000 OA
BRANCH  20  21
ATOM     21  C   UNL     1       3.578   4.456  19.799  0.00  0.00    +0.000 C 
BRANCH  21  24
ATOM     22  C   UNL     1       0.645   2.271  18.772  0.00  0.00    +0.000 C 
ATOM     23  N   UNL     1       1.946   2.874  18.897  0.00  0.00    +0.000 N 
ATOM     24  C   UNL     1       2.174   3.868  19.826  0.00  0.00    +0.000 C 
ATOM     25  O   UNL     1       1.308   4.275  20.597  0.00  0.00    +0.000 OA
ATOM     26  H   UNL     1       2.665   2.658  18.215  0.00  0.00    +0.000 HD
ENDBRANCH  21  24
ENDBRANCH  20  21
ENDBRANCH  18  20
ENDBRANCH   1  18
TORSDOF 4
ENDMDL
MODEL 8
REMARK VINA RESULT:      -8.0      1.058      1.094
REMARK  Name = 
REMARK  5 active torsions:
REMARK  status: ('A' for Active; 'I' for Inactive)
REMARK    1  A    between atoms: C_1  and  N_2
REMARK    2  A    between atoms: C_3  and  C_5
REMARK    3  A    between atoms: C_5  and  O_6
REMARK    4  A    between atoms: O_6  and  C_7
REMARK    5  A    between atoms: C_7  and  C_9
REMARK                            x       y       z     vdW  Elec       q    Type
REMARK                         _______ _______ _______ _____ _____    ______ ____
ROOT
ATOM      1  C   UNL     1       6.203   4.946  15.625  0.00  0.00    +0.000 A 
ATOM      2  C   UNL     1       6.460   5.997  16.513  0.00  0.00    +0.000 A 
ATOM      3  C   UNL     1       5.745   6.095  17.718  0.00  0.00    +0.000 A 
ATOM      4  C   UNL     1       4.768   5.141  18.063  0.00  0.00    +0.000 A 
ATOM      5  C   UNL     1       4.534   4.108  17.167  0.00  0.00    +0.000 A 
ATOM      6  C   UNL     1       5.228   4.005  15.957  0.00  0.00    +0.000 A 
ATOM      7  S   UNL     1       3.372   2.857  17.517  0.00  0.00    +0.000 S 
ATOM      8  O   UNL     1       4.136   1.637  17.685  0.00  0.00    +0.000 OA
ATOM      9  O   UNL     1       2.332   2.979  16.515  0.00  0.00    +0.000 OA
ATOM     10  C   UNL     1       2.628   3.193  19.053  0.00  0.00    +0.000 A 
ATOM     11  C   UNL     1       1.645   2.300  19.502  0.00  0.00    +0.000 A 
ATOM     12  C   UNL     1       1.029   2.518  20.726  0.00  0.00    +0.000 A 
ATOM     13  C   UNL     1       1.395   3.622  21.494  0.00  0.00    +0.000 A 
ATOM     14  C   UNL     1       2.377   4.508  21.032  0.00  0.00    +0.000 A 
ATOM     15  C   UNL     1       3.009   4.304  19.796  0.00  0.00    +0.000 A 
ATOM     16  C   UNL     1       4.044   5.275  19.353  0.00  0.00    +0.000 C 
ATOM     17  O   UNL     1       4.314   6.231  20.079  0.00  0.00    +0.000 OA
ENDROOT
BRANCH   1  18
ATOM     18  C   UNL     1       6.906   4.752  14.332  0.00  0.00    +0.000 C 
ATOM     19  O   UNL     1       7.748   5.533  13.917  0.00  0.00    +0.000 OA
BRANCH  18  20
ATOM     20  O   UNL     1       6.476   3.642  13.696  0.00  0.00    +0.000 OA
BRANCH  20  21
ATOM     21  C   UNL     1       6.429   3.736  12.268  0.00  0.00    +0.000 C 
BRANCH  21  24
ATOM     22  C   UNL     1       5.957   0.208  10.942  0.00  0.00    +0.000 C 
ATOM     23  N   UNL     1       6.487   1.398  11.553  0.00  0.00    +0.000 N 
ATOM     24  C   UNL     1       5.715   2.537  11.660  0.00  0.00    +0.000 C 
ATOM     25  O   UNL     1       4.552   2.597  11.268  0.00  0.00    +0.000 OA
ATOM     26  H   UNL     1       7.471   1.441  11.792  0.00  0.00    +0.000 HD
ENDBRANCH  21  24
ENDBRANCH  20  21
ENDBRANCH  18  20
ENDBRANCH   1  18
TORSDOF 4
ENDMDL
MODEL 9
REMARK VINA RESULT:      -8.0      5.308      7.620
REMARK  Name = 
REMARK  5 active torsions:
REMARK  status: ('A' for Active; 'I' for Inactive)
REMARK    1  A    between atoms: C_1  and  N_2
REMARK    2  A    between atoms: C_3  and  C_5
REMARK    3  A    between atoms: C_5  and  O_6
REMARK    4  A    between atoms: O_6  and  C_7
REMARK    5  A    between atoms: C_7  and  C_9
REMARK                            x       y       z     vdW  Elec       q    Type
REMARK                         _______ _______ _______ _____ _____    ______ ____
ROOT
ATOM      1  C   UNL     1       2.408   7.474  18.868  0.00  0.00    +0.000 A 
ATOM      2  C   UNL     1       2.316   8.422  17.842  0.00  0.00    +0.000 A 
ATOM      3  C   UNL     1       1.592   9.610  18.041  0.00  0.00    +0.000 A 
ATOM      4  C   UNL     1       0.955   9.876  19.269  0.00  0.00    +0.000 A 
ATOM      5  C   UNL     1       1.063   8.920  20.269  0.00  0.00    +0.000 A 
ATOM      6  C   UNL     1       1.770   7.728  20.082  0.00  0.00    +0.000 A 
ATOM      7  S   UNL     1       0.343   9.170  21.836  0.00  0.00    +0.000 S 
ATOM      8  O   UNL     1       1.445   9.298  22.768  0.00  0.00    +0.000 OA
ATOM      9  O   UNL     1      -0.672   8.146  21.983  0.00  0.00    +0.000 OA
ATOM     10  C   UNL     1      -0.487  10.700  21.837  0.00  0.00    +0.000 A 
ATOM     11  C   UNL     1      -1.150  11.073  23.014  0.00  0.00    +0.000 A 
ATOM     12  C   UNL     1      -1.817  12.288  23.070  0.00  0.00    +0.000 A 
ATOM     13  C   UNL     1      -1.821  13.122  21.954  0.00  0.00    +0.000 A 
ATOM     14  C   UNL     1      -1.157  12.737  20.782  0.00  0.00    +0.000 A 
ATOM     15  C   UNL     1      -0.479  11.511  20.709  0.00  0.00    +0.000 A 
ATOM     16  C   UNL     1       0.210  11.149  19.441  0.00  0.00    +0.000 C 
ATOM     17  O   UNL     1       0.162  11.932  18.493  0.00  0.00    +0.000 OA
ENDROOT
BRANCH   1  18
ATOM     18  C   UNL     1       3.152   6.194  18.758  0.00  0.00    +0.000 C 
ATOM     19  O   UNL     1       4.168   5.966  19.395  0.00  0.00    +0.000 OA
BRANCH  18  20
ATOM     20  O   UNL     1       2.575   5.361  17.866  0.00  0.00    +0.000 OA
BRANCH  20  21
ATOM     21  C   UNL     1       2.719   3.966  18.151  0.00  0.00    +0.000 C 
BRANCH  21  24
ATOM     22  C   UNL     1       2.207   2.721  21.703  0.00  0.00    +0.000 C 
ATOM     23  N   UNL     1       2.782   3.169  20.462  0.00  0.00    +0.000 N 
ATOM     24  C   UNL     1       1.974   3.583  19.423  0.00  0.00    +0.000 C 
ATOM     25  O   UNL     1       0.748   3.613  19.498  0.00  0.00    +0.000 OA
ATOM     26  H   UNL     1       3.778   3.060  20.304  0.00  0.00    +0.000 HD
ENDBRANCH  21  24
ENDBRANCH  20  21
ENDBRANCH  18  20
ENDBRANCH   1  18
TORSDOF 4
ENDMDL
