MODEL 1
REMARK VINA RESULT:      -8.1      0.000      0.000
REMARK  Name = 
REMARK  2 active torsions:
REMARK  status: ('A' for Active; 'I' for Inactive)
REMARK    1  A    between atoms: C_2  and  C_3
REMARK    2  A    between atoms: C_13  and  C_14
REMARK                            x       y       z     vdW  Elec       q    Type
REMARK                         _______ _______ _______ _____ _____    ______ ____
ROOT
ATOM      1  O   UNL     1       2.460  11.437  17.925  0.00  0.00    +0.000 OA
ATOM      2  C   UNL     1       1.557  11.535  18.760  0.00  0.00    +0.000 C 
ATOM      3  N   UNL     1       0.870  10.421  19.262  0.00  0.00    +0.000 N 
ATOM      4  C   UNL     1      -0.292  10.454  20.155  0.00  0.00    +0.000 C 
ATOM      5  C   UNL     1       0.054   9.801  21.490  0.00  0.00    +0.000 C 
ATOM      6  C   UNL     1       0.559   8.374  21.268  0.00  0.00    +0.000 C 
ATOM      7  C   UNL     1       1.712   8.341  20.252  0.00  0.00    +0.000 C 
ATOM      8  C   UNL     1       1.356   9.077  18.955  0.00  0.00    +0.000 C 
ENDROOT
BRANCH   7   9
ATOM      9  C   UNL     1       2.141   6.923  19.936  0.00  0.00    +0.000 C 
ATOM     10  N   UNL     1       2.632   6.654  18.773  0.00  0.00    +0.000 NA
ATOM     11  C   UNL     1       3.125   5.378  18.450  0.00  0.00    +0.000 A 
ATOM     12  C   UNL     1       3.925   5.268  17.309  0.00  0.00    +0.000 A 
ATOM     13  C   UNL     1       4.461   4.035  16.920  0.00  0.00    +0.000 A 
ATOM     14  C   UNL     1       4.204   2.890  17.673  0.00  0.00    +0.000 A 
ATOM     15  C   UNL     1       3.413   2.977  18.813  0.00  0.00    +0.000 A 
ATOM     16  C   UNL     1       2.881   4.218  19.177  0.00  0.00    +0.000 A 
ATOM     17  S   UNL     1       1.892   4.354  20.602  0.00  0.00    +0.000 S 
ATOM     18  O   UNL     1       0.518   4.076  20.238  0.00  0.00    +0.000 OA
ATOM     19  O   UNL     1       2.540   3.660  21.685  0.00  0.00    +0.000 OA
ATOM     20  N   UNL     1       2.006   5.971  20.947  0.00  0.00    +0.000 N 
ATOM     21  H   UNL     1       1.882   6.193  21.928  0.00  0.00    +0.000 HD
ENDBRANCH   7   9
BRANCH   2  22
ATOM     22  C   UNL     1       1.201  12.898  19.236  0.00  0.00    +0.000 A 
ATOM     23  C   UNL     1       1.815  13.430  20.360  0.00  0.00    +0.000 A 
ATOM     24  N   UNL     1       1.534  14.684  20.807  0.00  0.00    +0.000 NA
ATOM     25  C   UNL     1       0.612  15.368  20.089  0.00  0.00    +0.000 A 
ATOM     26  C   UNL     1      -0.011  14.832  18.979  0.00  0.00    +0.000 A 
ATOM     27  N   UNL     1       0.247  13.583  18.549  0.00  0.00    +0.000 NA
ENDBRANCH   2  22
TORSDOF 2
ENDMDL
MODEL 2
REMARK VINA RESULT:      -8.0      1.189      1.512
REMARK  Name = 
REMARK  2 active torsions:
REMARK  status: ('A' for Active; 'I' for Inactive)
REMARK    1  A    between atoms: C_2  and  C_3
REMARK    2  A    between atoms: C_13  and  C_14
REMARK                            x       y       z     vdW  Elec       q    Type
REMARK                         _______ _______ _______ _____ _____    ______ ____
ROOT
ATOM      1  O   UNL     1       1.931  11.805  18.353  0.00  0.00    +0.000 OA
ATOM      2  C   UNL     1       1.107  11.589  19.247  0.00  0.00    +0.000 C 
ATOM      3  N   UNL     1       0.655  10.301  19.561  0.00  0.00    +0.000 N 
ATOM      4  C   UNL     1      -0.407   9.967  20.515  0.00  0.00    +0.000 C 
ATOM      5  C   UNL     1       0.164   9.147  21.668  0.00  0.00    +0.000 C 
ATOM      6  C   UNL     1       0.864   7.894  21.135  0.00  0.00    +0.000 C 
ATOM      7  C   UNL     1       1.905   8.250  20.061  0.00  0.00    +0.000 C 
ATOM      8  C   UNL     1       1.314   9.141  18.962  0.00  0.00    +0.000 C 
ENDROOT
BRANCH   7   9
ATOM      9  C   UNL     1       2.518   7.011  19.443  0.00  0.00    +0.000 C 
ATOM     10  N   UNL     1       3.104   7.099  18.296  0.00  0.00    +0.000 NA
ATOM     11  C   UNL     1       3.765   6.005  17.713  0.00  0.00    +0.000 A 
ATOM     12  C   UNL     1       4.636   6.271  16.653  0.00  0.00    +0.000 A 
ATOM     13  C   UNL     1       5.338   5.239  16.018  0.00  0.00    +0.000 A 
ATOM     14  C   UNL     1       5.178   3.920  16.441  0.00  0.00    +0.000 A 
ATOM     15  C   UNL     1       4.318   3.633  17.495  0.00  0.00    +0.000 A 
ATOM     16  C   UNL     1       3.620   4.679  18.107  0.00  0.00    +0.000 A 
ATOM     17  S   UNL     1       2.541   4.346  19.430  0.00  0.00    +0.000 S 
ATOM     18  O   UNL     1       1.235   4.031  18.892  0.00  0.00    +0.000 OA
ATOM     19  O   UNL     1       3.205   3.468  20.360  0.00  0.00    +0.000 OA
ATOM     20  N   UNL     1       2.440   5.824  20.172  0.00  0.00    +0.000 N 
ATOM     21  H   UNL     1       2.235   5.775  21.163  0.00  0.00    +0.000 HD
ENDBRANCH   7   9
BRANCH   2  22
ATOM     22  C   UNL     1       0.589  12.759  20.006  0.00  0.00    +0.000 A 
ATOM     23  C   UNL     1      -0.499  13.476  19.532  0.00  0.00    +0.000 A 
ATOM     24  N   UNL     1      -1.016  14.533  20.215  0.00  0.00    +0.000 NA
ATOM     25  C   UNL     1      -0.393  14.840  21.377  0.00  0.00    +0.000 A 
ATOM     26  C   UNL     1       0.700  14.135  21.842  0.00  0.00    +0.000 A 
ATOM     27  N   UNL     1       1.228  13.104  21.157  0.00  0.00    +0.000 NA
ENDBRANCH   2  22
TORSDOF 2
ENDMDL
MODEL 3
REMARK VINA RESULT:      -8.0      1.484      1.699
REMARK  Name = 
REMARK  2 active torsions:
REMARK  status: ('A' for Active; 'I' for Inactive)
REMARK    1  A    between atoms: C_2  and  C_3
REMARK    2  A    between atoms: C_13  and  C_14
REMARK                            x       y       z     vdW  Elec       q    Type
REMARK                         _______ _______ _______ _____ _____    ______ ____
ROOT
ATOM      1  O   UNL     1       1.863  11.773  18.208  0.00  0.00    +0.000 OA
ATOM      2  C   UNL     1       1.137  11.469  19.159  0.00  0.00    +0.000 C 
ATOM      3  N   UNL     1       0.755  10.147  19.423  0.00  0.00    +0.000 N 
ATOM      4  C   UNL     1      -0.200   9.713  20.448  0.00  0.00    +0.000 C 
ATOM      5  C   UNL     1       0.503   8.838  21.481  0.00  0.00    +0.000 C 
ATOM      6  C   UNL     1       1.182   7.650  20.798  0.00  0.00    +0.000 C 
ATOM      7  C   UNL     1       2.104   8.112  19.657  0.00  0.00    +0.000 C 
ATOM      8  C   UNL     1       1.384   9.055  18.685  0.00  0.00    +0.000 C 
ENDROOT
BRANCH   7   9
ATOM      9  C   UNL     1       2.689   6.940  18.899  0.00  0.00    +0.000 C 
ATOM     10  N   UNL     1       3.486   7.161  17.907  0.00  0.00    +0.000 NA
ATOM     11  C   UNL     1       4.126   6.116  17.220  0.00  0.00    +0.000 A 
ATOM     12  C   UNL     1       5.204   6.453  16.397  0.00  0.00    +0.000 A 
ATOM     13  C   UNL     1       5.900   5.473  15.680  0.00  0.00    +0.000 A 
ATOM     14  C   UNL     1       5.526   4.134  15.781  0.00  0.00    +0.000 A 
ATOM     15  C   UNL     1       4.458   3.775  16.596  0.00  0.00    +0.000 A 
ATOM     16  C   UNL     1       3.771   4.773  17.294  0.00  0.00    +0.000 A 
ATOM     17  S   UNL     1       2.434   4.350  18.323  0.00  0.00    +0.000 S 
ATOM     18  O   UNL     1       1.226   4.331  17.526  0.00  0.00    +0.000 OA
ATOM     19  O   UNL     1       2.816   3.226  19.141  0.00  0.00    +0.000 OA
ATOM     20  N   UNL     1       2.351   5.659  19.336  0.00  0.00    +0.000 N 
ATOM     21  H   UNL     1       1.959   5.451  20.247  0.00  0.00    +0.000 HD
ENDBRANCH   7   9
BRANCH   2  22
ATOM     22  C   UNL     1       0.663  12.566  20.045  0.00  0.00    +0.000 A 
ATOM     23  C   UNL     1       1.431  12.977  21.124  0.00  0.00    +0.000 A 
ATOM     24  N   UNL     1       1.040  13.996  21.937  0.00  0.00    +0.000 NA
ATOM     25  C   UNL     1      -0.146  14.570  21.628  0.00  0.00    +0.000 A 
ATOM     26  C   UNL     1      -0.919  14.150  20.563  0.00  0.00    +0.000 A 
ATOM     27  N   UNL     1      -0.546  13.127  19.770  0.00  0.00    +0.000 NA
ENDBRANCH   2  22
TORSDOF 2
ENDMDL
MODEL 4
REMARK VINA RESULT:      -7.9      1.830      2.427
REMARK  Name = 
REMARK  2 active torsions:
REMARK  status: ('A' for Active; 'I' for Inactive)
REMARK    1  A    between atoms: C_2  and  C_3
REMARK    2  A    between atoms: C_13  and  C_14
REMARK                            x       y       z     vdW  Elec       q    Type
REMARK                         _______ _______ _______ _____ _____    ______ ____
ROOT
ATOM      1  O   UNL     1       2.218  11.512  18.173  0.00  0.00    +0.000 OA
ATOM      2  C   UNL     1       1.407  11.431  19.101  0.00  0.00    +0.000 C 
ATOM      3  N   UNL     1       0.848  10.213  19.510  0.00  0.00    +0.000 N 
ATOM      4  C   UNL     1      -0.208  10.042  20.512  0.00  0.00    +0.000 C 
ATOM      5  C   UNL     1       0.321   9.245  21.700  0.00  0.00    +0.000 C 
ATOM      6  C   UNL     1       0.883   7.901  21.232  0.00  0.00    +0.000 C 
ATOM      7  C   UNL     1       1.917   8.088  20.110  0.00  0.00    +0.000 C 
ATOM      8  C   UNL     1       1.376   8.961  18.971  0.00  0.00    +0.000 C 
ENDROOT
BRANCH   7   9
ATOM      9  C   UNL     1       2.392   6.760  19.558  0.00  0.00    +0.000 C 
ATOM     10  N   UNL     1       1.878   5.666  20.011  0.00  0.00    +0.000 NA
ATOM     11  C   UNL     1       2.216   4.410  19.479  0.00  0.00    +0.000 A 
ATOM     12  C   UNL     1       1.383   3.333  19.795  0.00  0.00    +0.000 A 
ATOM     13  C   UNL     1       1.644   2.049  19.303  0.00  0.00    +0.000 A 
ATOM     14  C   UNL     1       2.748   1.825  18.481  0.00  0.00    +0.000 A 
ATOM     15  C   UNL     1       3.589   2.882  18.152  0.00  0.00    +0.000 A 
ATOM     16  C   UNL     1       3.313   4.154  18.663  0.00  0.00    +0.000 A 
ATOM     17  S   UNL     1       4.347   5.494  18.262  0.00  0.00    +0.000 S 
ATOM     18  O   UNL     1       5.431   5.543  19.221  0.00  0.00    +0.000 OA
ATOM     19  O   UNL     1       4.596   5.480  16.843  0.00  0.00    +0.000 OA
ATOM     20  N   UNL     1       3.357   6.791  18.551  0.00  0.00    +0.000 N 
ATOM     21  H   UNL     1       3.580   7.611  17.998  0.00  0.00    +0.000 HD
ENDBRANCH   7   9
BRANCH   2  22
ATOM     22  C   UNL     1       1.026  12.689  19.796  0.00  0.00    +0.000 A 
ATOM     23  C   UNL     1       0.039  13.510  19.269  0.00  0.00    +0.000 A 
ATOM     24  N   UNL     1      -0.354  14.653  19.893  0.00  0.00    +0.000 NA
ATOM     25  C   UNL     1       0.286  14.937  21.052  0.00  0.00    +0.000 A 
ATOM     26  C   UNL     1       1.279  14.128  21.569  0.00  0.00    +0.000 A 
ATOM     27  N   UNL     1       1.687  13.009  20.942  0.00  0.00    +0.000 NA
ENDBRANCH   2  22
TORSDOF 2
ENDMDL
MODEL 5
REMARK VINA RESULT:      -7.8      1.631      2.228
REMARK  Name = 
REMARK  2 active torsions:
REMARK  status: ('A' for Active; 'I' for Inactive)
REMARK    1  A    between atoms: C_2  and  C_3
REMARK    2  A    between atoms: C_13  and  C_14
REMARK                            x       y       z     vdW  Elec       q    Type
REMARK                         _______ _______ _______ _____ _____    ______ ____
ROOT
ATOM      1  O   UNL     1       2.579  11.530  17.832  0.00  0.00    +0.000 OA
ATOM      2  C   UNL     1       1.706  11.616  18.700  0.00  0.00    +0.000 C 
ATOM      3  N   UNL     1       1.010  10.500  19.183  0.00  0.00    +0.000 N 
ATOM      4  C   UNL     1      -0.121  10.525  20.115  0.00  0.00    +0.000 C 
ATOM      5  C   UNL     1       0.253   9.812  21.411  0.00  0.00    +0.000 C 
ATOM      6  C   UNL     1       0.716   8.383  21.118  0.00  0.00    +0.000 C 
ATOM      7  C   UNL     1       1.834   8.364  20.063  0.00  0.00    +0.000 C 
ATOM      8  C   UNL     1       1.452   9.158  18.808  0.00  0.00    +0.000 C 
ENDROOT
BRANCH   7   9
ATOM      9  C   UNL     1       2.218   6.950  19.679  0.00  0.00    +0.000 C 
ATOM     10  N   UNL     1       1.686   5.956  20.309  0.00  0.00    +0.000 NA
ATOM     11  C   UNL     1       1.937   4.623  19.942  0.00  0.00    +0.000 A 
ATOM     12  C   UNL     1       1.080   3.644  20.452  0.00  0.00    +0.000 A 
ATOM     13  C   UNL     1       1.257   2.293  20.132  0.00  0.00    +0.000 A 
ATOM     14  C   UNL     1       2.298   1.902  19.291  0.00  0.00    +0.000 A 
ATOM     15  C   UNL     1       3.161   2.860  18.771  0.00  0.00    +0.000 A 
ATOM     16  C   UNL     1       2.971   4.202  19.112  0.00  0.00    +0.000 A 
ATOM     17  S   UNL     1       4.035   5.420  18.471  0.00  0.00    +0.000 S 
ATOM     18  O   UNL     1       5.176   5.546  19.353  0.00  0.00    +0.000 OA
ATOM     19  O   UNL     1       4.197   5.197  17.057  0.00  0.00    +0.000 OA
ATOM     20  N   UNL     1       3.121   6.793  18.627  0.00  0.00    +0.000 N 
ATOM     21  H   UNL     1       3.344   7.516  17.953  0.00  0.00    +0.000 HD
ENDBRANCH   7   9
BRANCH   2  22
ATOM     22  C   UNL     1       1.399  12.968  19.240  0.00  0.00    +0.000 A 
ATOM     23  C   UNL     1       2.041  13.430  20.380  0.00  0.00    +0.000 A 
ATOM     24  N   UNL     1       1.805  14.671  20.884  0.00  0.00    +0.000 NA
ATOM     25  C   UNL     1       0.899  15.415  20.207  0.00  0.00    +0.000 A 
ATOM     26  C   UNL     1       0.247  14.949  19.082  0.00  0.00    +0.000 A 
ATOM     27  N   UNL     1       0.461  13.713  18.594  0.00  0.00    +0.000 NA
ENDBRANCH   2  22
TORSDOF 2
ENDMDL
MODEL 6
REMARK VINA RESULT:      -7.8      2.462      2.988
REMARK  Name = 
REMARK  2 active torsions:
REMARK  status: ('A' for Active; 'I' for Inactive)
REMARK    1  A    between atoms: C_2  and  C_3
REMARK    2  A    between atoms: C_13  and  C_14
REMARK                            x       y       z     vdW  Elec       q    Type
REMARK                         _______ _______ _______ _____ _____    ______ ____
ROOT
ATOM      1  O   UNL     1      -0.451  10.000  23.495  0.00  0.00    +0.000 OA
ATOM      2  C   UNL     1      -0.284  10.840  22.605  0.00  0.00    +0.000 C 
ATOM      3  N   UNL     1       0.658  10.674  21.581  0.00  0.00    +0.000 N 
ATOM      4  C   UNL     1       1.009  11.669  20.563  0.00  0.00    +0.000 C 
ATOM      5  C   UNL     1       0.641  11.151  19.176  0.00  0.00    +0.000 C 
ATOM      6  C   UNL     1       1.320   9.806  18.913  0.00  0.00    +0.000 C 
ATOM      7  C   UNL     1       1.027   8.802  20.040  0.00  0.00    +0.000 C 
ATOM      8  C   UNL     1       1.333   9.388  21.424  0.00  0.00    +0.000 C 
ENDROOT
BRANCH   7   9
ATOM      9  C   UNL     1       1.789   7.507  19.850  0.00  0.00    +0.000 C 
ATOM     10  N   UNL     1       2.512   7.347  18.792  0.00  0.00    +0.000 NA
ATOM     11  C   UNL     1       3.307   6.205  18.600  0.00  0.00    +0.000 A 
ATOM     12  C   UNL     1       4.290   6.265  17.609  0.00  0.00    +0.000 A 
ATOM     13  C   UNL     1       5.129   5.173  17.356  0.00  0.00    +0.000 A 
ATOM     14  C   UNL     1       4.997   4.001  18.100  0.00  0.00    +0.000 A 
ATOM     15  C   UNL     1       4.027   3.920  19.093  0.00  0.00    +0.000 A 
ATOM     16  C   UNL     1       3.194   5.020  19.321  0.00  0.00    +0.000 A 
ATOM     17  S   UNL     1       1.976   4.946  20.560  0.00  0.00    +0.000 S 
ATOM     18  O   UNL     1       0.771   4.381  19.990  0.00  0.00    +0.000 OA
ATOM     19  O   UNL     1       2.567   4.407  21.759  0.00  0.00    +0.000 OA
ATOM     20  N   UNL     1       1.691   6.550  20.860  0.00  0.00    +0.000 N 
ATOM     21  H   UNL     1       1.362   6.742  21.799  0.00  0.00    +0.000 HD
ENDBRANCH   7   9
BRANCH   2  22
ATOM     22  C   UNL     1      -1.126  12.065  22.644  0.00  0.00    +0.000 A 
ATOM     23  C   UNL     1      -2.340  12.102  21.975  0.00  0.00    +0.000 A 
ATOM     24  N   UNL     1      -3.148  13.196  22.012  0.00  0.00    +0.000 NA
ATOM     25  C   UNL     1      -2.683  14.243  22.735  0.00  0.00    +0.000 A 
ATOM     26  C   UNL     1      -1.466  14.211  23.388  0.00  0.00    +0.000 A 
ATOM     27  N   UNL     1      -0.654  13.139  23.333  0.00  0.00    +0.000 NA
ENDBRANCH   2  22
TORSDOF 2
ENDMDL
MODEL 7
REMARK VINA RESULT:      -7.5      2.414      3.138
REMARK  Name = 
REMARK  2 active torsions:
REMARK  status: ('A' for Active; 'I' for Inactive)
REMARK    1  A    between atoms: C_2  and  C_3
REMARK    2  A    between atoms: C_13  and  C_14
REMARK                            x       y       z     vdW  Elec       q    Type
REMARK                         _______ _______ _______ _____ _____    ______ ____
ROOT
ATOM      1  O   UNL     1      -0.341   8.947  22.195  0.00  0.00    +0.000 OA
ATOM      2  C   UNL     1      -0.038   9.971  21.575  0.00  0.00    +0.000 C 
ATOM      3  N   UNL     1       1.042  10.021  20.683  0.00  0.00    +0.000 N 
ATOM      4  C   UNL     1       1.546  11.219  20.005  0.00  0.00    +0.000 C 
ATOM      5  C   UNL     1       1.380  11.074  18.496  0.00  0.00    +0.000 C 
ATOM      6  C   UNL     1       2.079   9.806  18.002  0.00  0.00    +0.000 C 
ATOM      7  C   UNL     1       1.616   8.570  18.790  0.00  0.00    +0.000 C 
ATOM      8  C   UNL     1       1.721   8.783  20.305  0.00  0.00    +0.000 C 
ENDROOT
BRANCH   7   9
ATOM      9  C   UNL     1       2.386   7.329  18.391  0.00  0.00    +0.000 C 
ATOM     10  N   UNL     1       3.310   7.418  17.493  0.00  0.00    +0.000 NA
ATOM     11  C   UNL     1       4.115   6.321  17.143  0.00  0.00    +0.000 A 
ATOM     12  C   UNL     1       5.282   6.585  16.421  0.00  0.00    +0.000 A 
ATOM     13  C   UNL     1       6.143   5.551  16.036  0.00  0.00    +0.000 A 
ATOM     14  C   UNL     1       5.846   4.231  16.374  0.00  0.00    +0.000 A 
ATOM     15  C   UNL     1       4.691   3.945  17.094  0.00  0.00    +0.000 A 
ATOM     16  C   UNL     1       3.842   4.994  17.459  0.00  0.00    +0.000 A 
ATOM     17  S   UNL     1       2.393   4.664  18.364  0.00  0.00    +0.000 S 
ATOM     18  O   UNL     1       1.326   4.364  17.433  0.00  0.00    +0.000 OA
ATOM     19  O   UNL     1       2.718   3.774  19.450  0.00  0.00    +0.000 OA
ATOM     20  N   UNL     1       2.070   6.138  19.047  0.00  0.00    +0.000 N 
ATOM     21  H   UNL     1       1.557   6.085  19.919  0.00  0.00    +0.000 HD
ENDBRANCH   7   9
BRANCH   2  22
ATOM     22  C   UNL     1      -0.866  11.186  21.801  0.00  0.00    +0.000 A 
ATOM     23  C   UNL     1      -1.723  11.643  20.811  0.00  0.00    +0.000 A 
ATOM     24  N   UNL     1      -2.515  12.734  20.995  0.00  0.00    +0.000 NA
ATOM     25  C   UNL     1      -2.402  13.344  22.199  0.00  0.00    +0.000 A 
ATOM     26  C   UNL     1      -1.537  12.898  23.178  0.00  0.00    +0.000 A 
ATOM     27  N   UNL     1      -0.735  11.833  22.991  0.00  0.00    +0.000 NA
ENDBRANCH   2  22
TORSDOF 2
ENDMDL
MODEL 8
REMARK VINA RESULT:      -7.0      2.632      3.327
REMARK  Name = 
REMARK  2 active torsions:
REMARK  status: ('A' for Active; 'I' for Inactive)
REMARK    1  A    between atoms: C_2  and  C_3
REMARK    2  A    between atoms: C_13  and  C_14
REMARK                            x       y       z     vdW  Elec       q    Type
REMARK                         _______ _______ _______ _____ _____    ______ ____
ROOT
ATOM      1  O   UNL     1      -0.469   8.839  21.888  0.00  0.00    +0.000 OA
ATOM      2  C   UNL     1      -0.060   9.766  21.183  0.00  0.00    +0.000 C 
ATOM      3  N   UNL     1       1.071   9.649  20.365  0.00  0.00    +0.000 N 
ATOM      4  C   UNL     1       1.696  10.731  19.597  0.00  0.00    +0.000 C 
ATOM      5  C   UNL     1       1.610  10.429  18.103  0.00  0.00    +0.000 C 
ATOM      6  C   UNL     1       2.248   9.073  17.797  0.00  0.00    +0.000 C 
ATOM      7  C   UNL     1       1.655   7.964  18.681  0.00  0.00    +0.000 C 
ATOM      8  C   UNL     1       1.685   8.338  20.168  0.00  0.00    +0.000 C 
ENDROOT
BRANCH   7   9
ATOM      9  C   UNL     1       2.361   6.641  18.470  0.00  0.00    +0.000 C 
ATOM     10  N   UNL     1       1.829   5.558  18.931  0.00  0.00    +0.000 NA
ATOM     11  C   UNL     1       2.392   4.293  18.694  0.00  0.00    +0.000 A 
ATOM     12  C   UNL     1       1.590   3.176  18.940  0.00  0.00    +0.000 A 
ATOM     13  C   UNL     1       2.071   1.879  18.725  0.00  0.00    +0.000 A 
ATOM     14  C   UNL     1       3.369   1.683  18.255  0.00  0.00    +0.000 A 
ATOM     15  C   UNL     1       4.185   2.780  18.002  0.00  0.00    +0.000 A 
ATOM     16  C   UNL     1       3.685   4.066  18.233  0.00  0.00    +0.000 A 
ATOM     17  S   UNL     1       4.684   5.455  17.920  0.00  0.00    +0.000 S 
ATOM     18  O   UNL     1       5.462   5.741  19.106  0.00  0.00    +0.000 OA
ATOM     19  O   UNL     1       5.306   5.297  16.630  0.00  0.00    +0.000 OA
ATOM     20  N   UNL     1       3.557   6.658  17.752  0.00  0.00    +0.000 N 
ATOM     21  H   UNL     1       3.857   7.424  17.161  0.00  0.00    +0.000 HD
ENDBRANCH   7   9
BRANCH   2  22
ATOM     22  C   UNL     1      -0.815  11.047  21.222  0.00  0.00    +0.000 A 
ATOM     23  C   UNL     1      -0.798  11.837  22.362  0.00  0.00    +0.000 A 
ATOM     24  N   UNL     1      -1.453  13.027  22.421  0.00  0.00    +0.000 NA
ATOM     25  C   UNL     1      -2.127  13.381  21.301  0.00  0.00    +0.000 A 
ATOM     26  C   UNL     1      -2.157  12.587  20.171  0.00  0.00    +0.000 A 
ATOM     27  N   UNL     1      -1.529  11.398  20.118  0.00  0.00    +0.000 NA
ENDBRANCH   2  22
TORSDOF 2
ENDMDL
MODEL 9
REMARK VINA RESULT:      -7.0      2.788      3.603
REMARK  Name = 
REMARK  2 active torsions:
REMARK  status: ('A' for Active; 'I' for Inactive)
REMARK    1  A    between atoms: C_2  and  C_3
REMARK    2  A    between atoms: C_13  and  C_14
REMARK                            x       y       z     vdW  Elec       q    Type
REMARK                         _______ _______ _______ _____ _____    ______ ____
ROOT
ATOM      1  O   UNL     1      -0.389   8.829  22.105  0.00  0.00    +0.000 OA
ATOM      2  C   UNL     1      -0.029   9.842  21.498  0.00  0.00    +0.000 C 
ATOM      3  N   UNL     1       1.063   9.846  20.620  0.00  0.00    +0.000 N 
ATOM      4  C   UNL     1       1.634  11.024  19.959  0.00  0.00    +0.000 C 
ATOM      5  C   UNL     1       1.480  10.902  18.446  0.00  0.00    +0.000 C 
ATOM      6  C   UNL     1       2.121   9.605  17.949  0.00  0.00    +0.000 C 
ATOM      7  C   UNL     1       1.588   8.386  18.720  0.00  0.00    +0.000 C 
ATOM      8  C   UNL     1       1.685   8.580  20.238  0.00  0.00    +0.000 C 
ENDROOT
BRANCH   7   9
ATOM      9  C   UNL     1       2.301   7.112  18.318  0.00  0.00    +0.000 C 
ATOM     10  N   UNL     1       1.871   5.978  18.762  0.00  0.00    +0.000 NA
ATOM     11  C   UNL     1       2.437   4.758  18.358  0.00  0.00    +0.000 A 
ATOM     12  C   UNL     1       1.712   3.593  18.622  0.00  0.00    +0.000 A 
ATOM     13  C   UNL     1       2.201   2.337  18.248  0.00  0.00    +0.000 A 
ATOM     14  C   UNL     1       3.429   2.228  17.598  0.00  0.00    +0.000 A 
ATOM     15  C   UNL     1       4.167   3.374  17.322  0.00  0.00    +0.000 A 
ATOM     16  C   UNL     1       3.662   4.618  17.715  0.00  0.00    +0.000 A 
ATOM     17  S   UNL     1       4.565   6.067  17.378  0.00  0.00    +0.000 S 
ATOM     18  O   UNL     1       5.486   6.300  18.469  0.00  0.00    +0.000 OA
ATOM     19  O   UNL     1       5.012   6.027  16.009  0.00  0.00    +0.000 OA
ATOM     20  N   UNL     1       3.388   7.230  17.451  0.00  0.00    +0.000 N 
ATOM     21  H   UNL     1       3.580   8.048  16.886  0.00  0.00    +0.000 HD
ENDBRANCH   7   9
BRANCH   2  22
ATOM     22  C   UNL     1      -0.798  11.094  21.726  0.00  0.00    +0.000 A 
ATOM     23  C   UNL     1      -1.646  11.584  20.744  0.00  0.00    +0.000 A 
ATOM     24  N   UNL     1      -2.386  12.711  20.929  0.00  0.00    +0.000 NA
ATOM     25  C   UNL     1      -2.231  13.321  22.128  0.00  0.00    +0.000 A 
ATOM     26  C   UNL     1      -1.375  12.842  23.100  0.00  0.00    +0.000 A 
ATOM     27  N   UNL     1      -0.624  11.741  22.910  0.00  0.00    +0.000 NA
ENDBRANCH   2  22
TORSDOF 2
ENDMDL
