MODEL 1
REMARK VINA RESULT:      -6.8      0.000      0.000
REMARK  Name = 
REMARK  2 active torsions:
REMARK  status: ('A' for Active; 'I' for Inactive)
REMARK    1  A    between atoms: C_1  and  N_2
REMARK    2  A    between atoms: C_12  and  C_13
REMARK                            x       y       z     vdW  Elec       q    Type
REMARK                         _______ _______ _______ _____ _____    ______ ____
ROOT
ATOM      1  C   UNL     1       7.657   5.479  19.989  0.00  0.00    +0.000 C 
ATOM      2  N   UNL     1       7.568   5.474  18.536  0.00  0.00    +0.000 NA
ATOM      3  C   UNL     1       7.426   6.812  17.976  0.00  0.00    +0.000 C 
ATOM      4  C   UNL     1       7.593   6.827  16.451  0.00  0.00    +0.000 C 
ATOM      5  C   UNL     1       7.004   5.634  15.736  0.00  0.00    +0.000 A 
ATOM      6  C   UNL     1       7.015   5.606  14.333  0.00  0.00    +0.000 A 
ATOM      7  C   UNL     1       6.569   4.474  13.659  0.00  0.00    +0.000 A 
ATOM      8  F   UNL     1       6.612   4.442  12.323  0.00  0.00    +0.000 F 
ATOM      9  C   UNL     1       6.102   3.363  14.352  0.00  0.00    +0.000 A 
ATOM     10  C   UNL     1       6.098   3.387  15.750  0.00  0.00    +0.000 A 
ATOM     11  C   UNL     1       6.551   4.515  16.457  0.00  0.00    +0.000 A 
ATOM     12  C   UNL     1       6.612   4.482  17.984  0.00  0.00    +0.000 C 
ENDROOT
BRANCH  12  13
ATOM     13  C   UNL     1       5.230   4.440  18.630  0.00  0.00    +0.000 A 
ATOM     14  S   UNL     1       4.756   2.972  19.418  0.00  0.00    +0.000 S 
ATOM     15  C   UNL     1       3.193   3.567  19.796  0.00  0.00    +0.000 A 
ATOM     16  C   UNL     1       2.087   2.856  20.295  0.00  0.00    +0.000 A 
ATOM     17  C   UNL     1       0.931   3.565  20.637  0.00  0.00    +0.000 A 
ATOM     18  C   UNL     1       0.909   4.951  20.583  0.00  0.00    +0.000 A 
ATOM     19  C   UNL     1       1.993   5.643  20.046  0.00  0.00    +0.000 A 
ATOM     20  C   UNL     1       3.119   4.936  19.552  0.00  0.00    +0.000 A 
ATOM     21  C   UNL     1       4.179   5.336  18.656  0.00  0.00    +0.000 A 
ATOM     22 CL   UNL     1       3.977   6.759  17.722  0.00  0.00    +0.000 Cl
ENDBRANCH  12  13
TORSDOF 1
ENDMDL
MODEL 2
REMARK VINA RESULT:      -6.5      9.671     12.105
REMARK  Name = 
REMARK  2 active torsions:
REMARK  status: ('A' for Active; 'I' for Inactive)
REMARK    1  A    between atoms: C_1  and  N_2
REMARK    2  A    between atoms: C_12  and  C_13
REMARK                            x       y       z     vdW  Elec       q    Type
REMARK                         _______ _______ _______ _____ _____    ______ ____
ROOT
ATOM      1  C   UNL     1      -1.389  15.294  23.760  0.00  0.00    +0.000 C 
ATOM      2  N   UNL     1      -0.778  14.128  23.138  0.00  0.00    +0.000 NA
ATOM      3  C   UNL     1      -0.403  14.363  21.750  0.00  0.00    +0.000 C 
ATOM      4  C   UNL     1       0.467  13.234  21.181  0.00  0.00    +0.000 C 
ATOM      5  C   UNL     1       0.091  11.848  21.647  0.00  0.00    +0.000 A 
ATOM      6  C   UNL     1       0.760  10.740  21.103  0.00  0.00    +0.000 A 
ATOM      7  C   UNL     1       0.499   9.464  21.590  0.00  0.00    +0.000 A 
ATOM      8  F   UNL     1       1.164   8.418  21.090  0.00  0.00    +0.000 F 
ATOM      9  C   UNL     1      -0.426   9.260  22.608  0.00  0.00    +0.000 A 
ATOM     10  C   UNL     1      -1.088  10.362  23.155  0.00  0.00    +0.000 A 
ATOM     11  C   UNL     1      -0.837  11.665  22.688  0.00  0.00    +0.000 A 
ATOM     12  C   UNL     1      -1.513  12.859  23.360  0.00  0.00    +0.000 C 
ENDROOT
BRANCH  12  13
ATOM     13  C   UNL     1      -3.020  12.897  23.119  0.00  0.00    +0.000 A 
ATOM     14  S   UNL     1      -4.057  12.813  24.504  0.00  0.00    +0.000 S 
ATOM     15  C   UNL     1      -5.485  12.812  23.554  0.00  0.00    +0.000 A 
ATOM     16  C   UNL     1      -6.805  12.559  23.966  0.00  0.00    +0.000 A 
ATOM     17  C   UNL     1      -7.841  12.717  23.039  0.00  0.00    +0.000 A 
ATOM     18  C   UNL     1      -7.583  13.214  21.769  0.00  0.00    +0.000 A 
ATOM     19  C   UNL     1      -6.268  13.420  21.356  0.00  0.00    +0.000 A 
ATOM     20  C   UNL     1      -5.190  13.122  22.228  0.00  0.00    +0.000 A 
ATOM     21  C   UNL     1      -3.787  12.899  21.971  0.00  0.00    +0.000 A 
ATOM     22 CL   UNL     1      -3.282  12.601  20.359  0.00  0.00    +0.000 Cl
ENDBRANCH  12  13
TORSDOF 1
ENDMDL
MODEL 3
REMARK VINA RESULT:      -6.3      6.953      9.299
REMARK  Name = 
REMARK  2 active torsions:
REMARK  status: ('A' for Active; 'I' for Inactive)
REMARK    1  A    between atoms: C_1  and  N_2
REMARK    2  A    between atoms: C_12  and  C_13
REMARK                            x       y       z     vdW  Elec       q    Type
REMARK                         _______ _______ _______ _____ _____    ______ ____
ROOT
ATOM      1  C   UNL     1       1.803  12.721  20.226  0.00  0.00    +0.000 C 
ATOM      2  N   UNL     1       0.389  12.600  19.898  0.00  0.00    +0.000 NA
ATOM      3  C   UNL     1      -0.458  12.519  21.082  0.00  0.00    +0.000 C 
ATOM      4  C   UNL     1      -1.948  12.654  20.743  0.00  0.00    +0.000 C 
ATOM      5  C   UNL     1      -2.369  11.988  19.455  0.00  0.00    +0.000 A 
ATOM      6  C   UNL     1      -3.730  11.967  19.111  0.00  0.00    +0.000 A 
ATOM      7  C   UNL     1      -4.127  11.447  17.884  0.00  0.00    +0.000 A 
ATOM      8  F   UNL     1      -5.421  11.461  17.548  0.00  0.00    +0.000 F 
ATOM      9  C   UNL     1      -3.196  10.936  16.986  0.00  0.00    +0.000 A 
ATOM     10  C   UNL     1      -1.840  10.962  17.325  0.00  0.00    +0.000 A 
ATOM     11  C   UNL     1      -1.410  11.490  18.555  0.00  0.00    +0.000 A 
ATOM     12  C   UNL     1       0.084  11.582  18.864  0.00  0.00    +0.000 C 
ENDROOT
BRANCH  12  13
ATOM     13  C   UNL     1       0.734  10.213  19.047  0.00  0.00    +0.000 A 
ATOM     14  S   UNL     1       1.807   9.660  17.804  0.00  0.00    +0.000 S 
ATOM     15  C   UNL     1       2.067   8.147  18.569  0.00  0.00    +0.000 A 
ATOM     16  C   UNL     1       2.706   7.008  18.050  0.00  0.00    +0.000 A 
ATOM     17  C   UNL     1       2.905   5.908  18.890  0.00  0.00    +0.000 A 
ATOM     18  C   UNL     1       2.572   5.976  20.235  0.00  0.00    +0.000 A 
ATOM     19  C   UNL     1       1.899   7.091  20.730  0.00  0.00    +0.000 A 
ATOM     20  C   UNL     1       1.551   8.158  19.862  0.00  0.00    +0.000 A 
ATOM     21  C   UNL     1       0.586   9.223  19.999  0.00  0.00    +0.000 A 
ATOM     22 CL   UNL     1      -0.617   9.096  21.215  0.00  0.00    +0.000 Cl
ENDBRANCH  12  13
TORSDOF 1
ENDMDL
MODEL 4
REMARK VINA RESULT:      -6.2      8.314     10.526
REMARK  Name = 
REMARK  2 active torsions:
REMARK  status: ('A' for Active; 'I' for Inactive)
REMARK    1  A    between atoms: C_1  and  N_2
REMARK    2  A    between atoms: C_12  and  C_13
REMARK                            x       y       z     vdW  Elec       q    Type
REMARK                         _______ _______ _______ _____ _____    ______ ____
ROOT
ATOM      1  C   UNL     1      -0.477  14.444  19.332  0.00  0.00    +0.000 C 
ATOM      2  N   UNL     1       0.047  13.107  19.568  0.00  0.00    +0.000 NA
ATOM      3  C   UNL     1       0.609  12.503  18.365  0.00  0.00    +0.000 C 
ATOM      4  C   UNL     1       1.387  11.217  18.668  0.00  0.00    +0.000 C 
ATOM      5  C   UNL     1       0.785  10.350  19.747  0.00  0.00    +0.000 A 
ATOM      6  C   UNL     1       1.367   9.102  20.024  0.00  0.00    +0.000 A 
ATOM      7  C   UNL     1       0.889   8.334  21.080  0.00  0.00    +0.000 A 
ATOM      8  F   UNL     1       1.469   7.161  21.358  0.00  0.00    +0.000 F 
ATOM      9  C   UNL     1      -0.166   8.776  21.869  0.00  0.00    +0.000 A 
ATOM     10  C   UNL     1      -0.741  10.020  21.599  0.00  0.00    +0.000 A 
ATOM     11  C   UNL     1      -0.273  10.822  20.543  0.00  0.00    +0.000 A 
ATOM     12  C   UNL     1      -0.865  12.214  20.323  0.00  0.00    +0.000 C 
ENDROOT
BRANCH  12  13
ATOM     13  C   UNL     1      -2.316  12.171  19.852  0.00  0.00    +0.000 A 
ATOM     14  S   UNL     1      -3.511  12.915  20.861  0.00  0.00    +0.000 S 
ATOM     15  C   UNL     1      -4.806  12.441  19.841  0.00  0.00    +0.000 A 
ATOM     16  C   UNL     1      -6.186  12.513  20.096  0.00  0.00    +0.000 A 
ATOM     17  C   UNL     1      -7.077  12.168  19.074  0.00  0.00    +0.000 A 
ATOM     18  C   UNL     1      -6.612  11.861  17.804  0.00  0.00    +0.000 A 
ATOM     19  C   UNL     1      -5.242  11.749  17.573  0.00  0.00    +0.000 A 
ATOM     20  C   UNL     1      -4.321  11.946  18.633  0.00  0.00    +0.000 A 
ATOM     21  C   UNL     1      -2.936  11.562  18.778  0.00  0.00    +0.000 A 
ATOM     22 CL   UNL     1      -2.287  10.395  17.702  0.00  0.00    +0.000 Cl
ENDBRANCH  12  13
TORSDOF 1
ENDMDL
MODEL 5
REMARK VINA RESULT:      -6.1      7.284      9.315
REMARK  Name = 
REMARK  2 active torsions:
REMARK  status: ('A' for Active; 'I' for Inactive)
REMARK    1  A    between atoms: C_1  and  N_2
REMARK    2  A    between atoms: C_12  and  C_13
REMARK                            x       y       z     vdW  Elec       q    Type
REMARK                         _______ _______ _______ _____ _____    ______ ____
ROOT
ATOM      1  C   UNL     1       1.168  13.294  18.644  0.00  0.00    +0.000 C 
ATOM      2  N   UNL     1       1.434  11.893  18.939  0.00  0.00    +0.000 NA
ATOM      3  C   UNL     1       1.806  11.130  17.755  0.00  0.00    +0.000 C 
ATOM      4  C   UNL     1       2.334   9.732  18.105  0.00  0.00    +0.000 C 
ATOM      5  C   UNL     1       1.629   9.058  19.257  0.00  0.00    +0.000 A 
ATOM      6  C   UNL     1       1.969   7.736  19.586  0.00  0.00    +0.000 A 
ATOM      7  C   UNL     1       1.405   7.133  20.704  0.00  0.00    +0.000 A 
ATOM      8  F   UNL     1       1.758   5.885  21.031  0.00  0.00    +0.000 F 
ATOM      9  C   UNL     1       0.496   7.815  21.506  0.00  0.00    +0.000 A 
ATOM     10  C   UNL     1       0.161   9.133  21.183  0.00  0.00    +0.000 A 
ATOM     11  C   UNL     1       0.724   9.770  20.063  0.00  0.00    +0.000 A 
ATOM     12  C   UNL     1       0.404  11.238  19.782  0.00  0.00    +0.000 C 
ENDROOT
BRANCH  12  13
ATOM     13  C   UNL     1      -1.050  11.457  19.371  0.00  0.00    +0.000 A 
ATOM     14  S   UNL     1      -2.047  12.409  20.421  0.00  0.00    +0.000 S 
ATOM     15  C   UNL     1      -3.447  12.175  19.459  0.00  0.00    +0.000 A 
ATOM     16  C   UNL     1      -4.780  12.496  19.769  0.00  0.00    +0.000 A 
ATOM     17  C   UNL     1      -5.761  12.316  18.788  0.00  0.00    +0.000 A 
ATOM     18  C   UNL     1      -5.412  11.927  17.503  0.00  0.00    +0.000 A 
ATOM     19  C   UNL     1      -4.096  11.568  17.217  0.00  0.00    +0.000 A 
ATOM     20  C   UNL     1      -3.111  11.597  18.237  0.00  0.00    +0.000 A 
ATOM     21  C   UNL     1      -1.814  10.969  18.329  0.00  0.00    +0.000 A 
ATOM     22 CL   UNL     1      -1.432   9.702  17.239  0.00  0.00    +0.000 Cl
ENDBRANCH  12  13
TORSDOF 1
ENDMDL
MODEL 6
REMARK VINA RESULT:      -6.0      8.830     11.114
REMARK  Name = 
REMARK  2 active torsions:
REMARK  status: ('A' for Active; 'I' for Inactive)
REMARK    1  A    between atoms: C_1  and  N_2
REMARK    2  A    between atoms: C_12  and  C_13
REMARK                            x       y       z     vdW  Elec       q    Type
REMARK                         _______ _______ _______ _____ _____    ______ ____
ROOT
ATOM      1  C   UNL     1      -0.916  14.954  20.113  0.00  0.00    +0.000 C 
ATOM      2  N   UNL     1      -0.362  13.609  20.160  0.00  0.00    +0.000 NA
ATOM      3  C   UNL     1      -0.047  13.084  18.836  0.00  0.00    +0.000 C 
ATOM      4  C   UNL     1       0.770  11.787  18.902  0.00  0.00    +0.000 C 
ATOM      5  C   UNL     1       0.385  10.851  20.023  0.00  0.00    +0.000 A 
ATOM      6  C   UNL     1       1.004   9.594  20.104  0.00  0.00    +0.000 A 
ATOM      7  C   UNL     1       0.737   8.758  21.183  0.00  0.00    +0.000 A 
ATOM      8  F   UNL     1       1.354   7.575  21.271  0.00  0.00    +0.000 F 
ATOM      9  C   UNL     1      -0.144   9.143  22.189  0.00  0.00    +0.000 A 
ATOM     10  C   UNL     1      -0.755  10.398  22.112  0.00  0.00    +0.000 A 
ATOM     11  C   UNL     1      -0.496  11.266  21.036  0.00  0.00    +0.000 A 
ATOM     12  C   UNL     1      -1.114  12.664  21.021  0.00  0.00    +0.000 C 
ENDROOT
BRANCH  12  13
ATOM     13  C   UNL     1      -2.629  12.639  20.839  0.00  0.00    +0.000 A 
ATOM     14  S   UNL     1      -3.610  13.047  22.207  0.00  0.00    +0.000 S 
ATOM     15  C   UNL     1      -5.075  12.743  21.368  0.00  0.00    +0.000 A 
ATOM     16  C   UNL     1      -6.377  12.663  21.891  0.00  0.00    +0.000 A 
ATOM     17  C   UNL     1      -7.449  12.511  21.005  0.00  0.00    +0.000 A 
ATOM     18  C   UNL     1      -7.242  12.540  19.634  0.00  0.00    +0.000 A 
ATOM     19  C   UNL     1      -5.945  12.575  19.126  0.00  0.00    +0.000 A 
ATOM     20  C   UNL     1      -4.833  12.577  20.006  0.00  0.00    +0.000 A 
ATOM     21  C   UNL     1      -3.441  12.260  19.788  0.00  0.00    +0.000 A 
ATOM     22 CL   UNL     1      -3.001  11.423  18.358  0.00  0.00    +0.000 Cl
ENDBRANCH  12  13
TORSDOF 1
ENDMDL
MODEL 7
REMARK VINA RESULT:      -6.0      9.228     11.253
REMARK  Name = 
REMARK  2 active torsions:
REMARK  status: ('A' for Active; 'I' for Inactive)
REMARK    1  A    between atoms: C_1  and  N_2
REMARK    2  A    between atoms: C_12  and  C_13
REMARK                            x       y       z     vdW  Elec       q    Type
REMARK                         _______ _______ _______ _____ _____    ______ ____
ROOT
ATOM      1  C   UNL     1      11.835  16.311  18.965  0.00  0.00    +0.000 C 
ATOM      2  N   UNL     1      11.404  14.933  18.783  0.00  0.00    +0.000 NA
ATOM      3  C   UNL     1      10.971  14.654  17.420  0.00  0.00    +0.000 C 
ATOM      4  C   UNL     1      10.768  13.154  17.167  0.00  0.00    +0.000 C 
ATOM      5  C   UNL     1      10.176  12.390  18.327  0.00  0.00    +0.000 A 
ATOM      6  C   UNL     1       9.856  11.034  18.159  0.00  0.00    +0.000 A 
ATOM      7  C   UNL     1       9.403  10.289  19.242  0.00  0.00    +0.000 A 
ATOM      8  F   UNL     1       9.131   8.989  19.082  0.00  0.00    +0.000 F 
ATOM      9  C   UNL     1       9.253  10.866  20.498  0.00  0.00    +0.000 A 
ATOM     10  C   UNL     1       9.578  12.215  20.668  0.00  0.00    +0.000 A 
ATOM     11  C   UNL     1      10.045  12.990  19.592  0.00  0.00    +0.000 A 
ATOM     12  C   UNL     1      10.472  14.439  19.826  0.00  0.00    +0.000 C 
ENDROOT
BRANCH  12  13
ATOM     13  C   UNL     1       9.298  15.351  20.175  0.00  0.00    +0.000 A 
ATOM     14  S   UNL     1       9.262  16.043  21.762  0.00  0.00    +0.000 S 
ATOM     15  C   UNL     1       7.750  16.808  21.498  0.00  0.00    +0.000 A 
ATOM     16  C   UNL     1       6.918  17.440  22.439  0.00  0.00    +0.000 A 
ATOM     17  C   UNL     1       5.770  18.097  21.986  0.00  0.00    +0.000 A 
ATOM     18  C   UNL     1       5.510  18.212  20.628  0.00  0.00    +0.000 A 
ATOM     19  C   UNL     1       6.316  17.545  19.707  0.00  0.00    +0.000 A 
ATOM     20  C   UNL     1       7.400  16.746  20.152  0.00  0.00    +0.000 A 
ATOM     21  C   UNL     1       8.149  15.702  19.494  0.00  0.00    +0.000 A 
ATOM     22 CL   UNL     1       7.510  15.004  18.064  0.00  0.00    +0.000 Cl
ENDBRANCH  12  13
TORSDOF 1
ENDMDL
MODEL 8
REMARK VINA RESULT:      -5.9      9.026     10.986
REMARK  Name = 
REMARK  2 active torsions:
REMARK  status: ('A' for Active; 'I' for Inactive)
REMARK    1  A    between atoms: C_1  and  N_2
REMARK    2  A    between atoms: C_12  and  C_13
REMARK                            x       y       z     vdW  Elec       q    Type
REMARK                         _______ _______ _______ _____ _____    ______ ____
ROOT
ATOM      1  C   UNL     1      -2.340  10.086  18.206  0.00  0.00    +0.000 C 
ATOM      2  N   UNL     1      -1.146  10.918  18.247  0.00  0.00    +0.000 NA
ATOM      3  C   UNL     1      -0.006  10.236  18.847  0.00  0.00    +0.000 C 
ATOM      4  C   UNL     1       1.304  11.011  18.654  0.00  0.00    +0.000 C 
ATOM      5  C   UNL     1       1.174  12.512  18.753  0.00  0.00    +0.000 A 
ATOM      6  C   UNL     1       2.332  13.303  18.694  0.00  0.00    +0.000 A 
ATOM      7  C   UNL     1       2.225  14.689  18.683  0.00  0.00    +0.000 A 
ATOM      8  F   UNL     1       3.331  15.436  18.594  0.00  0.00    +0.000 F 
ATOM      9  C   UNL     1       0.984  15.314  18.737  0.00  0.00    +0.000 A 
ATOM     10  C   UNL     1      -0.170  14.528  18.789  0.00  0.00    +0.000 A 
ATOM     11  C   UNL     1      -0.092  13.124  18.793  0.00  0.00    +0.000 A 
ATOM     12  C   UNL     1      -1.372  12.289  18.766  0.00  0.00    +0.000 C 
ENDROOT
BRANCH  12  13
ATOM     13  C   UNL     1      -2.178  12.402  20.058  0.00  0.00    +0.000 A 
ATOM     14  S   UNL     1      -3.871  12.741  19.921  0.00  0.00    +0.000 S 
ATOM     15  C   UNL     1      -4.091  12.813  21.620  0.00  0.00    +0.000 A 
ATOM     16  C   UNL     1      -5.218  13.256  22.335  0.00  0.00    +0.000 A 
ATOM     17  C   UNL     1      -5.224  13.128  23.728  0.00  0.00    +0.000 A 
ATOM     18  C   UNL     1      -4.185  12.483  24.383  0.00  0.00    +0.000 A 
ATOM     19  C   UNL     1      -3.054  12.087  23.672  0.00  0.00    +0.000 A 
ATOM     20  C   UNL     1      -2.958  12.342  22.280  0.00  0.00    +0.000 A 
ATOM     21  C   UNL     1      -1.821  12.375  21.391  0.00  0.00    +0.000 A 
ATOM     22 CL   UNL     1      -0.247  12.453  22.068  0.00  0.00    +0.000 Cl
ENDBRANCH  12  13
TORSDOF 1
ENDMDL
MODEL 9
REMARK VINA RESULT:      -5.9      9.294     11.671
REMARK  Name = 
REMARK  2 active torsions:
REMARK  status: ('A' for Active; 'I' for Inactive)
REMARK    1  A    between atoms: C_1  and  N_2
REMARK    2  A    between atoms: C_12  and  C_13
REMARK                            x       y       z     vdW  Elec       q    Type
REMARK                         _______ _______ _______ _____ _____    ______ ____
ROOT
ATOM      1  C   UNL     1      -1.313  15.145  20.472  0.00  0.00    +0.000 C 
ATOM      2  N   UNL     1      -0.811  13.779  20.435  0.00  0.00    +0.000 NA
ATOM      3  C   UNL     1      -0.900  13.182  19.108  0.00  0.00    +0.000 C 
ATOM      4  C   UNL     1      -0.139  11.853  19.014  0.00  0.00    +0.000 C 
ATOM      5  C   UNL     1      -0.221  10.986  20.248  0.00  0.00    +0.000 A 
ATOM      6  C   UNL     1       0.355   9.707  20.222  0.00  0.00    +0.000 A 
ATOM      7  C   UNL     1       0.379   8.933  21.378  0.00  0.00    +0.000 A 
ATOM      8  F   UNL     1       0.958   7.728  21.354  0.00  0.00    +0.000 F 
ATOM      9  C   UNL     1      -0.169   9.403  22.567  0.00  0.00    +0.000 A 
ATOM     10  C   UNL     1      -0.737  10.679  22.595  0.00  0.00    +0.000 A 
ATOM     11  C   UNL     1      -0.766  11.486  21.444  0.00  0.00    +0.000 A 
ATOM     12  C   UNL     1      -1.318  12.909  21.525  0.00  0.00    +0.000 C 
ENDROOT
BRANCH  12  13
ATOM     13  C   UNL     1      -2.823  12.945  21.777  0.00  0.00    +0.000 A 
ATOM     14  S   UNL     1      -3.359  13.201  23.404  0.00  0.00    +0.000 S 
ATOM     15  C   UNL     1      -5.014  13.043  22.985  0.00  0.00    +0.000 A 
ATOM     16  C   UNL     1      -6.123  12.931  23.842  0.00  0.00    +0.000 A 
ATOM     17  C   UNL     1      -7.406  12.919  23.285  0.00  0.00    +0.000 A 
ATOM     18  C   UNL     1      -7.587  13.117  21.923  0.00  0.00    +0.000 A 
ATOM     19  C   UNL     1      -6.482  13.183  21.077  0.00  0.00    +0.000 A 
ATOM     20  C   UNL     1      -5.171  13.046  21.601  0.00  0.00    +0.000 A 
ATOM     21  C   UNL     1      -3.916  12.724  20.962  0.00  0.00    +0.000 A 
ATOM     22 CL   UNL     1      -3.942  12.064  19.380  0.00  0.00    +0.000 Cl
ENDBRANCH  12  13
TORSDOF 1
ENDMDL
