MODEL 1
REMARK VINA RESULT:      -8.3      0.000      0.000
REMARK  Name = 
REMARK  12 active torsions:
REMARK  status: ('A' for Active; 'I' for Inactive)
REMARK    1  A    between atoms: C_1  and  C_2
REMARK    2  A    between atoms: C_2  and  C_3
REMARK    3  A    between atoms: C_3  and  C_4
REMARK    4  A    between atoms: C_4  and  C_5
REMARK    5  A    between atoms: N_7  and  C_8
REMARK    6  A    between atoms: C_8  and  C_9
REMARK    7  A    between atoms: C_9  and  C_10
REMARK    8  A    between atoms: C_10  and  C_11
REMARK    9  A    between atoms: C_11  and  C_12
REMARK   10  A    between atoms: N_17  and  C_18
REMARK   11  A    between atoms: C_18  and  C_19
REMARK   12  A    between atoms: C_19  and  C_20
REMARK                            x       y       z     vdW  Elec       q    Type
REMARK                         _______ _______ _______ _____ _____    ______ ____
ROOT
ATOM      1  C   UNL     1       2.373   4.752  20.267  0.00  0.00    +0.000 C 
ATOM      2  C   UNL     1       2.186   3.850  21.503  0.00  0.00    +0.000 C 
ATOM      3  N   UNL     1       1.083   3.011  21.083  0.00  0.00    +0.000 N 
ATOM      4  C   UNL     1       0.900   2.994  19.732  0.00  0.00    +0.000 C 
ATOM      5  N   UNL     1       0.038   2.284  19.125  0.00  0.00    +0.000 NA
ATOM      6  N   UNL     1       1.814   3.894  19.222  0.00  0.00    +0.000 N 
ATOM      7  H   UNL     1       0.465   2.562  21.736  0.00  0.00    +0.000 HD
ATOM      8  H   UNL     1      -0.461   1.731  19.831  0.00  0.00    +0.000 HD
ENDROOT
BRANCH   1   9
ATOM      9  C   UNL     1       1.599   6.088  20.299  0.00  0.00    +0.000 C 
BRANCH   9  10
ATOM     10  C   UNL     1       2.332   7.257  19.641  0.00  0.00    +0.000 C 
BRANCH  10  11
ATOM     11  C   UNL     1       1.594   7.782  18.409  0.00  0.00    +0.000 C 
BRANCH  11  12
ATOM     12  C   UNL     1       2.219   9.075  17.878  0.00  0.00    +0.000 C 
BRANCH  12  15
ATOM     13  C   UNL     1      -0.368  11.421  18.982  0.00  0.00    +0.000 C 
ATOM     14  C   UNL     1       0.342  10.068  19.169  0.00  0.00    +0.000 C 
ATOM     15  N   UNL     1       1.581  10.249  18.413  0.00  0.00    +0.000 N 
ATOM     16  C   UNL     1       1.832  11.577  18.162  0.00  0.00    +0.000 C 
ATOM     17  N   UNL     1       2.797  12.187  17.611  0.00  0.00    +0.000 NA
ATOM     18  N   UNL     1       0.754  12.266  18.626  0.00  0.00    +0.000 N 
ATOM     19  H   UNL     1       3.545  11.520  17.347  0.00  0.00    +0.000 HD
ATOM     20  H   UNL     1       0.650  13.216  18.298  0.00  0.00    +0.000 HD
BRANCH  13  21
ATOM     21  C   UNL     1      -1.395  11.381  17.844  0.00  0.00    +0.000 C 
BRANCH  21  22
ATOM     22  C   UNL     1      -1.687   9.946  17.399  0.00  0.00    +0.000 C 
BRANCH  22  24
ATOM     23  C   UNL     1      -2.895   9.877  15.204  0.00  0.00    +0.000 C 
ATOM     24  C   UNL     1      -3.043   9.831  16.716  0.00  0.00    +0.000 C 
ENDBRANCH  22  24
ENDBRANCH  21  22
ENDBRANCH  13  21
ENDBRANCH  12  15
ENDBRANCH  11  12
ENDBRANCH  10  11
ENDBRANCH   9  10
ENDBRANCH   1   9
BRANCH   6  25
ATOM     25  C   UNL     1       2.136   4.122  17.834  0.00  0.00    +0.000 C 
BRANCH  25  26
ATOM     26  C   UNL     1       3.399   3.341  17.418  0.00  0.00    +0.000 C 
BRANCH  26  27
ATOM     27  C   UNL     1       4.667   4.208  17.253  0.00  0.00    +0.000 C 
ATOM     28  C   UNL     1       5.556   4.200  18.523  0.00  0.00    +0.000 C 
ATOM     29  C   UNL     1       6.806   5.070  18.312  0.00  0.00    +0.000 C 
ATOM     30  C   UNL     1       7.621   4.508  17.136  0.00  0.00    +0.000 C 
ATOM     31  C   UNL     1       6.771   4.514  15.857  0.00  0.00    +0.000 C 
ATOM     32  C   UNL     1       6.341   5.957  15.540  0.00  0.00    +0.000 C 
ATOM     33  C   UNL     1       5.523   6.530  16.706  0.00  0.00    +0.000 C 
ATOM     34  C   UNL     1       6.363   6.508  17.993  0.00  0.00    +0.000 C 
ATOM     35  C   UNL     1       4.274   5.665  16.913  0.00  0.00    +0.000 C 
ATOM     36  C   UNL     1       5.517   3.650  16.077  0.00  0.00    +0.000 C 
ENDBRANCH  26  27
ENDBRANCH  25  26
ENDBRANCH   6  25
TORSDOF 11
ENDMDL
MODEL 2
REMARK VINA RESULT:      -8.0      0.844      1.627
REMARK  Name = 
REMARK  12 active torsions:
REMARK  status: ('A' for Active; 'I' for Inactive)
REMARK    1  A    between atoms: C_1  and  C_2
REMARK    2  A    between atoms: C_2  and  C_3
REMARK    3  A    between atoms: C_3  and  C_4
REMARK    4  A    between atoms: C_4  and  C_5
REMARK    5  A    between atoms: N_7  and  C_8
REMARK    6  A    between atoms: C_8  and  C_9
REMARK    7  A    between atoms: C_9  and  C_10
REMARK    8  A    between atoms: C_10  and  C_11
REMARK    9  A    between atoms: C_11  and  C_12
REMARK   10  A    between atoms: N_17  and  C_18
REMARK   11  A    between atoms: C_18  and  C_19
REMARK   12  A    between atoms: C_19  and  C_20
REMARK                            x       y       z     vdW  Elec       q    Type
REMARK                         _______ _______ _______ _____ _____    ______ ____
ROOT
ATOM      1  C   UNL     1       2.575   4.435  20.388  0.00  0.00    +0.000 C 
ATOM      2  C   UNL     1       2.266   3.513  21.585  0.00  0.00    +0.000 C 
ATOM      3  N   UNL     1       1.072   2.834  21.124  0.00  0.00    +0.000 N 
ATOM      4  C   UNL     1       0.903   2.895  19.773  0.00  0.00    +0.000 C 
ATOM      5  N   UNL     1      -0.034   2.321  19.133  0.00  0.00    +0.000 NA
ATOM      6  N   UNL     1       1.925   3.695  19.305  0.00  0.00    +0.000 N 
ATOM      7  H   UNL     1       0.397   2.440  21.755  0.00  0.00    +0.000 HD
ATOM      8  H   UNL     1      -0.604   1.806  19.812  0.00  0.00    +0.000 HD
ENDROOT
BRANCH   1   9
ATOM      9  C   UNL     1       1.970   5.854  20.472  0.00  0.00    +0.000 C 
BRANCH   9  10
ATOM     10  C   UNL     1       2.748   6.917  19.695  0.00  0.00    +0.000 C 
BRANCH  10  11
ATOM     11  C   UNL     1       1.828   7.972  19.080  0.00  0.00    +0.000 C 
BRANCH  11  12
ATOM     12  C   UNL     1       1.362   8.997  20.117  0.00  0.00    +0.000 C 
BRANCH  12  15
ATOM     13  C   UNL     1      -1.321  11.119  18.810  0.00  0.00    +0.000 C 
ATOM     14  C   UNL     1      -0.659  10.439  20.022  0.00  0.00    +0.000 C 
ATOM     15  N   UNL     1       0.672  10.107  19.515  0.00  0.00    +0.000 N 
ATOM     16  C   UNL     1       0.970  10.813  18.374  0.00  0.00    +0.000 C 
ATOM     17  N   UNL     1       2.008  10.890  17.649  0.00  0.00    +0.000 NA
ATOM     18  N   UNL     1      -0.151  11.511  18.050  0.00  0.00    +0.000 N 
ATOM     19  H   UNL     1       2.777  10.325  18.055  0.00  0.00    +0.000 HD
ATOM     20  H   UNL     1      -0.199  11.877  17.109  0.00  0.00    +0.000 HD
BRANCH  13  21
ATOM     21  C   UNL     1      -2.187  10.143  18.003  0.00  0.00    +0.000 C 
BRANCH  21  22
ATOM     22  C   UNL     1      -2.260  10.542  16.527  0.00  0.00    +0.000 C 
BRANCH  22  24
ATOM     23  C   UNL     1      -4.510  11.617  16.778  0.00  0.00    +0.000 C 
ATOM     24  C   UNL     1      -3.696  10.580  16.023  0.00  0.00    +0.000 C 
ENDBRANCH  22  24
ENDBRANCH  21  22
ENDBRANCH  13  21
ENDBRANCH  12  15
ENDBRANCH  11  12
ENDBRANCH  10  11
ENDBRANCH   9  10
ENDBRANCH   1   9
BRANCH   6  25
ATOM     25  C   UNL     1       2.287   3.938  17.930  0.00  0.00    +0.000 C 
BRANCH  25  26
ATOM     26  C   UNL     1       3.575   3.180  17.549  0.00  0.00    +0.000 C 
BRANCH  26  27
ATOM     27  C   UNL     1       4.800   4.083  17.283  0.00  0.00    +0.000 C 
ATOM     28  C   UNL     1       5.721   3.516  16.172  0.00  0.00    +0.000 C 
ATOM     29  C   UNL     1       6.921   4.447  15.939  0.00  0.00    +0.000 C 
ATOM     30  C   UNL     1       6.412   5.829  15.501  0.00  0.00    +0.000 C 
ATOM     31  C   UNL     1       5.506   6.425  16.588  0.00  0.00    +0.000 C 
ATOM     32  C   UNL     1       6.305   6.564  17.895  0.00  0.00    +0.000 C 
ATOM     33  C   UNL     1       6.817   5.189  18.347  0.00  0.00    +0.000 C 
ATOM     34  C   UNL     1       7.710   4.581  17.254  0.00  0.00    +0.000 C 
ATOM     35  C   UNL     1       5.619   4.263  18.583  0.00  0.00    +0.000 C 
ATOM     36  C   UNL     1       4.311   5.485  16.823  0.00  0.00    +0.000 C 
ENDBRANCH  26  27
ENDBRANCH  25  26
ENDBRANCH   6  25
TORSDOF 11
ENDMDL
MODEL 3
REMARK VINA RESULT:      -7.9      4.976      7.785
REMARK  Name = 
REMARK  12 active torsions:
REMARK  status: ('A' for Active; 'I' for Inactive)
REMARK    1  A    between atoms: C_1  and  C_2
REMARK    2  A    between atoms: C_2  and  C_3
REMARK    3  A    between atoms: C_3  and  C_4
REMARK    4  A    between atoms: C_4  and  C_5
REMARK    5  A    between atoms: N_7  and  C_8
REMARK    6  A    between atoms: C_8  and  C_9
REMARK    7  A    between atoms: C_9  and  C_10
REMARK    8  A    between atoms: C_10  and  C_11
REMARK    9  A    between atoms: C_11  and  C_12
REMARK   10  A    between atoms: N_17  and  C_18
REMARK   11  A    between atoms: C_18  and  C_19
REMARK   12  A    between atoms: C_19  and  C_20
REMARK                            x       y       z     vdW  Elec       q    Type
REMARK                         _______ _______ _______ _____ _____    ______ ____
ROOT
ATOM      1  C   UNL     1       6.011   6.610  17.488  0.00  0.00    +0.000 C 
ATOM      2  C   UNL     1       5.234   7.248  16.319  0.00  0.00    +0.000 C 
ATOM      3  N   UNL     1       5.487   6.300  15.253  0.00  0.00    +0.000 N 
ATOM      4  C   UNL     1       5.895   5.079  15.702  0.00  0.00    +0.000 C 
ATOM      5  N   UNL     1       6.115   4.070  14.960  0.00  0.00    +0.000 NA
ATOM      6  N   UNL     1       6.018   5.207  17.070  0.00  0.00    +0.000 N 
ATOM      7  H   UNL     1       5.449   6.554  14.283  0.00  0.00    +0.000 HD
ATOM      8  H   UNL     1       5.912   4.345  13.993  0.00  0.00    +0.000 HD
ENDROOT
BRANCH   1   9
ATOM      9  C   UNL     1       7.466   7.098  17.661  0.00  0.00    +0.000 C 
BRANCH   9  10
ATOM     10  C   UNL     1       7.641   8.612  17.536  0.00  0.00    +0.000 C 
BRANCH  10  11
ATOM     11  C   UNL     1       8.621   9.168  18.570  0.00  0.00    +0.000 C 
BRANCH  11  12
ATOM     12  C   UNL     1       9.051  10.599  18.235  0.00  0.00    +0.000 C 
BRANCH  12  15
ATOM     13  C   UNL     1      10.750  12.363  20.959  0.00  0.00    +0.000 C 
ATOM     14  C   UNL     1       9.743  11.283  20.522  0.00  0.00    +0.000 C 
ATOM     15  N   UNL     1      10.085  11.078  19.115  0.00  0.00    +0.000 N 
ATOM     16  C   UNL     1      11.329  11.581  18.817  0.00  0.00    +0.000 C 
ATOM     17  N   UNL     1      12.039  11.569  17.766  0.00  0.00    +0.000 NA
ATOM     18  N   UNL     1      11.769  12.206  19.942  0.00  0.00    +0.000 N 
ATOM     19  H   UNL     1      11.572  11.025  17.018  0.00  0.00    +0.000 HD
ATOM     20  H   UNL     1      12.543  12.847  19.828  0.00  0.00    +0.000 HD
BRANCH  13  21
ATOM     21  C   UNL     1      10.145  13.772  20.904  0.00  0.00    +0.000 C 
BRANCH  21  22
ATOM     22  C   UNL     1       8.624  13.739  21.070  0.00  0.00    +0.000 C 
BRANCH  22  24
ATOM     23  C   UNL     1       8.915  15.034  18.945  0.00  0.00    +0.000 C 
ATOM     24  C   UNL     1       7.919  14.527  19.974  0.00  0.00    +0.000 C 
ENDBRANCH  22  24
ENDBRANCH  21  22
ENDBRANCH  13  21
ENDBRANCH  12  15
ENDBRANCH  11  12
ENDBRANCH  10  11
ENDBRANCH   9  10
ENDBRANCH   1   9
BRANCH   6  25
ATOM     25  C   UNL     1       6.263   4.157  18.029  0.00  0.00    +0.000 C 
BRANCH  25  26
ATOM     26  C   UNL     1       5.413   4.350  19.301  0.00  0.00    +0.000 C 
BRANCH  26  27
ATOM     27  C   UNL     1       3.934   3.930  19.157  0.00  0.00    +0.000 C 
ATOM     28  C   UNL     1       3.681   3.090  17.878  0.00  0.00    +0.000 C 
ATOM     29  C   UNL     1       2.199   2.691  17.780  0.00  0.00    +0.000 C 
ATOM     30  C   UNL     1       1.820   1.847  19.007  0.00  0.00    +0.000 C 
ATOM     31  C   UNL     1       2.047   2.657  20.292  0.00  0.00    +0.000 C 
ATOM     32  C   UNL     1       1.178   3.925  20.254  0.00  0.00    +0.000 C 
ATOM     33  C   UNL     1       1.549   4.780  19.033  0.00  0.00    +0.000 C 
ATOM     34  C   UNL     1       1.341   3.967  17.745  0.00  0.00    +0.000 C 
ATOM     35  C   UNL     1       3.025   5.181  19.135  0.00  0.00    +0.000 C 
ATOM     36  C   UNL     1       3.529   3.062  20.381  0.00  0.00    +0.000 C 
ENDBRANCH  26  27
ENDBRANCH  25  26
ENDBRANCH   6  25
TORSDOF 11
ENDMDL
MODEL 4
REMARK VINA RESULT:      -7.8      1.118      1.481
REMARK  Name = 
REMARK  12 active torsions:
REMARK  status: ('A' for Active; 'I' for Inactive)
REMARK    1  A    between atoms: C_1  and  C_2
REMARK    2  A    between atoms: C_2  and  C_3
REMARK    3  A    between atoms: C_3  and  C_4
REMARK    4  A    between atoms: C_4  and  C_5
REMARK    5  A    between atoms: N_7  and  C_8
REMARK    6  A    between atoms: C_8  and  C_9
REMARK    7  A    between atoms: C_9  and  C_10
REMARK    8  A    between atoms: C_10  and  C_11
REMARK    9  A    between atoms: C_11  and  C_12
REMARK   10  A    between atoms: N_17  and  C_18
REMARK   11  A    between atoms: C_18  and  C_19
REMARK   12  A    between atoms: C_19  and  C_20
REMARK                            x       y       z     vdW  Elec       q    Type
REMARK                         _______ _______ _______ _____ _____    ______ ____
ROOT
ATOM      1  C   UNL     1       2.721   3.630  20.632  0.00  0.00    +0.000 C 
ATOM      2  C   UNL     1       1.512   3.315  21.537  0.00  0.00    +0.000 C 
ATOM      3  N   UNL     1       0.535   2.867  20.566  0.00  0.00    +0.000 N 
ATOM      4  C   UNL     1       1.087   2.486  19.379  0.00  0.00    +0.000 C 
ATOM      5  N   UNL     1       0.439   1.999  18.400  0.00  0.00    +0.000 NA
ATOM      6  N   UNL     1       2.435   2.759  19.491  0.00  0.00    +0.000 N 
ATOM      7  H   UNL     1      -0.454   2.920  20.730  0.00  0.00    +0.000 HD
ATOM      8  H   UNL     1      -0.546   1.934  18.682  0.00  0.00    +0.000 HD
ENDROOT
BRANCH   1   9
ATOM      9  C   UNL     1       2.819   5.093  20.146  0.00  0.00    +0.000 C 
BRANCH   9  10
ATOM     10  C   UNL     1       1.648   5.978  20.571  0.00  0.00    +0.000 C 
BRANCH  10  11
ATOM     11  C   UNL     1       2.029   7.458  20.619  0.00  0.00    +0.000 C 
BRANCH  11  12
ATOM     12  C   UNL     1       0.803   8.356  20.809  0.00  0.00    +0.000 C 
BRANCH  12  15
ATOM     13  C   UNL     1      -0.557  10.904  18.556  0.00  0.00    +0.000 C 
ATOM     14  C   UNL     1      -0.263  10.449  19.997  0.00  0.00    +0.000 C 
ATOM     15  N   UNL     1       0.717   9.381  19.803  0.00  0.00    +0.000 N 
ATOM     16  C   UNL     1       1.277   9.430  18.548  0.00  0.00    +0.000 C 
ATOM     17  N   UNL     1       2.192   8.759  17.981  0.00  0.00    +0.000 NA
ATOM     18  N   UNL     1       0.625  10.416  17.875  0.00  0.00    +0.000 N 
ATOM     19  H   UNL     1       2.604   8.075  18.642  0.00  0.00    +0.000 HD
ATOM     20  H   UNL     1       0.726  10.418  16.869  0.00  0.00    +0.000 HD
BRANCH  13  21
ATOM     21  C   UNL     1      -1.819  10.241  17.988  0.00  0.00    +0.000 C 
BRANCH  21  22
ATOM     22  C   UNL     1      -2.822  11.281  17.484  0.00  0.00    +0.000 C 
BRANCH  22  24
ATOM     23  C   UNL     1      -2.820   9.679  15.556  0.00  0.00    +0.000 C 
ATOM     24  C   UNL     1      -3.127  11.099  16.003  0.00  0.00    +0.000 C 
ENDBRANCH  22  24
ENDBRANCH  21  22
ENDBRANCH  13  21
ENDBRANCH  12  15
ENDBRANCH  11  12
ENDBRANCH  10  11
ENDBRANCH   9  10
ENDBRANCH   1   9
BRANCH   6  25
ATOM     25  C   UNL     1       3.482   2.389  18.570  0.00  0.00    +0.000 C 
BRANCH  25  26
ATOM     26  C   UNL     1       3.378   3.189  17.255  0.00  0.00    +0.000 C 
BRANCH  26  27
ATOM     27  C   UNL     1       4.521   4.202  17.024  0.00  0.00    +0.000 C 
ATOM     28  C   UNL     1       5.680   4.024  18.039  0.00  0.00    +0.000 C 
ATOM     29  C   UNL     1       6.794   5.049  17.769  0.00  0.00    +0.000 C 
ATOM     30  C   UNL     1       7.344   4.837  16.349  0.00  0.00    +0.000 C 
ATOM     31  C   UNL     1       6.221   5.019  15.318  0.00  0.00    +0.000 C 
ATOM     32  C   UNL     1       5.647   6.441  15.438  0.00  0.00    +0.000 C 
ATOM     33  C   UNL     1       5.091   6.666  16.852  0.00  0.00    +0.000 C 
ATOM     34  C   UNL     1       6.207   6.466  17.889  0.00  0.00    +0.000 C 
ATOM     35  C   UNL     1       3.977   5.647  17.119  0.00  0.00    +0.000 C 
ATOM     36  C   UNL     1       5.104   3.998  15.599  0.00  0.00    +0.000 C 
ENDBRANCH  26  27
ENDBRANCH  25  26
ENDBRANCH   6  25
TORSDOF 11
ENDMDL
MODEL 5
REMARK VINA RESULT:      -7.8      1.048      1.857
REMARK  Name = 
REMARK  12 active torsions:
REMARK  status: ('A' for Active; 'I' for Inactive)
REMARK    1  A    between atoms: C_1  and  C_2
REMARK    2  A    between atoms: C_2  and  C_3
REMARK    3  A    between atoms: C_3  and  C_4
REMARK    4  A    between atoms: C_4  and  C_5
REMARK    5  A    between atoms: N_7  and  C_8
REMARK    6  A    between atoms: C_8  and  C_9
REMARK    7  A    between atoms: C_9  and  C_10
REMARK    8  A    between atoms: C_10  and  C_11
REMARK    9  A    between atoms: C_11  and  C_12
REMARK   10  A    between atoms: N_17  and  C_18
REMARK   11  A    between atoms: C_18  and  C_19
REMARK   12  A    between atoms: C_19  and  C_20
REMARK                            x       y       z     vdW  Elec       q    Type
REMARK                         _______ _______ _______ _____ _____    ______ ____
ROOT
ATOM      1  C   UNL     1       2.437   4.636  19.787  0.00  0.00    +0.000 C 
ATOM      2  C   UNL     1       1.309   4.437  20.819  0.00  0.00    +0.000 C 
ATOM      3  N   UNL     1       0.541   3.373  20.205  0.00  0.00    +0.000 N 
ATOM      4  C   UNL     1       1.240   2.677  19.264  0.00  0.00    +0.000 C 
ATOM      5  N   UNL     1       0.800   1.662  18.637  0.00  0.00    +0.000 NA
ATOM      6  N   UNL     1       2.458   3.316  19.155  0.00  0.00    +0.000 N 
ATOM      7  H   UNL     1      -0.434   3.229  20.397  0.00  0.00    +0.000 HD
ATOM      8  H   UNL     1      -0.146   1.468  18.986  0.00  0.00    +0.000 HD
ENDROOT
BRANCH   1   9
ATOM      9  C   UNL     1       2.168   5.712  18.712  0.00  0.00    +0.000 C 
BRANCH   9  10
ATOM     10  C   UNL     1       2.165   7.146  19.243  0.00  0.00    +0.000 C 
BRANCH  10  11
ATOM     11  C   UNL     1       2.544   8.163  18.165  0.00  0.00    +0.000 C 
BRANCH  11  12
ATOM     12  C   UNL     1       1.357   9.050  17.777  0.00  0.00    +0.000 C 
BRANCH  12  15
ATOM     13  C   UNL     1      -0.049  11.630  19.964  0.00  0.00    +0.000 C 
ATOM     14  C   UNL     1       0.315  10.149  19.746  0.00  0.00    +0.000 C 
ATOM     15  N   UNL     1       1.245  10.211  18.620  0.00  0.00    +0.000 N 
ATOM     16  C   UNL     1       1.731  11.483  18.433  0.00  0.00    +0.000 C 
ATOM     17  N   UNL     1       2.588  11.975  17.637  0.00  0.00    +0.000 NA
ATOM     18  N   UNL     1       1.073  12.279  19.318  0.00  0.00    +0.000 N 
ATOM     19  H   UNL     1       3.015  11.229  17.058  0.00  0.00    +0.000 HD
ATOM     20  H   UNL     1       1.114  13.275  19.146  0.00  0.00    +0.000 HD
BRANCH  13  21
ATOM     21  C   UNL     1      -1.364  12.008  19.270  0.00  0.00    +0.000 C 
BRANCH  21  22
ATOM     22  C   UNL     1      -2.002  10.802  18.577  0.00  0.00    +0.000 C 
BRANCH  22  24
ATOM     23  C   UNL     1      -3.688  10.654  16.728  0.00  0.00    +0.000 C 
ATOM     24  C   UNL     1      -2.278  11.078  17.104  0.00  0.00    +0.000 C 
ENDBRANCH  22  24
ENDBRANCH  21  22
ENDBRANCH  13  21
ENDBRANCH  12  15
ENDBRANCH  11  12
ENDBRANCH  10  11
ENDBRANCH   9  10
ENDBRANCH   1   9
BRANCH   6  25
ATOM     25  C   UNL     1       3.614   2.875  18.414  0.00  0.00    +0.000 C 
BRANCH  25  26
ATOM     26  C   UNL     1       4.878   3.651  18.837  0.00  0.00    +0.000 C 
BRANCH  26  27
ATOM     27  C   UNL     1       5.482   4.550  17.736  0.00  0.00    +0.000 C 
ATOM     28  C   UNL     1       4.774   4.365  16.370  0.00  0.00    +0.000 C 
ATOM     29  C   UNL     1       5.404   5.281  15.308  0.00  0.00    +0.000 C 
ATOM     30  C   UNL     1       5.253   6.746  15.748  0.00  0.00    +0.000 C 
ATOM     31  C   UNL     1       5.957   6.965  17.095  0.00  0.00    +0.000 C 
ATOM     32  C   UNL     1       7.449   6.625  16.949  0.00  0.00    +0.000 C 
ATOM     33  C   UNL     1       7.616   5.162  16.512  0.00  0.00    +0.000 C 
ATOM     34  C   UNL     1       6.896   4.934  15.173  0.00  0.00    +0.000 C 
ATOM     35  C   UNL     1       6.991   4.250  17.574  0.00  0.00    +0.000 C 
ATOM     36  C   UNL     1       5.329   6.039  18.152  0.00  0.00    +0.000 C 
ENDBRANCH  26  27
ENDBRANCH  25  26
ENDBRANCH   6  25
TORSDOF 11
ENDMDL
MODEL 6
REMARK VINA RESULT:      -7.7      1.635      2.841
REMARK  Name = 
REMARK  12 active torsions:
REMARK  status: ('A' for Active; 'I' for Inactive)
REMARK    1  A    between atoms: C_1  and  C_2
REMARK    2  A    between atoms: C_2  and  C_3
REMARK    3  A    between atoms: C_3  and  C_4
REMARK    4  A    between atoms: C_4  and  C_5
REMARK    5  A    between atoms: N_7  and  C_8
REMARK    6  A    between atoms: C_8  and  C_9
REMARK    7  A    between atoms: C_9  and  C_10
REMARK    8  A    between atoms: C_10  and  C_11
REMARK    9  A    between atoms: C_11  and  C_12
REMARK   10  A    between atoms: N_17  and  C_18
REMARK   11  A    between atoms: C_18  and  C_19
REMARK   12  A    between atoms: C_19  and  C_20
REMARK                            x       y       z     vdW  Elec       q    Type
REMARK                         _______ _______ _______ _____ _____    ______ ____
ROOT
ATOM      1  C   UNL     1       2.331   4.779  20.441  0.00  0.00    +0.000 C 
ATOM      2  C   UNL     1       2.189   3.803  21.626  0.00  0.00    +0.000 C 
ATOM      3  N   UNL     1       1.098   2.962  21.176  0.00  0.00    +0.000 N 
ATOM      4  C   UNL     1       0.892   3.019  19.830  0.00  0.00    +0.000 C 
ATOM      5  N   UNL     1       0.036   2.323  19.197  0.00  0.00    +0.000 NA
ATOM      6  N   UNL     1       1.774   3.969  19.358  0.00  0.00    +0.000 N 
ATOM      7  H   UNL     1       0.503   2.462  21.812  0.00  0.00    +0.000 HD
ATOM      8  H   UNL     1      -0.437   1.718  19.878  0.00  0.00    +0.000 HD
ENDROOT
BRANCH   1   9
ATOM      9  C   UNL     1       1.525   6.091  20.564  0.00  0.00    +0.000 C 
BRANCH   9  10
ATOM     10  C   UNL     1       2.216   7.314  19.959  0.00  0.00    +0.000 C 
BRANCH  10  11
ATOM     11  C   UNL     1       1.387   8.588  20.127  0.00  0.00    +0.000 C 
BRANCH  11  12
ATOM     12  C   UNL     1       1.328   9.403  18.831  0.00  0.00    +0.000 C 
BRANCH  12  15
ATOM     13  C   UNL     1       0.130  12.611  20.131  0.00  0.00    +0.000 C 
ATOM     14  C   UNL     1       1.262  11.804  19.469  0.00  0.00    +0.000 C 
ATOM     15  N   UNL     1       0.565  10.614  18.984  0.00  0.00    +0.000 N 
ATOM     16  C   UNL     1      -0.796  10.806  18.939  0.00  0.00    +0.000 C 
ATOM     17  N   UNL     1      -1.759  10.088  18.535  0.00  0.00    +0.000 NA
ATOM     18  N   UNL     1      -1.027  12.033  19.480  0.00  0.00    +0.000 N 
ATOM     19  H   UNL     1      -1.406   9.205  18.124  0.00  0.00    +0.000 HD
ATOM     20  H   UNL     1      -1.978  12.229  19.762  0.00  0.00    +0.000 HD
BRANCH  13  21
ATOM     21  C   UNL     1       0.068  12.382  21.646  0.00  0.00    +0.000 C 
BRANCH  21  22
ATOM     22  C   UNL     1      -1.359  12.524  22.179  0.00  0.00    +0.000 C 
BRANCH  22  24
ATOM     23  C   UNL     1      -0.709  10.255  23.023  0.00  0.00    +0.000 C 
ATOM     24  C   UNL     1      -1.731  11.376  23.109  0.00  0.00    +0.000 C 
ENDBRANCH  22  24
ENDBRANCH  21  22
ENDBRANCH  13  21
ENDBRANCH  12  15
ENDBRANCH  11  12
ENDBRANCH  10  11
ENDBRANCH   9  10
ENDBRANCH   1   9
BRANCH   6  25
ATOM     25  C   UNL     1       2.064   4.285  17.980  0.00  0.00    +0.000 C 
BRANCH  25  26
ATOM     26  C   UNL     1       3.299   3.509  17.477  0.00  0.00    +0.000 C 
BRANCH  26  27
ATOM     27  C   UNL     1       4.514   4.392  17.119  0.00  0.00    +0.000 C 
ATOM     28  C   UNL     1       4.182   5.905  17.185  0.00  0.00    +0.000 C 
ATOM     29  C   UNL     1       5.420   6.744  16.826  0.00  0.00    +0.000 C 
ATOM     30  C   UNL     1       6.545   6.442  17.827  0.00  0.00    +0.000 C 
ATOM     31  C   UNL     1       6.907   4.950  17.776  0.00  0.00    +0.000 C 
ATOM     32  C   UNL     1       7.373   4.589  16.355  0.00  0.00    +0.000 C 
ATOM     33  C   UNL     1       6.256   4.884  15.344  0.00  0.00    +0.000 C 
ATOM     34  C   UNL     1       5.878   6.372  15.405  0.00  0.00    +0.000 C 
ATOM     35  C   UNL     1       5.024   4.043  15.701  0.00  0.00    +0.000 C 
ATOM     36  C   UNL     1       5.663   4.114  18.127  0.00  0.00    +0.000 C 
ENDBRANCH  26  27
ENDBRANCH  25  26
ENDBRANCH   6  25
TORSDOF 11
ENDMDL
MODEL 7
REMARK VINA RESULT:      -7.7      2.259      4.683
REMARK  Name = 
REMARK  12 active torsions:
REMARK  status: ('A' for Active; 'I' for Inactive)
REMARK    1  A    between atoms: C_1  and  C_2
REMARK    2  A    between atoms: C_2  and  C_3
REMARK    3  A    between atoms: C_3  and  C_4
REMARK    4  A    between atoms: C_4  and  C_5
REMARK    5  A    between atoms: N_7  and  C_8
REMARK    6  A    between atoms: C_8  and  C_9
REMARK    7  A    between atoms: C_9  and  C_10
REMARK    8  A    between atoms: C_10  and  C_11
REMARK    9  A    between atoms: C_11  and  C_12
REMARK   10  A    between atoms: N_17  and  C_18
REMARK   11  A    between atoms: C_18  and  C_19
REMARK   12  A    between atoms: C_19  and  C_20
REMARK                            x       y       z     vdW  Elec       q    Type
REMARK                         _______ _______ _______ _____ _____    ______ ____
ROOT
ATOM      1  C   UNL     1       5.313   6.129  17.021  0.00  0.00    +0.000 C 
ATOM      2  C   UNL     1       6.388   6.295  15.928  0.00  0.00    +0.000 C 
ATOM      3  N   UNL     1       7.518   6.763  16.705  0.00  0.00    +0.000 N 
ATOM      4  C   UNL     1       7.405   6.497  18.037  0.00  0.00    +0.000 C 
ATOM      5  N   UNL     1       8.297   6.754  18.906  0.00  0.00    +0.000 NA
ATOM      6  N   UNL     1       6.157   5.930  18.199  0.00  0.00    +0.000 N 
ATOM      7  H   UNL     1       8.261   7.307  16.305  0.00  0.00    +0.000 HD
ATOM      8  H   UNL     1       9.097   7.169  18.416  0.00  0.00    +0.000 HD
ENDROOT
BRANCH   1   9
ATOM      9  C   UNL     1       4.402   7.356  17.246  0.00  0.00    +0.000 C 
BRANCH   9  10
ATOM     10  C   UNL     1       2.953   7.011  17.590  0.00  0.00    +0.000 C 
BRANCH  10  11
ATOM     11  C   UNL     1       2.339   8.009  18.573  0.00  0.00    +0.000 C 
BRANCH  11  12
ATOM     12  C   UNL     1       2.280   9.423  17.987  0.00  0.00    +0.000 C 
BRANCH  12  15
ATOM     13  C   UNL     1      -0.895  10.590  19.390  0.00  0.00    +0.000 C 
ATOM     14  C   UNL     1       0.264   9.577  19.430  0.00  0.00    +0.000 C 
ATOM     15  N   UNL     1       1.301  10.245  18.646  0.00  0.00    +0.000 N 
ATOM     16  C   UNL     1       1.042  11.588  18.504  0.00  0.00    +0.000 C 
ATOM     17  N   UNL     1       1.685  12.543  17.971  0.00  0.00    +0.000 NA
ATOM     18  N   UNL     1      -0.177  11.806  19.067  0.00  0.00    +0.000 N 
ATOM     19  H   UNL     1       2.603  12.212  17.622  0.00  0.00    +0.000 HD
ATOM     20  H   UNL     1      -0.637  12.674  18.826  0.00  0.00    +0.000 HD
BRANCH  13  21
ATOM     21  C   UNL     1      -1.914  10.257  18.292  0.00  0.00    +0.000 C 
BRANCH  21  22
ATOM     22  C   UNL     1      -2.722  11.489  17.881  0.00  0.00    +0.000 C 
BRANCH  22  24
ATOM     23  C   UNL     1      -2.791  10.455  15.599  0.00  0.00    +0.000 C 
ATOM     24  C   UNL     1      -3.579  11.218  16.651  0.00  0.00    +0.000 C 
ENDBRANCH  22  24
ENDBRANCH  21  22
ENDBRANCH  13  21
ENDBRANCH  12  15
ENDBRANCH  11  12
ENDBRANCH  10  11
ENDBRANCH   9  10
ENDBRANCH   1   9
BRANCH   6  25
ATOM     25  C   UNL     1       5.621   5.322  19.393  0.00  0.00    +0.000 C 
BRANCH  25  26
ATOM     26  C   UNL     1       5.135   3.885  19.118  0.00  0.00    +0.000 C 
BRANCH  26  27
ATOM     27  C   UNL     1       3.633   3.649  19.387  0.00  0.00    +0.000 C 
ATOM     28  C   UNL     1       2.786   3.702  18.089  0.00  0.00    +0.000 C 
ATOM     29  C   UNL     1       1.301   3.458  18.404  0.00  0.00    +0.000 C 
ATOM     30  C   UNL     1       1.140   2.070  19.042  0.00  0.00    +0.000 C 
ATOM     31  C   UNL     1       1.958   1.990  20.340  0.00  0.00    +0.000 C 
ATOM     32  C   UNL     1       1.461   3.065  21.320  0.00  0.00    +0.000 C 
ATOM     33  C   UNL     1       1.619   4.460  20.696  0.00  0.00    +0.000 C 
ATOM     34  C   UNL     1       0.817   4.538  19.387  0.00  0.00    +0.000 C 
ATOM     35  C   UNL     1       3.100   4.703  20.387  0.00  0.00    +0.000 C 
ATOM     36  C   UNL     1       3.441   2.243  20.020  0.00  0.00    +0.000 C 
ENDBRANCH  26  27
ENDBRANCH  25  26
ENDBRANCH   6  25
TORSDOF 11
ENDMDL
MODEL 8
REMARK VINA RESULT:      -7.7      2.702      5.155
REMARK  Name = 
REMARK  12 active torsions:
REMARK  status: ('A' for Active; 'I' for Inactive)
REMARK    1  A    between atoms: C_1  and  C_2
REMARK    2  A    between atoms: C_2  and  C_3
REMARK    3  A    between atoms: C_3  and  C_4
REMARK    4  A    between atoms: C_4  and  C_5
REMARK    5  A    between atoms: N_7  and  C_8
REMARK    6  A    between atoms: C_8  and  C_9
REMARK    7  A    between atoms: C_9  and  C_10
REMARK    8  A    between atoms: C_10  and  C_11
REMARK    9  A    between atoms: C_11  and  C_12
REMARK   10  A    between atoms: N_17  and  C_18
REMARK   11  A    between atoms: C_18  and  C_19
REMARK   12  A    between atoms: C_19  and  C_20
REMARK                            x       y       z     vdW  Elec       q    Type
REMARK                         _______ _______ _______ _____ _____    ______ ____
ROOT
ATOM      1  C   UNL     1       6.404   6.721  17.374  0.00  0.00    +0.000 C 
ATOM      2  C   UNL     1       7.627   7.655  17.473  0.00  0.00    +0.000 C 
ATOM      3  N   UNL     1       8.190   7.258  18.748  0.00  0.00    +0.000 N 
ATOM      4  C   UNL     1       7.766   6.032  19.167  0.00  0.00    +0.000 C 
ATOM      5  N   UNL     1       8.170   5.446  20.220  0.00  0.00    +0.000 NA
ATOM      6  N   UNL     1       6.838   5.619  18.233  0.00  0.00    +0.000 N 
ATOM      7  H   UNL     1       8.762   7.870  19.300  0.00  0.00    +0.000 HD
ATOM      8  H   UNL     1       8.869   6.052  20.664  0.00  0.00    +0.000 HD
ENDROOT
BRANCH   1   9
ATOM      9  C   UNL     1       5.082   7.303  17.919  0.00  0.00    +0.000 C 
BRANCH   9  10
ATOM     10  C   UNL     1       3.902   7.203  16.951  0.00  0.00    +0.000 C 
BRANCH  10  11
ATOM     11  C   UNL     1       2.565   7.483  17.637  0.00  0.00    +0.000 C 
BRANCH  11  12
ATOM     12  C   UNL     1       2.483   8.920  18.161  0.00  0.00    +0.000 C 
BRANCH  12  15
ATOM     13  C   UNL     1      -0.185  10.490  20.117  0.00  0.00    +0.000 C 
ATOM     14  C   UNL     1       0.356  10.066  18.740  0.00  0.00    +0.000 C 
ATOM     15  N   UNL     1       1.398   9.101  19.088  0.00  0.00    +0.000 N 
ATOM     16  C   UNL     1       1.263   8.655  20.382  0.00  0.00    +0.000 C 
ATOM     17  N   UNL     1       1.886   7.790  21.069  0.00  0.00    +0.000 NA
ATOM     18  N   UNL     1       0.244   9.370  20.930  0.00  0.00    +0.000 N 
ATOM     19  H   UNL     1       2.605   7.317  20.492  0.00  0.00    +0.000 HD
ATOM     20  H   UNL     1       0.177   9.360  21.939  0.00  0.00    +0.000 HD
BRANCH  13  21
ATOM     21  C   UNL     1       0.455  11.793  20.612  0.00  0.00    +0.000 C 
BRANCH  21  22
ATOM     22  C   UNL     1      -0.301  12.372  21.811  0.00  0.00    +0.000 C 
BRANCH  22  24
ATOM     23  C   UNL     1      -2.522  12.361  22.971  0.00  0.00    +0.000 C 
ATOM     24  C   UNL     1      -1.810  12.263  21.633  0.00  0.00    +0.000 C 
ENDBRANCH  22  24
ENDBRANCH  21  22
ENDBRANCH  13  21
ENDBRANCH  12  15
ENDBRANCH  11  12
ENDBRANCH  10  11
ENDBRANCH   9  10
ENDBRANCH   1   9
BRANCH   6  25
ATOM     25  C   UNL     1       6.217   4.320  18.131  0.00  0.00    +0.000 C 
BRANCH  25  26
ATOM     26  C   UNL     1       5.453   3.964  19.423  0.00  0.00    +0.000 C 
BRANCH  26  27
ATOM     27  C   UNL     1       3.962   3.619  19.215  0.00  0.00    +0.000 C 
ATOM     28  C   UNL     1       3.568   2.278  19.887  0.00  0.00    +0.000 C 
ATOM     29  C   UNL     1       2.077   1.979  19.659  0.00  0.00    +0.000 C 
ATOM     30  C   UNL     1       1.234   3.106  20.275  0.00  0.00    +0.000 C 
ATOM     31  C   UNL     1       1.592   4.449  19.621  0.00  0.00    +0.000 C 
ATOM     32  C   UNL     1       1.313   4.367  18.111  0.00  0.00    +0.000 C 
ATOM     33  C   UNL     1       2.152   3.246  17.480  0.00  0.00    +0.000 C 
ATOM     34  C   UNL     1       1.811   1.904  18.146  0.00  0.00    +0.000 C 
ATOM     35  C   UNL     1       3.638   3.548  17.704  0.00  0.00    +0.000 C 
ATOM     36  C   UNL     1       3.087   4.739  19.844  0.00  0.00    +0.000 C 
ENDBRANCH  26  27
ENDBRANCH  25  26
ENDBRANCH   6  25
TORSDOF 11
ENDMDL
MODEL 9
REMARK VINA RESULT:      -7.7      2.269      4.572
REMARK  Name = 
REMARK  12 active torsions:
REMARK  status: ('A' for Active; 'I' for Inactive)
REMARK    1  A    between atoms: C_1  and  C_2
REMARK    2  A    between atoms: C_2  and  C_3
REMARK    3  A    between atoms: C_3  and  C_4
REMARK    4  A    between atoms: C_4  and  C_5
REMARK    5  A    between atoms: N_7  and  C_8
REMARK    6  A    between atoms: C_8  and  C_9
REMARK    7  A    between atoms: C_9  and  C_10
REMARK    8  A    between atoms: C_10  and  C_11
REMARK    9  A    between atoms: C_11  and  C_12
REMARK   10  A    between atoms: N_17  and  C_18
REMARK   11  A    between atoms: C_18  and  C_19
REMARK   12  A    between atoms: C_19  and  C_20
REMARK                            x       y       z     vdW  Elec       q    Type
REMARK                         _______ _______ _______ _____ _____    ______ ____
ROOT
ATOM      1  C   UNL     1       5.382   6.309  17.287  0.00  0.00    +0.000 C 
ATOM      2  C   UNL     1       6.367   7.204  16.509  0.00  0.00    +0.000 C 
ATOM      3  N   UNL     1       7.466   7.307  17.448  0.00  0.00    +0.000 N 
ATOM      4  C   UNL     1       7.459   6.328  18.397  0.00  0.00    +0.000 C 
ATOM      5  N   UNL     1       8.354   6.174  19.286  0.00  0.00    +0.000 NA
ATOM      6  N   UNL     1       6.305   5.603  18.176  0.00  0.00    +0.000 N 
ATOM      7  H   UNL     1       8.110   8.077  17.444  0.00  0.00    +0.000 HD
ATOM      8  H   UNL     1       9.067   6.897  19.138  0.00  0.00    +0.000 HD
ENDROOT
BRANCH   1   9
ATOM      9  C   UNL     1       4.332   7.062  18.135  0.00  0.00    +0.000 C 
BRANCH   9  10
ATOM     10  C   UNL     1       3.182   7.662  17.326  0.00  0.00    +0.000 C 
BRANCH  10  11
ATOM     11  C   UNL     1       1.860   7.635  18.093  0.00  0.00    +0.000 C 
BRANCH  11  12
ATOM     12  C   UNL     1       1.934   8.453  19.386  0.00  0.00    +0.000 C 
BRANCH  12  15
ATOM     13  C   UNL     1      -0.929  10.736  19.366  0.00  0.00    +0.000 C 
ATOM     14  C   UNL     1      -0.047   9.744  20.147  0.00  0.00    +0.000 C 
ATOM     15  N   UNL     1       1.151   9.658  19.314  0.00  0.00    +0.000 N 
ATOM     16  C   UNL     1       1.226  10.702  18.423  0.00  0.00    +0.000 C 
ATOM     17  N   UNL     1       2.099  11.057  17.575  0.00  0.00    +0.000 NA
ATOM     18  N   UNL     1       0.071  11.407  18.561  0.00  0.00    +0.000 N 
ATOM     19  H   UNL     1       2.926  10.434  17.623  0.00  0.00    +0.000 HD
ATOM     20  H   UNL     1      -0.159  12.049  17.813  0.00  0.00    +0.000 HD
BRANCH  13  21
ATOM     21  C   UNL     1      -1.951  10.020  18.473  0.00  0.00    +0.000 C 
BRANCH  21  22
ATOM     22  C   UNL     1      -1.884  10.521  17.028  0.00  0.00    +0.000 C 
BRANCH  22  24
ATOM     23  C   UNL     1      -3.043  10.507  14.806  0.00  0.00    +0.000 C 
ATOM     24  C   UNL     1      -2.865   9.780  16.129  0.00  0.00    +0.000 C 
ENDBRANCH  22  24
ENDBRANCH  21  22
ENDBRANCH  13  21
ENDBRANCH  12  15
ENDBRANCH  11  12
ENDBRANCH  10  11
ENDBRANCH   9  10
ENDBRANCH   1   9
BRANCH   6  25
ATOM     25  C   UNL     1       5.916   4.365  18.805  0.00  0.00    +0.000 C 
BRANCH  25  26
ATOM     26  C   UNL     1       4.854   3.622  17.969  0.00  0.00    +0.000 C 
BRANCH  26  27
ATOM     27  C   UNL     1       3.503   3.408  18.685  0.00  0.00    +0.000 C 
ATOM     28  C   UNL     1       3.208   1.910  18.953  0.00  0.00    +0.000 C 
ATOM     29  C   UNL     1       1.858   1.746  19.670  0.00  0.00    +0.000 C 
ATOM     30  C   UNL     1       1.905   2.488  21.015  0.00  0.00    +0.000 C 
ATOM     31  C   UNL     1       2.183   3.981  20.783  0.00  0.00    +0.000 C 
ATOM     32  C   UNL     1       1.066   4.575  19.909  0.00  0.00    +0.000 C 
ATOM     33  C   UNL     1       1.009   3.845  18.559  0.00  0.00    +0.000 C 
ATOM     34  C   UNL     1       0.750   2.347  18.788  0.00  0.00    +0.000 C 
ATOM     35  C   UNL     1       2.354   4.012  17.843  0.00  0.00    +0.000 C 
ATOM     36  C   UNL     1       3.531   4.138  20.057  0.00  0.00    +0.000 C 
ENDBRANCH  26  27
ENDBRANCH  25  26
ENDBRANCH   6  25
TORSDOF 11
ENDMDL
