MODEL 1
REMARK VINA RESULT:      -6.7      0.000      0.000
REMARK  Name = 
REMARK  7 active torsions:
REMARK  status: ('A' for Active; 'I' for Inactive)
REMARK    1  A    between atoms: C_1  and  S_2
REMARK    2  A    between atoms: S_2  and  N_5
REMARK    3  A    between atoms: N_5  and  C_6
REMARK    4  A    between atoms: C_6  and  C_7
REMARK    5  A    between atoms: C_7  and  O_8
REMARK    6  A    between atoms: C_7  and  C_9
REMARK    7  A    between atoms: C_7  and  C_14
REMARK                            x       y       z     vdW  Elec       q    Type
REMARK                         _______ _______ _______ _____ _____    ______ ____
ROOT
ATOM      1  C   UNL     1       3.655   5.196  18.420  0.00  0.00    +0.000 C 
ENDROOT
BRANCH   1   2
ATOM      2  C   UNL     1       2.991   6.578  18.586  0.00  0.00    +0.000 A 
ATOM      3  C   UNL     1       3.020   7.633  17.607  0.00  0.00    +0.000 A 
ATOM      4  C   UNL     1       2.332   8.761  18.006  0.00  0.00    +0.000 A 
ATOM      5  S   UNL     1       1.653   8.582  19.555  0.00  0.00    +0.000 S 
ATOM      6  C   UNL     1       2.270   6.993  19.697  0.00  0.00    +0.000 A 
ENDBRANCH   1   2
BRANCH   1   7
ATOM      7  C   UNL     1       2.694   4.071  18.821  0.00  0.00    +0.000 A 
ATOM      8  C   UNL     1       1.569   3.605  18.154  0.00  0.00    +0.000 A 
ATOM      9  C   UNL     1       0.846   2.627  18.894  0.00  0.00    +0.000 A 
ATOM     10  C   UNL     1       1.458   2.330  20.088  0.00  0.00    +0.000 A 
ATOM     11  S   UNL     1       2.907   3.208  20.299  0.00  0.00    +0.000 S 
ENDBRANCH   1   7
BRANCH   1  12
ATOM     12  O   UNL     1       3.968   4.989  17.024  0.00  0.00    +0.000 OA
ATOM     13  H   UNL     1       3.657   4.098  16.801  0.00  0.00    +0.000 HD
ENDBRANCH   1  12
BRANCH   1  14
ATOM     14  C   UNL     1       5.021   5.150  19.183  0.00  0.00    +0.000 C 
BRANCH  14  15
ATOM     15  N   UNL     1       6.058   4.273  18.566  0.00  0.00    +0.000 NA
ATOM     16  H   UNL     1       6.215   3.391  19.062  0.00  0.00    +0.000 HD
BRANCH  15  18
ATOM     17  C   UNL     1       7.039   6.581  17.534  0.00  0.00    +0.000 C 
ATOM     18  S   UNL     1       7.535   5.012  18.228  0.00  0.00    +0.000 S 
ATOM     19  O   UNL     1       8.156   4.225  17.191  0.00  0.00    +0.000 OA
ATOM     20  O   UNL     1       8.196   5.251  19.491  0.00  0.00    +0.000 OA
ENDBRANCH  15  18
ENDBRANCH  14  15
ENDBRANCH   1  14
TORSDOF 6
ENDMDL
MODEL 2
REMARK VINA RESULT:      -6.6      0.883      1.300
REMARK  Name = 
REMARK  7 active torsions:
REMARK  status: ('A' for Active; 'I' for Inactive)
REMARK    1  A    between atoms: C_1  and  S_2
REMARK    2  A    between atoms: S_2  and  N_5
REMARK    3  A    between atoms: N_5  and  C_6
REMARK    4  A    between atoms: C_6  and  C_7
REMARK    5  A    between atoms: C_7  and  O_8
REMARK    6  A    between atoms: C_7  and  C_9
REMARK    7  A    between atoms: C_7  and  C_14
REMARK                            x       y       z     vdW  Elec       q    Type
REMARK                         _______ _______ _______ _____ _____    ______ ____
ROOT
ATOM      1  C   UNL     1       3.651   5.117  18.391  0.00  0.00    +0.000 C 
ENDROOT
BRANCH   1   2
ATOM      2  C   UNL     1       2.998   6.506  18.541  0.00  0.00    +0.000 A 
ATOM      3  C   UNL     1       2.283   6.963  19.705  0.00  0.00    +0.000 A 
ATOM      4  C   UNL     1       1.812   8.254  19.579  0.00  0.00    +0.000 A 
ATOM      5  S   UNL     1       2.204   8.934  18.071  0.00  0.00    +0.000 S 
ATOM      6  C   UNL     1       3.012   7.508  17.580  0.00  0.00    +0.000 A 
ENDBRANCH   1   2
BRANCH   1   7
ATOM      7  C   UNL     1       2.685   4.005  18.817  0.00  0.00    +0.000 A 
ATOM      8  C   UNL     1       1.554   3.533  18.164  0.00  0.00    +0.000 A 
ATOM      9  C   UNL     1       0.829   2.573  18.925  0.00  0.00    +0.000 A 
ATOM     10  C   UNL     1       1.445   2.296  20.122  0.00  0.00    +0.000 A 
ATOM     11  S   UNL     1       2.900   3.169  20.310  0.00  0.00    +0.000 S 
ENDBRANCH   1   7
BRANCH   1  12
ATOM     12  O   UNL     1       3.950   4.886  16.996  0.00  0.00    +0.000 OA
ATOM     13  H   UNL     1       3.385   4.152  16.710  0.00  0.00    +0.000 HD
ENDBRANCH   1  12
BRANCH   1  14
ATOM     14  C   UNL     1       5.022   5.072  19.143  0.00  0.00    +0.000 C 
BRANCH  14  15
ATOM     15  N   UNL     1       6.066   4.222  18.500  0.00  0.00    +0.000 NA
ATOM     16  H   UNL     1       6.458   3.499  19.111  0.00  0.00    +0.000 HD
BRANCH  15  18
ATOM     17  C   UNL     1       7.902   6.156  18.996  0.00  0.00    +0.000 C 
ATOM     18  S   UNL     1       7.310   5.053  17.722  0.00  0.00    +0.000 S 
ATOM     19  O   UNL     1       6.688   5.838  16.684  0.00  0.00    +0.000 OA
ATOM     20  O   UNL     1       8.347   4.092  17.422  0.00  0.00    +0.000 OA
ENDBRANCH  15  18
ENDBRANCH  14  15
ENDBRANCH   1  14
TORSDOF 6
ENDMDL
MODEL 3
REMARK VINA RESULT:      -6.5      1.200      3.858
REMARK  Name = 
REMARK  7 active torsions:
REMARK  status: ('A' for Active; 'I' for Inactive)
REMARK    1  A    between atoms: C_1  and  S_2
REMARK    2  A    between atoms: S_2  and  N_5
REMARK    3  A    between atoms: N_5  and  C_6
REMARK    4  A    between atoms: C_6  and  C_7
REMARK    5  A    between atoms: C_7  and  O_8
REMARK    6  A    between atoms: C_7  and  C_9
REMARK    7  A    between atoms: C_7  and  C_14
REMARK                            x       y       z     vdW  Elec       q    Type
REMARK                         _______ _______ _______ _____ _____    ______ ____
ROOT
ATOM      1  C   UNL     1       3.689   5.419  18.820  0.00  0.00    +0.000 C 
ENDROOT
BRANCH   1   2
ATOM      2  C   UNL     1       2.710   4.263  19.110  0.00  0.00    +0.000 A 
ATOM      3  C   UNL     1       2.563   3.601  20.380  0.00  0.00    +0.000 A 
ATOM      4  C   UNL     1       1.603   2.609  20.366  0.00  0.00    +0.000 A 
ATOM      5  S   UNL     1       0.873   2.447  18.838  0.00  0.00    +0.000 S 
ATOM      6  C   UNL     1       1.832   3.706  18.189  0.00  0.00    +0.000 A 
ENDBRANCH   1   2
BRANCH   1   7
ATOM      7  C   UNL     1       2.943   6.749  18.670  0.00  0.00    +0.000 A 
ATOM      8  C   UNL     1       2.935   7.629  17.595  0.00  0.00    +0.000 A 
ATOM      9  C   UNL     1       2.223   8.833  17.864  0.00  0.00    +0.000 A 
ATOM     10  C   UNL     1       1.662   8.828  19.118  0.00  0.00    +0.000 A 
ATOM     11  S   UNL     1       1.972   7.371  19.952  0.00  0.00    +0.000 S 
ENDBRANCH   1   7
BRANCH   1  12
ATOM     12  O   UNL     1       4.579   5.575  19.948  0.00  0.00    +0.000 OA
ATOM     13  H   UNL     1       5.299   4.936  19.821  0.00  0.00    +0.000 HD
ENDBRANCH   1  12
BRANCH   1  14
ATOM     14  C   UNL     1       4.598   5.072  17.594  0.00  0.00    +0.000 C 
BRANCH  14  15
ATOM     15  N   UNL     1       5.761   4.191  17.901  0.00  0.00    +0.000 NA
ATOM     16  H   UNL     1       5.638   3.599  18.728  0.00  0.00    +0.000 HD
BRANCH  15  18
ATOM     17  C   UNL     1       6.928   6.540  17.211  0.00  0.00    +0.000 C 
ATOM     18  S   UNL     1       7.263   4.955  17.961  0.00  0.00    +0.000 S 
ATOM     19  O   UNL     1       8.135   4.207  17.088  0.00  0.00    +0.000 OA
ATOM     20  O   UNL     1       7.587   5.159  19.354  0.00  0.00    +0.000 OA
ENDBRANCH  15  18
ENDBRANCH  14  15
ENDBRANCH   1  14
TORSDOF 6
ENDMDL
MODEL 4
REMARK VINA RESULT:      -6.5      2.024      4.179
REMARK  Name = 
REMARK  7 active torsions:
REMARK  status: ('A' for Active; 'I' for Inactive)
REMARK    1  A    between atoms: C_1  and  S_2
REMARK    2  A    between atoms: S_2  and  N_5
REMARK    3  A    between atoms: N_5  and  C_6
REMARK    4  A    between atoms: C_6  and  C_7
REMARK    5  A    between atoms: C_7  and  O_8
REMARK    6  A    between atoms: C_7  and  C_9
REMARK    7  A    between atoms: C_7  and  C_14
REMARK                            x       y       z     vdW  Elec       q    Type
REMARK                         _______ _______ _______ _____ _____    ______ ____
ROOT
ATOM      1  C   UNL     1       4.313   5.707  17.843  0.00  0.00    +0.000 C 
ENDROOT
BRANCH   1   2
ATOM      2  C   UNL     1       3.781   4.269  18.013  0.00  0.00    +0.000 A 
ATOM      3  C   UNL     1       2.634   3.725  17.334  0.00  0.00    +0.000 A 
ATOM      4  C   UNL     1       2.387   2.407  17.659  0.00  0.00    +0.000 A 
ATOM      5  S   UNL     1       3.510   1.805  18.786  0.00  0.00    +0.000 S 
ATOM      6  C   UNL     1       4.336   3.301  18.839  0.00  0.00    +0.000 A 
ENDBRANCH   1   2
BRANCH   1   7
ATOM      7  C   UNL     1       3.277   6.736  18.311  0.00  0.00    +0.000 A 
ATOM      8  C   UNL     1       2.859   7.902  17.682  0.00  0.00    +0.000 A 
ATOM      9  C   UNL     1       1.969   8.678  18.478  0.00  0.00    +0.000 A 
ATOM     10  C   UNL     1       1.688   8.067  19.677  0.00  0.00    +0.000 A 
ATOM     11  S   UNL     1       2.473   6.558  19.826  0.00  0.00    +0.000 S 
ENDBRANCH   1   7
BRANCH   1  12
ATOM     12  O   UNL     1       5.473   5.883  18.686  0.00  0.00    +0.000 OA
ATOM     13  H   UNL     1       5.162   5.811  19.602  0.00  0.00    +0.000 HD
ENDBRANCH   1  12
BRANCH   1  14
ATOM     14  C   UNL     1       4.802   5.940  16.375  0.00  0.00    +0.000 C 
BRANCH  14  15
ATOM     15  N   UNL     1       6.260   6.223  16.234  0.00  0.00    +0.000 NA
ATOM     16  H   UNL     1       6.476   7.095  15.742  0.00  0.00    +0.000 HD
BRANCH  15  18
ATOM     17  C   UNL     1       5.961   3.788  15.078  0.00  0.00    +0.000 C 
ATOM     18  S   UNL     1       7.194   4.965  15.610  0.00  0.00    +0.000 S 
ATOM     19  O   UNL     1       7.917   4.404  16.724  0.00  0.00    +0.000 OA
ATOM     20  O   UNL     1       7.881   5.476  14.445  0.00  0.00    +0.000 OA
ENDBRANCH  15  18
ENDBRANCH  14  15
ENDBRANCH   1  14
TORSDOF 6
ENDMDL
MODEL 5
REMARK VINA RESULT:      -6.3      0.960      1.234
REMARK  Name = 
REMARK  7 active torsions:
REMARK  status: ('A' for Active; 'I' for Inactive)
REMARK    1  A    between atoms: C_1  and  S_2
REMARK    2  A    between atoms: S_2  and  N_5
REMARK    3  A    between atoms: N_5  and  C_6
REMARK    4  A    between atoms: C_6  and  C_7
REMARK    5  A    between atoms: C_7  and  O_8
REMARK    6  A    between atoms: C_7  and  C_9
REMARK    7  A    between atoms: C_7  and  C_14
REMARK                            x       y       z     vdW  Elec       q    Type
REMARK                         _______ _______ _______ _____ _____    ______ ____
ROOT
ATOM      1  C   UNL     1       3.697   5.186  18.570  0.00  0.00    +0.000 C 
ENDROOT
BRANCH   1   2
ATOM      2  C   UNL     1       3.049   6.585  18.611  0.00  0.00    +0.000 A 
ATOM      3  C   UNL     1       3.130   7.566  17.560  0.00  0.00    +0.000 A 
ATOM      4  C   UNL     1       2.446   8.729  17.851  0.00  0.00    +0.000 A 
ATOM      5  S   UNL     1       1.708   8.672  19.382  0.00  0.00    +0.000 S 
ATOM      6  C   UNL     1       2.294   7.089  19.662  0.00  0.00    +0.000 A 
ENDBRANCH   1   2
BRANCH   1   7
ATOM      7  C   UNL     1       2.779   4.135  19.204  0.00  0.00    +0.000 A 
ATOM      8  C   UNL     1       2.682   3.748  20.534  0.00  0.00    +0.000 A 
ATOM      9  C   UNL     1       1.804   2.646  20.733  0.00  0.00    +0.000 A 
ATOM     10  C   UNL     1       1.211   2.243  19.560  0.00  0.00    +0.000 A 
ATOM     11  S   UNL     1       1.694   3.207  18.236  0.00  0.00    +0.000 S 
ENDBRANCH   1   7
BRANCH   1  12
ATOM     12  O   UNL     1       3.880   4.793  17.192  0.00  0.00    +0.000 OA
ATOM     13  H   UNL     1       4.553   5.385  16.823  0.00  0.00    +0.000 HD
ENDBRANCH   1  12
BRANCH   1  14
ATOM     14  C   UNL     1       5.128   5.227  19.204  0.00  0.00    +0.000 C 
BRANCH  14  15
ATOM     15  N   UNL     1       6.096   4.245  18.637  0.00  0.00    +0.000 NA
ATOM     16  H   UNL     1       6.511   3.613  19.328  0.00  0.00    +0.000 HD
BRANCH  15  18
ATOM     17  C   UNL     1       7.649   6.459  18.432  0.00  0.00    +0.000 C 
ATOM     18  S   UNL     1       7.302   4.890  17.652  0.00  0.00    +0.000 S 
ATOM     19  O   UNL     1       6.691   5.138  16.369  0.00  0.00    +0.000 OA
ATOM     20  O   UNL     1       8.464   4.040  17.781  0.00  0.00    +0.000 OA
ENDBRANCH  15  18
ENDBRANCH  14  15
ENDBRANCH   1  14
TORSDOF 6
ENDMDL
MODEL 6
REMARK VINA RESULT:      -6.3      1.184      1.691
REMARK  Name = 
REMARK  7 active torsions:
REMARK  status: ('A' for Active; 'I' for Inactive)
REMARK    1  A    between atoms: C_1  and  S_2
REMARK    2  A    between atoms: S_2  and  N_5
REMARK    3  A    between atoms: N_5  and  C_6
REMARK    4  A    between atoms: C_6  and  C_7
REMARK    5  A    between atoms: C_7  and  O_8
REMARK    6  A    between atoms: C_7  and  C_9
REMARK    7  A    between atoms: C_7  and  C_14
REMARK                            x       y       z     vdW  Elec       q    Type
REMARK                         _______ _______ _______ _____ _____    ______ ____
ROOT
ATOM      1  C   UNL     1       3.546   5.131  18.762  0.00  0.00    +0.000 C 
ENDROOT
BRANCH   1   2
ATOM      2  C   UNL     1       2.927   6.543  18.720  0.00  0.00    +0.000 A 
ATOM      3  C   UNL     1       2.177   7.150  19.788  0.00  0.00    +0.000 A 
ATOM      4  C   UNL     1       1.749   8.428  19.491  0.00  0.00    +0.000 A 
ATOM      5  S   UNL     1       2.225   8.916  17.934  0.00  0.00    +0.000 S 
ATOM      6  C   UNL     1       3.011   7.424  17.650  0.00  0.00    +0.000 A 
ENDBRANCH   1   2
BRANCH   1   7
ATOM      7  C   UNL     1       2.720   4.194  19.651  0.00  0.00    +0.000 A 
ATOM      8  C   UNL     1       2.866   3.922  21.005  0.00  0.00    +0.000 A 
ATOM      9  C   UNL     1       1.991   2.897  21.466  0.00  0.00    +0.000 A 
ATOM     10  C   UNL     1       1.164   2.441  20.469  0.00  0.00    +0.000 A 
ATOM     11  S   UNL     1       1.425   3.263  18.995  0.00  0.00    +0.000 S 
ENDBRANCH   1   7
BRANCH   1  12
ATOM     12  O   UNL     1       3.517   4.564  17.433  0.00  0.00    +0.000 OA
ATOM     13  H   UNL     1       2.585   4.532  17.167  0.00  0.00    +0.000 HD
ENDBRANCH   1  12
BRANCH   1  14
ATOM     14  C   UNL     1       5.055   5.206  19.170  0.00  0.00    +0.000 C 
BRANCH  14  15
ATOM     15  N   UNL     1       5.923   4.153  18.569  0.00  0.00    +0.000 NA
ATOM     16  H   UNL     1       6.487   3.632  19.247  0.00  0.00    +0.000 HD
BRANCH  15  18
ATOM     17  C   UNL     1       6.861   6.427  17.428  0.00  0.00    +0.000 C 
ATOM     18  S   UNL     1       6.889   4.648  17.279  0.00  0.00    +0.000 S 
ATOM     19  O   UNL     1       6.186   4.274  16.077  0.00  0.00    +0.000 OA
ATOM     20  O   UNL     1       8.232   4.181  17.543  0.00  0.00    +0.000 OA
ENDBRANCH  15  18
ENDBRANCH  14  15
ENDBRANCH   1  14
TORSDOF 6
ENDMDL
MODEL 7
REMARK VINA RESULT:      -6.2      1.636      4.066
REMARK  Name = 
REMARK  7 active torsions:
REMARK  status: ('A' for Active; 'I' for Inactive)
REMARK    1  A    between atoms: C_1  and  S_2
REMARK    2  A    between atoms: S_2  and  N_5
REMARK    3  A    between atoms: N_5  and  C_6
REMARK    4  A    between atoms: C_6  and  C_7
REMARK    5  A    between atoms: C_7  and  O_8
REMARK    6  A    between atoms: C_7  and  C_9
REMARK    7  A    between atoms: C_7  and  C_14
REMARK                            x       y       z     vdW  Elec       q    Type
REMARK                         _______ _______ _______ _____ _____    ______ ____
ROOT
ATOM      1  C   UNL     1       3.512   5.599  18.681  0.00  0.00    +0.000 C 
ENDROOT
BRANCH   1   2
ATOM      2  C   UNL     1       2.546   4.445  19.019  0.00  0.00    +0.000 A 
ATOM      3  C   UNL     1       2.347   3.890  20.332  0.00  0.00    +0.000 A 
ATOM      4  C   UNL     1       1.413   2.874  20.355  0.00  0.00    +0.000 A 
ATOM      5  S   UNL     1       0.770   2.561  18.812  0.00  0.00    +0.000 S 
ATOM      6  C   UNL     1       1.732   3.787  18.106  0.00  0.00    +0.000 A 
ENDBRANCH   1   2
BRANCH   1   7
ATOM      7  C   UNL     1       2.766   6.935  18.596  0.00  0.00    +0.000 A 
ATOM      8  C   UNL     1       2.688   7.826  17.534  0.00  0.00    +0.000 A 
ATOM      9  C   UNL     1       2.006   9.032  17.864  0.00  0.00    +0.000 A 
ATOM     10  C   UNL     1       1.534   9.017  19.155  0.00  0.00    +0.000 A 
ATOM     11  S   UNL     1       1.892   7.549  19.950  0.00  0.00    +0.000 S 
ENDBRANCH   1   7
BRANCH   1  12
ATOM     12  O   UNL     1       4.475   5.734  19.749  0.00  0.00    +0.000 OA
ATOM     13  H   UNL     1       4.966   4.898  19.786  0.00  0.00    +0.000 HD
ENDBRANCH   1  12
BRANCH   1  14
ATOM     14  C   UNL     1       4.336   5.263  17.393  0.00  0.00    +0.000 C 
BRANCH  14  15
ATOM     15  N   UNL     1       5.624   4.553  17.637  0.00  0.00    +0.000 NA
ATOM     16  H   UNL     1       5.967   4.615  18.600  0.00  0.00    +0.000 HD
BRANCH  15  18
ATOM     17  C   UNL     1       6.341   4.093  15.062  0.00  0.00    +0.000 C 
ATOM     18  S   UNL     1       6.872   4.908  16.560  0.00  0.00    +0.000 S 
ATOM     19  O   UNL     1       8.046   4.235  17.060  0.00  0.00    +0.000 OA
ATOM     20  O   UNL     1       6.858   6.337  16.341  0.00  0.00    +0.000 OA
ENDBRANCH  15  18
ENDBRANCH  14  15
ENDBRANCH   1  14
TORSDOF 6
ENDMDL
MODEL 8
REMARK VINA RESULT:      -6.2      1.004      1.210
REMARK  Name = 
REMARK  7 active torsions:
REMARK  status: ('A' for Active; 'I' for Inactive)
REMARK    1  A    between atoms: C_1  and  S_2
REMARK    2  A    between atoms: S_2  and  N_5
REMARK    3  A    between atoms: N_5  and  C_6
REMARK    4  A    between atoms: C_6  and  C_7
REMARK    5  A    between atoms: C_7  and  O_8
REMARK    6  A    between atoms: C_7  and  C_9
REMARK    7  A    between atoms: C_7  and  C_14
REMARK                            x       y       z     vdW  Elec       q    Type
REMARK                         _______ _______ _______ _____ _____    ______ ____
ROOT
ATOM      1  C   UNL     1       3.283   5.531  18.775  0.00  0.00    +0.000 C 
ENDROOT
BRANCH   1   2
ATOM      2  C   UNL     1       2.660   6.942  18.804  0.00  0.00    +0.000 A 
ATOM      3  C   UNL     1       2.655   7.867  17.700  0.00  0.00    +0.000 A 
ATOM      4  C   UNL     1       2.017   9.055  17.993  0.00  0.00    +0.000 A 
ATOM      5  S   UNL     1       1.427   9.089  19.587  0.00  0.00    +0.000 S 
ATOM      6  C   UNL     1       2.016   7.512  19.893  0.00  0.00    +0.000 A 
ENDBRANCH   1   2
BRANCH   1   7
ATOM      7  C   UNL     1       2.408   4.527  19.533  0.00  0.00    +0.000 A 
ATOM      8  C   UNL     1       2.310   4.313  20.902  0.00  0.00    +0.000 A 
ATOM      9  C   UNL     1       1.483   3.203  21.237  0.00  0.00    +0.000 A 
ATOM     10  C   UNL     1       0.928   2.622  20.122  0.00  0.00    +0.000 A 
ATOM     11  S   UNL     1       1.383   3.428  18.687  0.00  0.00    +0.000 S 
ENDBRANCH   1   7
BRANCH   1  12
ATOM     12  O   UNL     1       3.343   5.071  17.407  0.00  0.00    +0.000 OA
ATOM     13  H   UNL     1       3.900   5.703  16.927  0.00  0.00    +0.000 HD
ENDBRANCH   1  12
BRANCH   1  14
ATOM     14  C   UNL     1       4.763   5.575  19.283  0.00  0.00    +0.000 C 
BRANCH  14  15
ATOM     15  N   UNL     1       5.760   4.938  18.376  0.00  0.00    +0.000 NA
ATOM     16  H   UNL     1       5.657   3.924  18.278  0.00  0.00    +0.000 HD
BRANCH  15  18
ATOM     17  C   UNL     1       7.541   6.931  17.913  0.00  0.00    +0.000 C 
ATOM     18  S   UNL     1       7.374   5.325  18.675  0.00  0.00    +0.000 S 
ATOM     19  O   UNL     1       8.165   4.376  17.929  0.00  0.00    +0.000 OA
ATOM     20  O   UNL     1       7.524   5.471  20.105  0.00  0.00    +0.000 OA
ENDBRANCH  15  18
ENDBRANCH  14  15
ENDBRANCH   1  14
TORSDOF 6
ENDMDL
MODEL 9
REMARK VINA RESULT:      -6.2      1.385      3.923
REMARK  Name = 
REMARK  7 active torsions:
REMARK  status: ('A' for Active; 'I' for Inactive)
REMARK    1  A    between atoms: C_1  and  S_2
REMARK    2  A    between atoms: S_2  and  N_5
REMARK    3  A    between atoms: N_5  and  C_6
REMARK    4  A    between atoms: C_6  and  C_7
REMARK    5  A    between atoms: C_7  and  O_8
REMARK    6  A    between atoms: C_7  and  C_9
REMARK    7  A    between atoms: C_7  and  C_14
REMARK                            x       y       z     vdW  Elec       q    Type
REMARK                         _______ _______ _______ _____ _____    ______ ____
ROOT
ATOM      1  C   UNL     1       3.531   5.685  18.797  0.00  0.00    +0.000 C 
ENDROOT
BRANCH   1   2
ATOM      2  C   UNL     1       2.581   4.503  19.075  0.00  0.00    +0.000 A 
ATOM      3  C   UNL     1       1.671   3.928  18.118  0.00  0.00    +0.000 A 
ATOM      4  C   UNL     1       0.947   2.869  18.627  0.00  0.00    +0.000 A 
ATOM      5  S   UNL     1       1.333   2.553  20.253  0.00  0.00    +0.000 S 
ATOM      6  C   UNL     1       2.475   3.826  20.283  0.00  0.00    +0.000 A 
ENDBRANCH   1   2
BRANCH   1   7
ATOM      7  C   UNL     1       2.756   7.005  18.707  0.00  0.00    +0.000 A 
ATOM      8  C   UNL     1       2.675   7.900  17.648  0.00  0.00    +0.000 A 
ATOM      9  C   UNL     1       1.960   9.087  17.974  0.00  0.00    +0.000 A 
ATOM     10  C   UNL     1       1.469   9.056  19.257  0.00  0.00    +0.000 A 
ATOM     11  S   UNL     1       1.848   7.592  20.051  0.00  0.00    +0.000 S 
ENDBRANCH   1   7
BRANCH   1  12
ATOM     12  O   UNL     1       4.448   5.824  19.905  0.00  0.00    +0.000 OA
ATOM     13  H   UNL     1       4.373   6.741  20.212  0.00  0.00    +0.000 HD
ENDBRANCH   1  12
BRANCH   1  14
ATOM     14  C   UNL     1       4.413   5.394  17.537  0.00  0.00    +0.000 C 
BRANCH  14  15
ATOM     15  N   UNL     1       5.676   4.651  17.810  0.00  0.00    +0.000 NA
ATOM     16  H   UNL     1       5.774   4.322  18.775  0.00  0.00    +0.000 HD
BRANCH  15  18
ATOM     17  C   UNL     1       7.776   6.012  18.857  0.00  0.00    +0.000 C 
ATOM     18  S   UNL     1       7.096   5.415  17.317  0.00  0.00    +0.000 S 
ATOM     19  O   UNL     1       6.694   6.549  16.521  0.00  0.00    +0.000 OA
ATOM     20  O   UNL     1       7.973   4.395  16.788  0.00  0.00    +0.000 OA
ENDBRANCH  15  18
ENDBRANCH  14  15
ENDBRANCH   1  14
TORSDOF 6
ENDMDL
