MODEL 1
REMARK VINA RESULT:      -7.6      0.000      0.000
REMARK  Name = 
REMARK  4 active torsions:
REMARK  status: ('A' for Active; 'I' for Inactive)
REMARK    1  A    between atoms: N_2  and  C_4
REMARK    2  A    between atoms: C_7  and  O_8
REMARK    3  A    between atoms: C_9  and  C_10
REMARK    4  A    between atoms: N_11  and  C_12
REMARK                            x       y       z     vdW  Elec       q    Type
REMARK                         _______ _______ _______ _____ _____    ______ ____
ROOT
ATOM      1  C   UNL     1       6.628   4.810  15.632  0.00  0.00    +0.000 A 
ATOM      2  C   UNL     1       7.642   4.829  16.599  0.00  0.00    +0.000 A 
ATOM      3  C   UNL     1       7.307   4.934  17.953  0.00  0.00    +0.000 A 
ATOM      4  C   UNL     1       5.966   5.023  18.336  0.00  0.00    +0.000 A 
ATOM      5  C   UNL     1       4.953   5.012  17.370  0.00  0.00    +0.000 A 
ATOM      6  C   UNL     1       5.285   4.903  16.011  0.00  0.00    +0.000 A 
ENDROOT
BRANCH   1   8
ATOM      7  O   UNL     1       7.853   5.446  13.769  0.00  0.00    +0.000 OA
ATOM      8  N   UNL     1       6.975   4.689  14.210  0.00  0.00    +0.000 N 
ATOM      9  O   UNL     1       6.378   3.840  13.537  0.00  0.00    +0.000 OA
ENDBRANCH   1   8
BRANCH   4  10
ATOM     10  O   UNL     1       5.649   5.119  19.661  0.00  0.00    +0.000 OA
ATOM     11  H   UNL     1       6.413   4.856  20.201  0.00  0.00    +0.000 HD
ENDBRANCH   4  10
BRANCH   5  12
ATOM     12  C   UNL     1       3.524   5.100  17.749  0.00  0.00    +0.000 C 
ATOM     13  N   UNL     1       3.077   4.390  18.724  0.00  0.00    +0.000 NA
BRANCH  13  14
ATOM     14  C   UNL     1       1.666   4.538  19.096  0.00  0.00    +0.000 C 
ATOM     15  C   UNL     1       0.941   3.195  18.954  0.00  0.00    +0.000 C 
ATOM     16  C   UNL     1       1.485   2.132  19.909  0.00  0.00    +0.000 C 
ATOM     17  C   UNL     1       1.473   2.609  21.358  0.00  0.00    +0.000 C 
ATOM     18  C   UNL     1       2.172   3.956  21.526  0.00  0.00    +0.000 C 
ATOM     19  C   UNL     1       1.626   5.008  20.558  0.00  0.00    +0.000 C 
ENDBRANCH  13  14
ENDBRANCH   5  12
TORSDOF 4
ENDMDL
MODEL 2
REMARK VINA RESULT:      -7.3      0.863      1.510
REMARK  Name = 
REMARK  4 active torsions:
REMARK  status: ('A' for Active; 'I' for Inactive)
REMARK    1  A    between atoms: N_2  and  C_4
REMARK    2  A    between atoms: C_7  and  O_8
REMARK    3  A    between atoms: C_9  and  C_10
REMARK    4  A    between atoms: N_11  and  C_12
REMARK                            x       y       z     vdW  Elec       q    Type
REMARK                         _______ _______ _______ _____ _____    ______ ____
ROOT
ATOM      1  C   UNL     1       6.720   4.628  15.343  0.00  0.00    +0.000 A 
ATOM      2  C   UNL     1       7.646   4.822  16.377  0.00  0.00    +0.000 A 
ATOM      3  C   UNL     1       7.240   4.679  17.708  0.00  0.00    +0.000 A 
ATOM      4  C   UNL     1       5.915   4.345  18.002  0.00  0.00    +0.000 A 
ATOM      5  C   UNL     1       4.987   4.159  16.969  0.00  0.00    +0.000 A 
ATOM      6  C   UNL     1       5.392   4.299  15.633  0.00  0.00    +0.000 A 
ENDROOT
BRANCH   1   8
ATOM      7  O   UNL     1       6.590   4.045  13.103  0.00  0.00    +0.000 OA
ATOM      8  N   UNL     1       7.145   4.768  13.945  0.00  0.00    +0.000 N 
ATOM      9  O   UNL     1       8.027   5.596  13.685  0.00  0.00    +0.000 OA
ENDBRANCH   1   8
BRANCH   4  10
ATOM     10  O   UNL     1       5.530   4.201  19.304  0.00  0.00    +0.000 OA
ATOM     11  H   UNL     1       5.704   5.024  19.791  0.00  0.00    +0.000 HD
ENDBRANCH   4  10
BRANCH   5  12
ATOM     12  C   UNL     1       3.578   3.801  17.253  0.00  0.00    +0.000 C 
ATOM     13  N   UNL     1       3.315   2.823  18.046  0.00  0.00    +0.000 NA
BRANCH  13  14
ATOM     14  C   UNL     1       1.908   2.528  18.335  0.00  0.00    +0.000 C 
ATOM     15  C   UNL     1       1.788   1.806  19.682  0.00  0.00    +0.000 C 
ATOM     16  C   UNL     1       2.252   2.672  20.854  0.00  0.00    +0.000 C 
ATOM     17  C   UNL     1       1.531   4.017  20.888  0.00  0.00    +0.000 C 
ATOM     18  C   UNL     1       1.617   4.749  19.552  0.00  0.00    +0.000 C 
ATOM     19  C   UNL     1       1.161   3.869  18.385  0.00  0.00    +0.000 C 
ENDBRANCH  13  14
ENDBRANCH   5  12
TORSDOF 4
ENDMDL
MODEL 3
REMARK VINA RESULT:      -7.3      1.482      2.309
REMARK  Name = 
REMARK  4 active torsions:
REMARK  status: ('A' for Active; 'I' for Inactive)
REMARK    1  A    between atoms: N_2  and  C_4
REMARK    2  A    between atoms: C_7  and  O_8
REMARK    3  A    between atoms: C_9  and  C_10
REMARK    4  A    between atoms: N_11  and  C_12
REMARK                            x       y       z     vdW  Elec       q    Type
REMARK                         _______ _______ _______ _____ _____    ______ ____
ROOT
ATOM      1  C   UNL     1       5.943   5.164  15.194  0.00  0.00    +0.000 A 
ATOM      2  C   UNL     1       5.616   6.496  15.488  0.00  0.00    +0.000 A 
ATOM      3  C   UNL     1       4.727   6.778  16.530  0.00  0.00    +0.000 A 
ATOM      4  C   UNL     1       4.166   5.734  17.272  0.00  0.00    +0.000 A 
ATOM      5  C   UNL     1       4.486   4.404  16.974  0.00  0.00    +0.000 A 
ATOM      6  C   UNL     1       5.380   4.117  15.931  0.00  0.00    +0.000 A 
ENDROOT
BRANCH   1   8
ATOM      7  O   UNL     1       6.580   3.954  13.323  0.00  0.00    +0.000 OA
ATOM      8  N   UNL     1       6.884   4.865  14.108  0.00  0.00    +0.000 N 
ATOM      9  O   UNL     1       7.921   5.536  14.036  0.00  0.00    +0.000 OA
ENDBRANCH   1   8
BRANCH   4  10
ATOM     10  O   UNL     1       3.304   6.020  18.292  0.00  0.00    +0.000 OA
ATOM     11  H   UNL     1       2.865   6.870  18.121  0.00  0.00    +0.000 HD
ENDBRANCH   4  10
BRANCH   5  12
ATOM     12  C   UNL     1       3.910   3.280  17.748  0.00  0.00    +0.000 C 
ATOM     13  N   UNL     1       3.942   3.306  19.033  0.00  0.00    +0.000 NA
BRANCH  13  14
ATOM     14  C   UNL     1       3.322   2.195  19.762  0.00  0.00    +0.000 C 
ATOM     15  C   UNL     1       3.066   2.600  21.219  0.00  0.00    +0.000 C 
ATOM     16  C   UNL     1       2.065   3.749  21.340  0.00  0.00    +0.000 C 
ATOM     17  C   UNL     1       0.756   3.442  20.618  0.00  0.00    +0.000 C 
ATOM     18  C   UNL     1       0.983   3.016  19.170  0.00  0.00    +0.000 C 
ATOM     19  C   UNL     1       1.995   1.873  19.061  0.00  0.00    +0.000 C 
ENDBRANCH  13  14
ENDBRANCH   5  12
TORSDOF 4
ENDMDL
MODEL 4
REMARK VINA RESULT:      -7.2      1.009      1.748
REMARK  Name = 
REMARK  4 active torsions:
REMARK  status: ('A' for Active; 'I' for Inactive)
REMARK    1  A    between atoms: N_2  and  C_4
REMARK    2  A    between atoms: C_7  and  O_8
REMARK    3  A    between atoms: C_9  and  C_10
REMARK    4  A    between atoms: N_11  and  C_12
REMARK                            x       y       z     vdW  Elec       q    Type
REMARK                         _______ _______ _______ _____ _____    ______ ____
ROOT
ATOM      1  C   UNL     1       6.563   4.978  15.751  0.00  0.00    +0.000 A 
ATOM      2  C   UNL     1       7.150   5.965  16.555  0.00  0.00    +0.000 A 
ATOM      3  C   UNL     1       6.724   6.126  17.878  0.00  0.00    +0.000 A 
ATOM      4  C   UNL     1       5.715   5.306  18.392  0.00  0.00    +0.000 A 
ATOM      5  C   UNL     1       5.124   4.324  17.586  0.00  0.00    +0.000 A 
ATOM      6  C   UNL     1       5.551   4.158  16.260  0.00  0.00    +0.000 A 
ENDROOT
BRANCH   1   8
ATOM      7  O   UNL     1       7.917   5.547  13.957  0.00  0.00    +0.000 OA
ATOM      8  N   UNL     1       7.016   4.799  14.366  0.00  0.00    +0.000 N 
ATOM      9  O   UNL     1       6.477   3.915  13.688  0.00  0.00    +0.000 OA
ENDBRANCH   1   8
BRANCH   4  10
ATOM     10  O   UNL     1       5.311   5.466  19.686  0.00  0.00    +0.000 OA
ATOM     11  H   UNL     1       5.718   4.783  20.244  0.00  0.00    +0.000 HD
ENDBRANCH   4  10
BRANCH   5  12
ATOM     12  C   UNL     1       4.058   3.439  18.108  0.00  0.00    +0.000 C 
ATOM     13  N   UNL     1       4.124   3.001  19.315  0.00  0.00    +0.000 NA
BRANCH  13  14
ATOM     14  C   UNL     1       3.026   2.162  19.808  0.00  0.00    +0.000 C 
ATOM     15  C   UNL     1       2.672   2.552  21.247  0.00  0.00    +0.000 C 
ATOM     16  C   UNL     1       2.144   3.983  21.354  0.00  0.00    +0.000 C 
ATOM     17  C   UNL     1       0.966   4.226  20.414  0.00  0.00    +0.000 C 
ATOM     18  C   UNL     1       1.285   3.828  18.976  0.00  0.00    +0.000 C 
ATOM     19  C   UNL     1       1.822   2.398  18.884  0.00  0.00    +0.000 C 
ENDBRANCH  13  14
ENDBRANCH   5  12
TORSDOF 4
ENDMDL
MODEL 5
REMARK VINA RESULT:      -7.1      1.512      1.919
REMARK  Name = 
REMARK  4 active torsions:
REMARK  status: ('A' for Active; 'I' for Inactive)
REMARK    1  A    between atoms: N_2  and  C_4
REMARK    2  A    between atoms: C_7  and  O_8
REMARK    3  A    between atoms: C_9  and  C_10
REMARK    4  A    between atoms: N_11  and  C_12
REMARK                            x       y       z     vdW  Elec       q    Type
REMARK                         _______ _______ _______ _____ _____    ______ ____
ROOT
ATOM      1  C   UNL     1       5.939   5.132  15.144  0.00  0.00    +0.000 A 
ATOM      2  C   UNL     1       5.739   6.468  15.517  0.00  0.00    +0.000 A 
ATOM      3  C   UNL     1       4.883   6.770  16.582  0.00  0.00    +0.000 A 
ATOM      4  C   UNL     1       4.231   5.742  17.268  0.00  0.00    +0.000 A 
ATOM      5  C   UNL     1       4.425   4.407  16.891  0.00  0.00    +0.000 A 
ATOM      6  C   UNL     1       5.285   4.100  15.825  0.00  0.00    +0.000 A 
ENDROOT
BRANCH   1   8
ATOM      7  O   UNL     1       7.880   5.485  13.927  0.00  0.00    +0.000 OA
ATOM      8  N   UNL     1       6.845   4.810  14.034  0.00  0.00    +0.000 N 
ATOM      9  O   UNL     1       6.527   3.888  13.273  0.00  0.00    +0.000 OA
ENDBRANCH   1   8
BRANCH   4  10
ATOM     10  O   UNL     1       3.403   6.046  18.310  0.00  0.00    +0.000 OA
ATOM     11  H   UNL     1       3.037   6.939  18.188  0.00  0.00    +0.000 HD
ENDBRANCH   4  10
BRANCH   5  12
ATOM     12  C   UNL     1       3.750   3.298  17.604  0.00  0.00    +0.000 C 
ATOM     13  N   UNL     1       2.496   3.384  17.877  0.00  0.00    +0.000 NA
BRANCH  13  14
ATOM     14  C   UNL     1       1.855   2.247  18.545  0.00  0.00    +0.000 C 
ATOM     15  C   UNL     1       2.770   1.701  19.647  0.00  0.00    +0.000 C 
ATOM     16  C   UNL     1       3.015   2.719  20.763  0.00  0.00    +0.000 C 
ATOM     17  C   UNL     1       1.709   3.248  21.347  0.00  0.00    +0.000 C 
ATOM     18  C   UNL     1       0.769   3.780  20.268  0.00  0.00    +0.000 C 
ATOM     19  C   UNL     1       0.540   2.757  19.153  0.00  0.00    +0.000 C 
ENDBRANCH  13  14
ENDBRANCH   5  12
TORSDOF 4
ENDMDL
MODEL 6
REMARK VINA RESULT:      -7.1      2.503      3.563
REMARK  Name = 
REMARK  4 active torsions:
REMARK  status: ('A' for Active; 'I' for Inactive)
REMARK    1  A    between atoms: N_2  and  C_4
REMARK    2  A    between atoms: C_7  and  O_8
REMARK    3  A    between atoms: C_9  and  C_10
REMARK    4  A    between atoms: N_11  and  C_12
REMARK                            x       y       z     vdW  Elec       q    Type
REMARK                         _______ _______ _______ _____ _____    ______ ____
ROOT
ATOM      1  C   UNL     1       5.766   3.587  12.676  0.00  0.00    +0.000 A 
ATOM      2  C   UNL     1       7.016   4.147  12.379  0.00  0.00    +0.000 A 
ATOM      3  C   UNL     1       7.663   4.944  13.329  0.00  0.00    +0.000 A 
ATOM      4  C   UNL     1       7.061   5.180  14.569  0.00  0.00    +0.000 A 
ATOM      5  C   UNL     1       5.809   4.627  14.863  0.00  0.00    +0.000 A 
ATOM      6  C   UNL     1       5.159   3.825  13.913  0.00  0.00    +0.000 A 
ENDROOT
BRANCH   1   8
ATOM      7  O   UNL     1       4.013   3.152  11.222  0.00  0.00    +0.000 OA
ATOM      8  N   UNL     1       5.089   2.742  11.685  0.00  0.00    +0.000 N 
ATOM      9  O   UNL     1       5.627   1.674  11.367  0.00  0.00    +0.000 OA
ENDBRANCH   1   8
BRANCH   4  10
ATOM     10  O   UNL     1       7.704   5.954  15.492  0.00  0.00    +0.000 OA
ATOM     11  H   UNL     1       7.833   6.850  15.138  0.00  0.00    +0.000 HD
ENDBRANCH   4  10
BRANCH   5  12
ATOM     12  C   UNL     1       5.152   4.859  16.171  0.00  0.00    +0.000 C 
ATOM     13  N   UNL     1       4.952   3.871  16.969  0.00  0.00    +0.000 NA
BRANCH  13  14
ATOM     14  C   UNL     1       4.338   4.148  18.271  0.00  0.00    +0.000 C 
ATOM     15  C   UNL     1       2.929   4.722  18.077  0.00  0.00    +0.000 C 
ATOM     16  C   UNL     1       1.980   3.729  17.404  0.00  0.00    +0.000 C 
ATOM     17  C   UNL     1       1.932   2.396  18.146  0.00  0.00    +0.000 C 
ATOM     18  C   UNL     1       3.323   1.811  18.371  0.00  0.00    +0.000 C 
ATOM     19  C   UNL     1       4.267   2.818  19.035  0.00  0.00    +0.000 C 
ENDBRANCH  13  14
ENDBRANCH   5  12
TORSDOF 4
ENDMDL
MODEL 7
REMARK VINA RESULT:      -7.1      1.195      2.032
REMARK  Name = 
REMARK  4 active torsions:
REMARK  status: ('A' for Active; 'I' for Inactive)
REMARK    1  A    between atoms: N_2  and  C_4
REMARK    2  A    between atoms: C_7  and  O_8
REMARK    3  A    between atoms: C_9  and  C_10
REMARK    4  A    between atoms: N_11  and  C_12
REMARK                            x       y       z     vdW  Elec       q    Type
REMARK                         _______ _______ _______ _____ _____    ______ ____
ROOT
ATOM      1  C   UNL     1       6.467   5.049  15.975  0.00  0.00    +0.000 A 
ATOM      2  C   UNL     1       7.349   6.002  16.503  0.00  0.00    +0.000 A 
ATOM      3  C   UNL     1       7.477   6.135  17.890  0.00  0.00    +0.000 A 
ATOM      4  C   UNL     1       6.725   5.321  18.742  0.00  0.00    +0.000 A 
ATOM      5  C   UNL     1       5.840   4.373  18.214  0.00  0.00    +0.000 A 
ATOM      6  C   UNL     1       5.711   4.235  16.824  0.00  0.00    +0.000 A 
ENDROOT
BRANCH   1   8
ATOM      7  O   UNL     1       5.319   4.338  14.091  0.00  0.00    +0.000 OA
ATOM      8  N   UNL     1       6.338   4.899  14.520  0.00  0.00    +0.000 N 
ATOM      9  O   UNL     1       7.249   5.341  13.808  0.00  0.00    +0.000 OA
ENDBRANCH   1   8
BRANCH   4  10
ATOM     10  O   UNL     1       6.863   5.454  20.095  0.00  0.00    +0.000 OA
ATOM     11  H   UNL     1       6.859   4.576  20.512  0.00  0.00    +0.000 HD
ENDBRANCH   4  10
BRANCH   5  12
ATOM     12  C   UNL     1       5.035   3.495  19.095  0.00  0.00    +0.000 C 
ATOM     13  N   UNL     1       3.858   3.129  18.730  0.00  0.00    +0.000 NA
BRANCH  13  14
ATOM     14  C   UNL     1       3.112   2.225  19.611  0.00  0.00    +0.000 C 
ATOM     15  C   UNL     1       2.977   2.842  21.007  0.00  0.00    +0.000 C 
ATOM     16  C   UNL     1       2.163   4.137  21.000  0.00  0.00    +0.000 C 
ATOM     17  C   UNL     1       0.794   3.943  20.352  0.00  0.00    +0.000 C 
ATOM     18  C   UNL     1       0.897   3.311  18.967  0.00  0.00    +0.000 C 
ATOM     19  C   UNL     1       1.723   2.022  18.986  0.00  0.00    +0.000 C 
ENDBRANCH  13  14
ENDBRANCH   5  12
TORSDOF 4
ENDMDL
MODEL 8
REMARK VINA RESULT:      -6.9      3.299      6.288
REMARK  Name = 
REMARK  4 active torsions:
REMARK  status: ('A' for Active; 'I' for Inactive)
REMARK    1  A    between atoms: N_2  and  C_4
REMARK    2  A    between atoms: C_7  and  O_8
REMARK    3  A    between atoms: C_9  and  C_10
REMARK    4  A    between atoms: N_11  and  C_12
REMARK                            x       y       z     vdW  Elec       q    Type
REMARK                         _______ _______ _______ _____ _____    ______ ____
ROOT
ATOM      1  C   UNL     1       1.584   3.582  19.233  0.00  0.00    +0.000 A 
ATOM      2  C   UNL     1       0.991   4.143  20.373  0.00  0.00    +0.000 A 
ATOM      3  C   UNL     1       1.286   5.463  20.730  0.00  0.00    +0.000 A 
ATOM      4  C   UNL     1       2.169   6.217  19.952  0.00  0.00    +0.000 A 
ATOM      5  C   UNL     1       2.767   5.655  18.817  0.00  0.00    +0.000 A 
ATOM      6  C   UNL     1       2.472   4.332  18.455  0.00  0.00    +0.000 A 
ENDROOT
BRANCH   1   8
ATOM      7  O   UNL     1       2.175   1.359  18.950  0.00  0.00    +0.000 OA
ATOM      8  N   UNL     1       1.270   2.200  18.850  0.00  0.00    +0.000 N 
ATOM      9  O   UNL     1       0.124   1.954  18.454  0.00  0.00    +0.000 OA
ENDBRANCH   1   8
BRANCH   4  10
ATOM     10  O   UNL     1       2.445   7.507  20.304  0.00  0.00    +0.000 OA
ATOM     11  H   UNL     1       3.364   7.575  20.611  0.00  0.00    +0.000 HD
ENDBRANCH   4  10
BRANCH   5  12
ATOM     12  C   UNL     1       3.703   6.433  17.973  0.00  0.00    +0.000 C 
ATOM     13  N   UNL     1       4.920   6.041  17.840  0.00  0.00    +0.000 NA
BRANCH  13  14
ATOM     14  C   UNL     1       5.803   6.815  16.961  0.00  0.00    +0.000 C 
ATOM     15  C   UNL     1       7.251   6.337  17.117  0.00  0.00    +0.000 C 
ATOM     16  C   UNL     1       7.439   4.885  16.674  0.00  0.00    +0.000 C 
ATOM     17  C   UNL     1       6.935   4.654  15.252  0.00  0.00    +0.000 C 
ATOM     18  C   UNL     1       5.501   5.141  15.063  0.00  0.00    +0.000 C 
ATOM     19  C   UNL     1       5.324   6.591  15.520  0.00  0.00    +0.000 C 
ENDBRANCH  13  14
ENDBRANCH   5  12
TORSDOF 4
ENDMDL
MODEL 9
REMARK VINA RESULT:      -6.9      2.579      3.830
REMARK  Name = 
REMARK  4 active torsions:
REMARK  status: ('A' for Active; 'I' for Inactive)
REMARK    1  A    between atoms: N_2  and  C_4
REMARK    2  A    between atoms: C_7  and  O_8
REMARK    3  A    between atoms: C_9  and  C_10
REMARK    4  A    between atoms: N_11  and  C_12
REMARK                            x       y       z     vdW  Elec       q    Type
REMARK                         _______ _______ _______ _____ _____    ______ ____
ROOT
ATOM      1  C   UNL     1       5.942   3.386  12.574  0.00  0.00    +0.000 A 
ATOM      2  C   UNL     1       6.907   4.329  12.194  0.00  0.00    +0.000 A 
ATOM      3  C   UNL     1       7.496   5.148  13.163  0.00  0.00    +0.000 A 
ATOM      4  C   UNL     1       7.119   5.025  14.504  0.00  0.00    +0.000 A 
ATOM      5  C   UNL     1       6.149   4.089  14.882  0.00  0.00    +0.000 A 
ATOM      6  C   UNL     1       5.559   3.264  13.913  0.00  0.00    +0.000 A 
ENDROOT
BRANCH   1   8
ATOM      7  O   UNL     1       4.230   2.862  11.101  0.00  0.00    +0.000 OA
ATOM      8  N   UNL     1       5.329   2.518  11.561  0.00  0.00    +0.000 N 
ATOM      9  O   UNL     1       5.943   1.498  11.222  0.00  0.00    +0.000 OA
ENDBRANCH   1   8
BRANCH   4  10
ATOM     10  O   UNL     1       7.705   5.825  15.443  0.00  0.00    +0.000 OA
ATOM     11  H   UNL     1       8.630   5.556  15.573  0.00  0.00    +0.000 HD
ENDBRANCH   4  10
BRANCH   5  12
ATOM     12  C   UNL     1       5.736   3.936  16.296  0.00  0.00    +0.000 C 
ATOM     13  N   UNL     1       5.020   4.847  16.855  0.00  0.00    +0.000 NA
BRANCH  13  14
ATOM     14  C   UNL     1       4.596   4.638  18.243  0.00  0.00    +0.000 C 
ATOM     15  C   UNL     1       3.640   5.757  18.675  0.00  0.00    +0.000 C 
ATOM     16  C   UNL     1       2.341   5.761  17.868  0.00  0.00    +0.000 C 
ATOM     17  C   UNL     1       1.646   4.403  17.902  0.00  0.00    +0.000 C 
ATOM     18  C   UNL     1       2.580   3.267  17.495  0.00  0.00    +0.000 C 
ATOM     19  C   UNL     1       3.881   3.280  18.302  0.00  0.00    +0.000 C 
ENDBRANCH  13  14
ENDBRANCH   5  12
TORSDOF 4
ENDMDL
