MODEL 1
REMARK VINA RESULT:      -7.6      0.000      0.000
REMARK  Name = 
REMARK  4 active torsions:
REMARK  status: ('A' for Active; 'I' for Inactive)
REMARK    1  A    between atoms: C_2  and  C_10
REMARK    2  A    between atoms: C_11  and  C_12
REMARK    3  A    between atoms: C_18  and  C_19
REMARK    4  A    between atoms: C_27  and  O_28
REMARK                            x       y       z     vdW  Elec       q    Type
REMARK                         _______ _______ _______ _____ _____    ______ ____
ROOT
ATOM      1  C   UNL     1       2.316   7.208  18.707  0.00  0.00    +0.000 A 
ATOM      2  C   UNL     1       1.881   6.861  19.971  0.00  0.00    +0.000 A 
ATOM      3  N   UNL     1       1.167   7.753  20.714  0.00  0.00    +0.000 NA
ATOM      4  C   UNL     1       0.937   9.036  20.383  0.00  0.00    +0.000 A 
ATOM      5  C   UNL     1       0.121   9.809  21.161  0.00  0.00    +0.000 A 
ATOM      6  C   UNL     1      -0.254  11.111  20.741  0.00  0.00    +0.000 A 
ATOM      7  C   UNL     1       0.511  12.020  20.074  0.00  0.00    +0.000 A 
ATOM      8  C   UNL     1       1.194  11.164  19.187  0.00  0.00    +0.000 A 
ATOM      9  C   UNL     1       1.444   9.619  19.233  0.00  0.00    +0.000 A 
ATOM     10  C   UNL     1       2.101   8.590  18.332  0.00  0.00    +0.000 A 
ENDROOT
BRANCH   1  12
ATOM     11  O   UNL     1       2.504   5.187  17.525  0.00  0.00    +0.000 OA
ATOM     12  C   UNL     1       3.089   6.207  17.871  0.00  0.00    +0.000 C 
ATOM     13  N   UNL     1       4.411   6.504  17.524  0.00  0.00    +0.000 N 
ATOM     14  C   UNL     1       5.219   5.655  16.734  0.00  0.00    +0.000 A 
ATOM     15  C   UNL     1       6.537   5.988  16.436  0.00  0.00    +0.000 A 
ATOM     16  C   UNL     1       7.272   5.185  15.564  0.00  0.00    +0.000 A 
ATOM     17  C   UNL     1       6.673   4.063  15.015  0.00  0.00    +0.000 A 
ATOM     18  C   UNL     1       5.382   3.762  15.418  0.00  0.00    +0.000 A 
ATOM     19  N   UNL     1       4.660   4.503  16.302  0.00  0.00    +0.000 NA
ATOM     20  H   UNL     1       4.870   7.376  17.750  0.00  0.00    +0.000 HD
ENDBRANCH   1  12
BRANCH   2  21
ATOM     21  C   UNL     1       2.152   5.520  20.662  0.00  0.00    +0.000 C 
ATOM     22  F   UNL     1       2.106   5.591  22.024  0.00  0.00    +0.000 F 
ATOM     23  F   UNL     1       1.229   4.575  20.307  0.00  0.00    +0.000 F 
ATOM     24  F   UNL     1       3.354   4.932  20.429  0.00  0.00    +0.000 F 
ENDBRANCH   2  21
BRANCH   5  25
ATOM     25  C   UNL     1      -0.222   9.406  22.553  0.00  0.00    +0.000 C 
ATOM     26  F   UNL     1       0.850   9.349  23.365  0.00  0.00    +0.000 F 
ATOM     27  F   UNL     1      -1.004  10.430  23.087  0.00  0.00    +0.000 F 
ATOM     28  F   UNL     1      -0.946   8.290  22.767  0.00  0.00    +0.000 F 
ENDBRANCH   5  25
BRANCH  10  29
ATOM     29  O   UNL     1       2.524   8.907  17.051  0.00  0.00    +0.000 OA
ATOM     30  H   UNL     1       2.964   8.176  16.599  0.00  0.00    +0.000 HD
ENDBRANCH  10  29
TORSDOF 4
ENDMDL
MODEL 2
REMARK VINA RESULT:      -7.3      2.336      6.916
REMARK  Name = 
REMARK  4 active torsions:
REMARK  status: ('A' for Active; 'I' for Inactive)
REMARK    1  A    between atoms: C_2  and  C_10
REMARK    2  A    between atoms: C_11  and  C_12
REMARK    3  A    between atoms: C_18  and  C_19
REMARK    4  A    between atoms: C_27  and  O_28
REMARK                            x       y       z     vdW  Elec       q    Type
REMARK                         _______ _______ _______ _____ _____    ______ ____
ROOT
ATOM      1  C   UNL     1       1.559   8.820  19.193  0.00  0.00    +0.000 A 
ATOM      2  C   UNL     1       1.163   8.110  20.308  0.00  0.00    +0.000 A 
ATOM      3  N   UNL     1       1.620   6.841  20.507  0.00  0.00    +0.000 NA
ATOM      4  C   UNL     1       2.349   6.130  19.629  0.00  0.00    +0.000 A 
ATOM      5  C   UNL     1       2.837   4.902  19.979  0.00  0.00    +0.000 A 
ATOM      6  C   UNL     1       3.734   4.212  19.124  0.00  0.00    +0.000 A 
ATOM      7  C   UNL     1       3.722   4.177  17.762  0.00  0.00    +0.000 A 
ATOM      8  C   UNL     1       3.373   5.514  17.484  0.00  0.00    +0.000 A 
ATOM      9  C   UNL     1       2.698   6.609  18.376  0.00  0.00    +0.000 A 
ATOM     10  C   UNL     1       2.327   8.073  18.219  0.00  0.00    +0.000 A 
ENDROOT
BRANCH   1  12
ATOM     11  O   UNL     1       0.092  10.401  18.261  0.00  0.00    +0.000 OA
ATOM     12  C   UNL     1       1.069  10.240  18.985  0.00  0.00    +0.000 C 
ATOM     13  N   UNL     1       1.736  11.281  19.639  0.00  0.00    +0.000 N 
ATOM     14  C   UNL     1       1.356  12.638  19.533  0.00  0.00    +0.000 A 
ATOM     15  C   UNL     1       2.069  13.639  20.187  0.00  0.00    +0.000 A 
ATOM     16  C   UNL     1       1.604  14.953  20.153  0.00  0.00    +0.000 A 
ATOM     17  C   UNL     1       0.439  15.237  19.460  0.00  0.00    +0.000 A 
ATOM     18  C   UNL     1      -0.172  14.198  18.776  0.00  0.00    +0.000 A 
ATOM     19  N   UNL     1       0.286  12.917  18.756  0.00  0.00    +0.000 NA
ATOM     20  H   UNL     1       2.496  11.140  20.290  0.00  0.00    +0.000 HD
ENDBRANCH   1  12
BRANCH   2  21
ATOM     21  C   UNL     1       0.200   8.621  21.386  0.00  0.00    +0.000 C 
ATOM     22  F   UNL     1      -0.805   7.745  21.676  0.00  0.00    +0.000 F 
ATOM     23  F   UNL     1       0.845   8.852  22.570  0.00  0.00    +0.000 F 
ATOM     24  F   UNL     1      -0.467   9.776  21.126  0.00  0.00    +0.000 F 
ENDBRANCH   2  21
BRANCH   5  25
ATOM     25  C   UNL     1       2.286   4.159  21.146  0.00  0.00    +0.000 C 
ATOM     26  F   UNL     1       0.956   3.960  21.064  0.00  0.00    +0.000 F 
ATOM     27  F   UNL     1       2.830   2.876  21.100  0.00  0.00    +0.000 F 
ATOM     28  F   UNL     1       2.550   4.588  22.396  0.00  0.00    +0.000 F 
ENDBRANCH   5  25
BRANCH  10  29
ATOM     29  O   UNL     1       2.732   8.813  17.120  0.00  0.00    +0.000 OA
ATOM     30  H   UNL     1       3.629   8.606  16.827  0.00  0.00    +0.000 HD
ENDBRANCH  10  29
TORSDOF 4
ENDMDL
MODEL 3
REMARK VINA RESULT:      -7.1      2.307      7.413
REMARK  Name = 
REMARK  4 active torsions:
REMARK  status: ('A' for Active; 'I' for Inactive)
REMARK    1  A    between atoms: C_2  and  C_10
REMARK    2  A    between atoms: C_11  and  C_12
REMARK    3  A    between atoms: C_18  and  C_19
REMARK    4  A    between atoms: C_27  and  O_28
REMARK                            x       y       z     vdW  Elec       q    Type
REMARK                         _______ _______ _______ _____ _____    ______ ____
ROOT
ATOM      1  C   UNL     1       1.266   9.820  19.480  0.00  0.00    +0.000 A 
ATOM      2  C   UNL     1       0.915   8.873  20.421  0.00  0.00    +0.000 A 
ATOM      3  N   UNL     1       1.483   7.634  20.385  0.00  0.00    +0.000 NA
ATOM      4  C   UNL     1       2.290   7.175  19.413  0.00  0.00    +0.000 A 
ATOM      5  C   UNL     1       2.881   5.948  19.536  0.00  0.00    +0.000 A 
ATOM      6  C   UNL     1       3.854   5.520  18.596  0.00  0.00    +0.000 A 
ATOM      7  C   UNL     1       3.872   5.753  17.254  0.00  0.00    +0.000 A 
ATOM      8  C   UNL     1       3.408   7.084  17.229  0.00  0.00    +0.000 A 
ATOM      9  C   UNL     1       2.618   7.920  18.291  0.00  0.00    +0.000 A 
ATOM     10  C   UNL     1       2.118   9.348  18.408  0.00  0.00    +0.000 A 
ENDROOT
BRANCH   1  12
ATOM     11  O   UNL     1      -0.254  11.455  18.748  0.00  0.00    +0.000 OA
ATOM     12  C   UNL     1       0.653  11.206  19.535  0.00  0.00    +0.000 C 
ATOM     13  N   UNL     1       1.134  12.114  20.484  0.00  0.00    +0.000 N 
ATOM     14  C   UNL     1       0.625  13.424  20.637  0.00  0.00    +0.000 A 
ATOM     15  C   UNL     1       1.156  14.296  21.583  0.00  0.00    +0.000 A 
ATOM     16  C   UNL     1       0.560  15.541  21.785  0.00  0.00    +0.000 A 
ATOM     17  C   UNL     1      -0.550  15.886  21.031  0.00  0.00    +0.000 A 
ATOM     18  C   UNL     1      -0.972  14.992  20.061  0.00  0.00    +0.000 A 
ATOM     19  N   UNL     1      -0.381  13.792  19.813  0.00  0.00    +0.000 NA
ATOM     20  H   UNL     1       1.832  11.885  21.177  0.00  0.00    +0.000 HD
ENDBRANCH   1  12
BRANCH   2  21
ATOM     21  C   UNL     1      -0.111   9.077  21.541  0.00  0.00    +0.000 C 
ATOM     22  F   UNL     1      -0.848   7.962  21.812  0.00  0.00    +0.000 F 
ATOM     23  F   UNL     1       0.491   9.421  22.720  0.00  0.00    +0.000 F 
ATOM     24  F   UNL     1      -1.060  10.030  21.349  0.00  0.00    +0.000 F 
ENDBRANCH   2  21
BRANCH   5  25
ATOM     25  C   UNL     1       2.378   4.946  20.514  0.00  0.00    +0.000 C 
ATOM     26  F   UNL     1       1.092   4.603  20.304  0.00  0.00    +0.000 F 
ATOM     27  F   UNL     1       3.089   3.768  20.287  0.00  0.00    +0.000 F 
ATOM     28  F   UNL     1       2.521   5.171  21.835  0.00  0.00    +0.000 F 
ENDBRANCH   5  25
BRANCH  10  29
ATOM     29  O   UNL     1       2.475  10.322  17.491  0.00  0.00    +0.000 OA
ATOM     30  H   UNL     1       3.283  10.114  17.004  0.00  0.00    +0.000 HD
ENDBRANCH  10  29
TORSDOF 4
ENDMDL
MODEL 4
REMARK VINA RESULT:      -6.8      2.286      6.997
REMARK  Name = 
REMARK  4 active torsions:
REMARK  status: ('A' for Active; 'I' for Inactive)
REMARK    1  A    between atoms: C_2  and  C_10
REMARK    2  A    between atoms: C_11  and  C_12
REMARK    3  A    between atoms: C_18  and  C_19
REMARK    4  A    between atoms: C_27  and  O_28
REMARK                            x       y       z     vdW  Elec       q    Type
REMARK                         _______ _______ _______ _____ _____    ______ ____
ROOT
ATOM      1  C   UNL     1       1.503   9.118  19.283  0.00  0.00    +0.000 A 
ATOM      2  C   UNL     1       1.100   8.332  20.343  0.00  0.00    +0.000 A 
ATOM      3  N   UNL     1       1.577   7.061  20.469  0.00  0.00    +0.000 NA
ATOM      4  C   UNL     1       2.336   6.420  19.563  0.00  0.00    +0.000 A 
ATOM      5  C   UNL     1       2.841   5.181  19.845  0.00  0.00    +0.000 A 
ATOM      6  C   UNL     1       3.767   4.563  18.966  0.00  0.00    +0.000 A 
ATOM      7  C   UNL     1       3.781   4.615  17.605  0.00  0.00    +0.000 A 
ATOM      8  C   UNL     1       3.413   5.961  17.405  0.00  0.00    +0.000 A 
ATOM      9  C   UNL     1       2.700   6.985  18.351  0.00  0.00    +0.000 A 
ATOM     10  C   UNL     1       2.304   8.448  18.279  0.00  0.00    +0.000 A 
ENDROOT
BRANCH   1  12
ATOM     11  O   UNL     1       0.086  10.745  18.354  0.00  0.00    +0.000 OA
ATOM     12  C   UNL     1       0.991  10.540  19.156  0.00  0.00    +0.000 C 
ATOM     13  N   UNL     1       1.557  11.530  19.965  0.00  0.00    +0.000 N 
ATOM     14  C   UNL     1       1.145  12.882  19.944  0.00  0.00    +0.000 A 
ATOM     15  C   UNL     1       1.758  13.834  20.754  0.00  0.00    +0.000 A 
ATOM     16  C   UNL     1       1.256  15.135  20.792  0.00  0.00    +0.000 A 
ATOM     17  C   UNL     1       0.156  15.455  20.013  0.00  0.00    +0.000 A 
ATOM     18  C   UNL     1      -0.350  14.471  19.180  0.00  0.00    +0.000 A 
ATOM     19  N   UNL     1       0.149  13.208  19.091  0.00  0.00    +0.000 NA
ATOM     20  H   UNL     1       2.253  11.347  20.673  0.00  0.00    +0.000 HD
ENDBRANCH   1  12
BRANCH   2  21
ATOM     21  C   UNL     1       0.107   8.755  21.431  0.00  0.00    +0.000 C 
ATOM     22  F   UNL     1      -0.708   9.783  21.054  0.00  0.00    +0.000 F 
ATOM     23  F   UNL     1      -0.727   7.728  21.780  0.00  0.00    +0.000 F 
ATOM     24  F   UNL     1       0.624   9.194  22.608  0.00  0.00    +0.000 F 
ENDBRANCH   2  21
BRANCH   5  25
ATOM     25  C   UNL     1       2.281   4.356  20.950  0.00  0.00    +0.000 C 
ATOM     26  F   UNL     1       2.483   4.897  22.167  0.00  0.00    +0.000 F 
ATOM     27  F   UNL     1       0.895   4.362  20.797  0.00  0.00    +0.000 F 
ATOM     28  F   UNL     1       2.599   3.049  21.036  0.00  0.00    +0.000 F 
ENDBRANCH   5  25
BRANCH  10  29
ATOM     29  O   UNL     1       2.716   9.264  17.238  0.00  0.00    +0.000 OA
ATOM     30  H   UNL     1       3.004  10.139  17.526  0.00  0.00    +0.000 HD
ENDBRANCH  10  29
TORSDOF 4
ENDMDL
MODEL 5
REMARK VINA RESULT:      -6.8      3.622      5.369
REMARK  Name = 
REMARK  4 active torsions:
REMARK  status: ('A' for Active; 'I' for Inactive)
REMARK    1  A    between atoms: C_2  and  C_10
REMARK    2  A    between atoms: C_11  and  C_12
REMARK    3  A    between atoms: C_18  and  C_19
REMARK    4  A    between atoms: C_27  and  O_28
REMARK                            x       y       z     vdW  Elec       q    Type
REMARK                         _______ _______ _______ _____ _____    ______ ____
ROOT
ATOM      1  C   UNL     1       0.001  10.698  19.542  0.00  0.00    +0.000 A 
ATOM      2  C   UNL     1      -1.242  10.837  18.959  0.00  0.00    +0.000 A 
ATOM      3  N   UNL     1      -2.175  11.653  19.526  0.00  0.00    +0.000 NA
ATOM      4  C   UNL     1      -2.050  12.270  20.715  0.00  0.00    +0.000 A 
ATOM      5  C   UNL     1      -3.011  13.146  21.136  0.00  0.00    +0.000 A 
ATOM      6  C   UNL     1      -2.816  13.918  22.311  0.00  0.00    +0.000 A 
ATOM      7  C   UNL     1      -2.202  13.535  23.464  0.00  0.00    +0.000 A 
ATOM      8  C   UNL     1      -1.137  12.778  22.936  0.00  0.00    +0.000 A 
ATOM      9  C   UNL     1      -0.943  12.112  21.533  0.00  0.00    +0.000 A 
ATOM     10  C   UNL     1       0.157  11.334  20.834  0.00  0.00    +0.000 A 
ENDROOT
BRANCH   1  12
ATOM     11  O   UNL     1       1.616  10.238  17.900  0.00  0.00    +0.000 OA
ATOM     12  C   UNL     1       1.046   9.809  18.897  0.00  0.00    +0.000 C 
ATOM     13  N   UNL     1       1.317   8.565  19.477  0.00  0.00    +0.000 N 
ATOM     14  C   UNL     1       2.282   7.664  18.972  0.00  0.00    +0.000 A 
ATOM     15  C   UNL     1       2.497   6.428  19.575  0.00  0.00    +0.000 A 
ATOM     16  C   UNL     1       3.531   5.609  19.121  0.00  0.00    +0.000 A 
ATOM     17  C   UNL     1       4.322   6.044  18.071  0.00  0.00    +0.000 A 
ATOM     18  C   UNL     1       3.998   7.254  17.479  0.00  0.00    +0.000 A 
ATOM     19  N   UNL     1       2.967   8.050  17.873  0.00  0.00    +0.000 NA
ATOM     20  H   UNL     1       0.897   8.243  20.337  0.00  0.00    +0.000 HD
ENDBRANCH   1  12
BRANCH   2  21
ATOM     21  C   UNL     1      -1.710  10.114  17.690  0.00  0.00    +0.000 C 
ATOM     22  F   UNL     1      -2.851   9.388  17.867  0.00  0.00    +0.000 F 
ATOM     23  F   UNL     1      -1.982  10.995  16.680  0.00  0.00    +0.000 F 
ATOM     24  F   UNL     1      -0.857   9.211  17.139  0.00  0.00    +0.000 F 
ENDBRANCH   2  21
BRANCH   5  25
ATOM     25  C   UNL     1      -4.363  13.164  20.514  0.00  0.00    +0.000 C 
ATOM     26  F   UNL     1      -4.378  12.649  19.269  0.00  0.00    +0.000 F 
ATOM     27  F   UNL     1      -5.159  12.292  21.256  0.00  0.00    +0.000 F 
ATOM     28  F   UNL     1      -5.069  14.311  20.481  0.00  0.00    +0.000 F 
ENDBRANCH   5  25
BRANCH  10  29
ATOM     29  O   UNL     1       1.420  11.202  21.387  0.00  0.00    +0.000 OA
ATOM     30  H   UNL     1       1.408  11.017  22.334  0.00  0.00    +0.000 HD
ENDBRANCH  10  29
TORSDOF 4
ENDMDL
MODEL 6
REMARK VINA RESULT:      -6.7      3.639      5.373
REMARK  Name = 
REMARK  4 active torsions:
REMARK  status: ('A' for Active; 'I' for Inactive)
REMARK    1  A    between atoms: C_2  and  C_10
REMARK    2  A    between atoms: C_11  and  C_12
REMARK    3  A    between atoms: C_18  and  C_19
REMARK    4  A    between atoms: C_27  and  O_28
REMARK                            x       y       z     vdW  Elec       q    Type
REMARK                         _______ _______ _______ _____ _____    ______ ____
ROOT
ATOM      1  C   UNL     1      -0.010  10.701  19.552  0.00  0.00    +0.000 A 
ATOM      2  C   UNL     1      -1.252  10.847  18.966  0.00  0.00    +0.000 A 
ATOM      3  N   UNL     1      -2.185  11.658  19.541  0.00  0.00    +0.000 NA
ATOM      4  C   UNL     1      -2.064  12.260  20.737  0.00  0.00    +0.000 A 
ATOM      5  C   UNL     1      -3.025  13.132  21.166  0.00  0.00    +0.000 A 
ATOM      6  C   UNL     1      -2.834  13.890  22.350  0.00  0.00    +0.000 A 
ATOM      7  C   UNL     1      -2.223  13.492  23.501  0.00  0.00    +0.000 A 
ATOM      8  C   UNL     1      -1.157  12.741  22.967  0.00  0.00    +0.000 A 
ATOM      9  C   UNL     1      -0.959  12.092  21.557  0.00  0.00    +0.000 A 
ATOM     10  C   UNL     1       0.143  11.321  20.851  0.00  0.00    +0.000 A 
ENDROOT
BRANCH   1  12
ATOM     11  O   UNL     1       1.596  10.251  17.898  0.00  0.00    +0.000 OA
ATOM     12  C   UNL     1       1.036   9.819  18.899  0.00  0.00    +0.000 C 
ATOM     13  N   UNL     1       1.320   8.577  19.478  0.00  0.00    +0.000 N 
ATOM     14  C   UNL     1       2.287   7.682  18.966  0.00  0.00    +0.000 A 
ATOM     15  C   UNL     1       2.515   6.448  19.568  0.00  0.00    +0.000 A 
ATOM     16  C   UNL     1       3.551   5.636  19.107  0.00  0.00    +0.000 A 
ATOM     17  C   UNL     1       4.332   6.076  18.051  0.00  0.00    +0.000 A 
ATOM     18  C   UNL     1       3.995   7.283  17.461  0.00  0.00    +0.000 A 
ATOM     19  N   UNL     1       2.961   8.072  17.862  0.00  0.00    +0.000 NA
ATOM     20  H   UNL     1       0.908   8.252  20.341  0.00  0.00    +0.000 HD
ENDBRANCH   1  12
BRANCH   2  21
ATOM     21  C   UNL     1      -1.716  10.140  17.688  0.00  0.00    +0.000 C 
ATOM     22  F   UNL     1      -0.814   9.236  17.208  0.00  0.00    +0.000 F 
ATOM     23  F   UNL     1      -2.873   9.439  17.892  0.00  0.00    +0.000 F 
ATOM     24  F   UNL     1      -1.972  10.920  16.605  0.00  0.00    +0.000 F 
ENDBRANCH   2  21
BRANCH   5  25
ATOM     25  C   UNL     1      -4.375  13.158  20.540  0.00  0.00    +0.000 C 
ATOM     26  F   UNL     1      -5.300  12.484  21.251  0.00  0.00    +0.000 F 
ATOM     27  F   UNL     1      -4.811  14.482  20.576  0.00  0.00    +0.000 F 
ATOM     28  F   UNL     1      -4.521  12.796  19.250  0.00  0.00    +0.000 F 
ENDBRANCH   5  25
BRANCH  10  29
ATOM     29  O   UNL     1       1.404  11.181  21.407  0.00  0.00    +0.000 OA
ATOM     30  H   UNL     1       2.062  10.844  20.787  0.00  0.00    +0.000 HD
ENDBRANCH  10  29
TORSDOF 4
ENDMDL
MODEL 7
REMARK VINA RESULT:      -6.7      2.216      7.368
REMARK  Name = 
REMARK  4 active torsions:
REMARK  status: ('A' for Active; 'I' for Inactive)
REMARK    1  A    between atoms: C_2  and  C_10
REMARK    2  A    between atoms: C_11  and  C_12
REMARK    3  A    between atoms: C_18  and  C_19
REMARK    4  A    between atoms: C_27  and  O_28
REMARK                            x       y       z     vdW  Elec       q    Type
REMARK                         _______ _______ _______ _____ _____    ______ ____
ROOT
ATOM      1  C   UNL     1       2.601   6.785  19.107  0.00  0.00    +0.000 A 
ATOM      2  C   UNL     1       2.286   5.494  19.481  0.00  0.00    +0.000 A 
ATOM      3  N   UNL     1       2.911   4.439  18.884  0.00  0.00    +0.000 NA
ATOM      4  C   UNL     1       3.748   4.522  17.836  0.00  0.00    +0.000 A 
ATOM      5  C   UNL     1       4.395   3.405  17.385  0.00  0.00    +0.000 A 
ATOM      6  C   UNL     1       5.396   3.506  16.385  0.00  0.00    +0.000 A 
ATOM      7  C   UNL     1       5.416   4.344  15.312  0.00  0.00    +0.000 A 
ATOM      8  C   UNL     1       4.891   5.512  15.901  0.00  0.00    +0.000 A 
ATOM      9  C   UNL     1       4.053   5.719  17.207  0.00  0.00    +0.000 A 
ATOM     10  C   UNL     1       3.485   6.905  17.966  0.00  0.00    +0.000 A 
ENDROOT
BRANCH   1  12
ATOM     11  O   UNL     1       2.082   8.078  20.998  0.00  0.00    +0.000 OA
ATOM     12  C   UNL     1       1.924   7.958  19.788  0.00  0.00    +0.000 C 
ATOM     13  N   UNL     1       1.177   8.846  19.007  0.00  0.00    +0.000 N 
ATOM     14  C   UNL     1       0.519   9.981  19.531  0.00  0.00    +0.000 A 
ATOM     15  C   UNL     1      -0.231  10.821  18.713  0.00  0.00    +0.000 A 
ATOM     16  C   UNL     1      -0.775  11.992  19.239  0.00  0.00    +0.000 A 
ATOM     17  C   UNL     1      -0.561  12.294  20.574  0.00  0.00    +0.000 A 
ATOM     18  C   UNL     1       0.134  11.371  21.338  0.00  0.00    +0.000 A 
ATOM     19  N   UNL     1       0.636  10.200  20.860  0.00  0.00    +0.000 NA
ATOM     20  H   UNL     1       1.105   8.786  18.001  0.00  0.00    +0.000 HD
ENDBRANCH   1  12
BRANCH   2  21
ATOM     21  C   UNL     1       1.240   5.108  20.533  0.00  0.00    +0.000 C 
ATOM     22  F   UNL     1       0.442   4.070  20.151  0.00  0.00    +0.000 F 
ATOM     23  F   UNL     1       1.825   4.716  21.705  0.00  0.00    +0.000 F 
ATOM     24  F   UNL     1       0.344   6.063  20.898  0.00  0.00    +0.000 F 
ENDBRANCH   2  21
BRANCH   5  25
ATOM     25  C   UNL     1       3.929   2.042  17.761  0.00  0.00    +0.000 C 
ATOM     26  F   UNL     1       2.651   1.805  17.407  0.00  0.00    +0.000 F 
ATOM     27  F   UNL     1       4.670   1.139  17.001  0.00  0.00    +0.000 F 
ATOM     28  F   UNL     1       4.079   1.611  19.029  0.00  0.00    +0.000 F 
ENDBRANCH   5  25
BRANCH  10  29
ATOM     29  O   UNL     1       3.806   8.209  17.626  0.00  0.00    +0.000 OA
ATOM     30  H   UNL     1       4.475   8.602  18.199  0.00  0.00    +0.000 HD
ENDBRANCH  10  29
TORSDOF 4
ENDMDL
MODEL 8
REMARK VINA RESULT:      -6.6      3.413      4.719
REMARK  Name = 
REMARK  4 active torsions:
REMARK  status: ('A' for Active; 'I' for Inactive)
REMARK    1  A    between atoms: C_2  and  C_10
REMARK    2  A    between atoms: C_11  and  C_12
REMARK    3  A    between atoms: C_18  and  C_19
REMARK    4  A    between atoms: C_27  and  O_28
REMARK                            x       y       z     vdW  Elec       q    Type
REMARK                         _______ _______ _______ _____ _____    ______ ____
ROOT
ATOM      1  C   UNL     1       1.232   8.745  20.313  0.00  0.00    +0.000 A 
ATOM      2  C   UNL     1       0.743   9.497  19.264  0.00  0.00    +0.000 A 
ATOM      3  N   UNL     1       0.043  10.640  19.514  0.00  0.00    +0.000 NA
ATOM      4  C   UNL     1      -0.347  11.065  20.728  0.00  0.00    +0.000 A 
ATOM      5  C   UNL     1      -0.957  12.281  20.866  0.00  0.00    +0.000 A 
ATOM      6  C   UNL     1      -1.231  12.808  22.154  0.00  0.00    +0.000 A 
ATOM      7  C   UNL     1      -1.621  12.125  23.266  0.00  0.00    +0.000 A 
ATOM      8  C   UNL     1      -0.827  10.967  23.134  0.00  0.00    +0.000 A 
ATOM      9  C   UNL     1      -0.101  10.352  21.891  0.00  0.00    +0.000 A 
ATOM     10  C   UNL     1       0.811   9.166  21.632  0.00  0.00    +0.000 A 
ENDROOT
BRANCH   1  12
ATOM     11  O   UNL     1       2.991   7.583  19.277  0.00  0.00    +0.000 OA
ATOM     12  C   UNL     1       2.031   7.487  20.034  0.00  0.00    +0.000 C 
ATOM     13  N   UNL     1       1.649   6.297  20.663  0.00  0.00    +0.000 N 
ATOM     14  C   UNL     1       2.331   5.071  20.492  0.00  0.00    +0.000 A 
ATOM     15  C   UNL     1       1.895   3.910  21.124  0.00  0.00    +0.000 A 
ATOM     16  C   UNL     1       2.652   2.743  21.024  0.00  0.00    +0.000 A 
ATOM     17  C   UNL     1       3.825   2.763  20.288  0.00  0.00    +0.000 A 
ATOM     18  C   UNL     1       4.152   3.938  19.630  0.00  0.00    +0.000 A 
ATOM     19  N   UNL     1       3.407   5.076  19.674  0.00  0.00    +0.000 NA
ATOM     20  H   UNL     1       0.901   6.234  21.340  0.00  0.00    +0.000 HD
ENDBRANCH   1  12
BRANCH   2  21
ATOM     21  C   UNL     1       0.896   9.150  17.779  0.00  0.00    +0.000 C 
ATOM     22  F   UNL     1      -0.153   9.565  17.012  0.00  0.00    +0.000 F 
ATOM     23  F   UNL     1       2.007   9.735  17.237  0.00  0.00    +0.000 F 
ATOM     24  F   UNL     1       1.007   7.835  17.456  0.00  0.00    +0.000 F 
ENDBRANCH   2  21
BRANCH   5  25
ATOM     25  C   UNL     1      -1.546  12.983  19.692  0.00  0.00    +0.000 C 
ATOM     26  F   UNL     1      -2.527  12.280  19.093  0.00  0.00    +0.000 F 
ATOM     27  F   UNL     1      -2.187  14.120  20.183  0.00  0.00    +0.000 F 
ATOM     28  F   UNL     1      -0.739  13.451  18.720  0.00  0.00    +0.000 F 
ENDBRANCH   5  25
BRANCH  10  29
ATOM     29  O   UNL     1       1.334   8.411  22.668  0.00  0.00    +0.000 OA
ATOM     30  H   UNL     1       1.679   8.943  23.396  0.00  0.00    +0.000 HD
ENDBRANCH  10  29
TORSDOF 4
ENDMDL
MODEL 9
REMARK VINA RESULT:      -6.6      8.974     11.304
REMARK  Name = 
REMARK  4 active torsions:
REMARK  status: ('A' for Active; 'I' for Inactive)
REMARK    1  A    between atoms: C_2  and  C_10
REMARK    2  A    between atoms: C_11  and  C_12
REMARK    3  A    between atoms: C_18  and  C_19
REMARK    4  A    between atoms: C_27  and  O_28
REMARK                            x       y       z     vdW  Elec       q    Type
REMARK                         _______ _______ _______ _____ _____    ______ ____
ROOT
ATOM      1  C   UNL     1       8.607  12.574  22.474  0.00  0.00    +0.000 A 
ATOM      2  C   UNL     1       8.673  13.898  22.089  0.00  0.00    +0.000 A 
ATOM      3  N   UNL     1       9.051  14.222  20.820  0.00  0.00    +0.000 NA
ATOM      4  C   UNL     1       9.507  13.355  19.898  0.00  0.00    +0.000 A 
ATOM      5  C   UNL     1       9.760  13.780  18.624  0.00  0.00    +0.000 A 
ATOM      6  C   UNL     1      10.091  12.849  17.606  0.00  0.00    +0.000 A 
ATOM      7  C   UNL     1      10.845  11.721  17.725  0.00  0.00    +0.000 A 
ATOM      8  C   UNL     1      10.404  11.262  18.983  0.00  0.00    +0.000 A 
ATOM      9  C   UNL     1       9.679  12.004  20.155  0.00  0.00    +0.000 A 
ATOM     10  C   UNL     1       9.112  11.620  21.509  0.00  0.00    +0.000 A 
ENDROOT
BRANCH   1  12
ATOM     11  O   UNL     1       8.946  12.445  24.795  0.00  0.00    +0.000 OA
ATOM     12  C   UNL     1       8.164  12.214  23.878  0.00  0.00    +0.000 C 
ATOM     13  N   UNL     1       6.891  11.663  24.058  0.00  0.00    +0.000 N 
ATOM     14  C   UNL     1       6.368  11.307  25.322  0.00  0.00    +0.000 A 
ATOM     15  C   UNL     1       5.103  10.740  25.444  0.00  0.00    +0.000 A 
ATOM     16  C   UNL     1       4.571  10.503  26.711  0.00  0.00    +0.000 A 
ATOM     17  C   UNL     1       5.320  10.834  27.828  0.00  0.00    +0.000 A 
ATOM     18  C   UNL     1       6.598  11.327  27.622  0.00  0.00    +0.000 A 
ATOM     19  N   UNL     1       7.157  11.525  26.397  0.00  0.00    +0.000 NA
ATOM     20  H   UNL     1       6.222  11.538  23.312  0.00  0.00    +0.000 HD
ENDBRANCH   1  12
BRANCH   2  21
ATOM     21  C   UNL     1       8.371  15.098  22.994  0.00  0.00    +0.000 C 
ATOM     22  F   UNL     1       9.330  15.324  23.936  0.00  0.00    +0.000 F 
ATOM     23  F   UNL     1       8.274  16.259  22.276  0.00  0.00    +0.000 F 
ATOM     24  F   UNL     1       7.228  15.051  23.727  0.00  0.00    +0.000 F 
ENDBRANCH   2  21
BRANCH   5  25
ATOM     25  C   UNL     1       9.912  15.228  18.312  0.00  0.00    +0.000 C 
ATOM     26  F   UNL     1      10.845  15.837  19.069  0.00  0.00    +0.000 F 
ATOM     27  F   UNL     1      10.415  15.310  17.014  0.00  0.00    +0.000 F 
ATOM     28  F   UNL     1       8.826  16.026  18.298  0.00  0.00    +0.000 F 
ENDBRANCH   5  25
BRANCH  10  29
ATOM     29  O   UNL     1       9.014  10.297  21.908  0.00  0.00    +0.000 OA
ATOM     30  H   UNL     1       9.686  10.038  22.551  0.00  0.00    +0.000 HD
ENDBRANCH  10  29
TORSDOF 4
ENDMDL
