MODEL 1
REMARK VINA RESULT:      -8.4      0.000      0.000
REMARK  Name = 
REMARK  16 active torsions:
REMARK  status: ('A' for Active; 'I' for Inactive)
REMARK    1  A    between atoms: C_1  and  C_2
REMARK    2  A    between atoms: C_2  and  C_3
REMARK    3  A    between atoms: C_2  and  O_4
REMARK    4  A    between atoms: O_4  and  C_5
REMARK    5  A    between atoms: C_7  and  C_8
REMARK    6  A    between atoms: C_11  and  C_12
REMARK    7  A    between atoms: C_12  and  C_13
REMARK    8  A    between atoms: C_13  and  C_14
REMARK    9  A    between atoms: C_13  and  C_15
REMARK   10  A    between atoms: C_13  and  N_16
REMARK   11  A    between atoms: N_16  and  C_17
REMARK   12  A    between atoms: C_17  and  C_18
REMARK   13  A    between atoms: C_18  and  O_19
REMARK   14  A    between atoms: C_18  and  C_20
REMARK   15  A    between atoms: C_30  and  C_31
REMARK   16  A    between atoms: C_31  and  O_33
REMARK                            x       y       z     vdW  Elec       q    Type
REMARK                         _______ _______ _______ _____ _____    ______ ____
ROOT
ATOM      1  C   UNL     1       1.521   8.526  19.311  0.00  0.00    +0.000 A 
ATOM      2  C   UNL     1       1.461   7.659  20.410  0.00  0.00    +0.000 A 
ATOM      3  C   UNL     1       2.227   6.476  20.448  0.00  0.00    +0.000 A 
ATOM      4  C   UNL     1       3.068   6.119  19.384  0.00  0.00    +0.000 A 
ATOM      5  C   UNL     1       3.134   6.969  18.287  0.00  0.00    +0.000 A 
ATOM      6  C   UNL     1       2.382   8.144  18.257  0.00  0.00    +0.000 A 
ENDROOT
BRANCH   1   9
ATOM      7  C   UNL     1      -0.976  11.254  18.381  0.00  0.00    +0.000 A 
ATOM      8  C   UNL     1      -0.061  10.196  18.217  0.00  0.00    +0.000 A 
ATOM      9  C   UNL     1       0.851   9.853  19.237  0.00  0.00    +0.000 A 
ATOM     10  C   UNL     1       0.961  10.745  20.322  0.00  0.00    +0.000 A 
ATOM     11  C   UNL     1       0.018  11.746  20.531  0.00  0.00    +0.000 A 
ATOM     12  C   UNL     1      -1.012  11.923  19.610  0.00  0.00    +0.000 A 
BRANCH  12  13
ATOM     13  C   UNL     1      -2.197  12.662  20.099  0.00  0.00    +0.000 C 
ATOM     14  O   UNL     1      -2.277  13.123  21.225  0.00  0.00    +0.000 OA
BRANCH  13  15
ATOM     15  O   UNL     1      -3.215  12.669  19.214  0.00  0.00    +0.000 OA
ATOM     16  H   UNL     1      -4.062  12.997  19.579  0.00  0.00    +0.000 HD
ENDBRANCH  13  15
ENDBRANCH  12  13
BRANCH   7  17
ATOM     17  O   UNL     1      -1.890  11.415  17.369  0.00  0.00    +0.000 OA
BRANCH  17  19
ATOM     18  C   UNL     1      -3.552   9.634  17.528  0.00  0.00    +0.000 C 
ATOM     19  C   UNL     1      -2.392  10.218  16.732  0.00  0.00    +0.000 C 
ATOM     20  C   UNL     1      -2.857  10.620  15.334  0.00  0.00    +0.000 C 
ENDBRANCH  17  19
ENDBRANCH   7  17
ENDBRANCH   1   9
BRANCH   4  21
ATOM     21  C   UNL     1       3.931   4.872  19.415  0.00  0.00    +0.000 C 
BRANCH  21  22
ATOM     22  C   UNL     1       3.331   3.563  18.781  0.00  0.00    +0.000 C 
ATOM     23  C   UNL     1       3.391   2.469  19.869  0.00  0.00    +0.000 C 
ATOM     24  C   UNL     1       1.869   3.835  18.381  0.00  0.00    +0.000 C 
BRANCH  22  25
ATOM     25  N   UNL     1       4.136   3.108  17.618  0.00  0.00    +0.000 NA
ATOM     26  H   UNL     1       3.793   2.200  17.309  0.00  0.00    +0.000 HD
BRANCH  25  27
ATOM     27  C   UNL     1       4.171   4.030  16.459  0.00  0.00    +0.000 C 
BRANCH  27  28
ATOM     28  C   UNL     1       5.607   4.334  15.945  0.00  0.00    +0.000 C 
BRANCH  28  29
ATOM     29  C   UNL     1       6.391   5.268  16.857  0.00  0.00    +0.000 A 
ATOM     30  C   UNL     1       6.398   6.659  16.671  0.00  0.00    +0.000 A 
ATOM     31  C   UNL     1       7.191   7.483  17.473  0.00  0.00    +0.000 A 
ATOM     32  C   UNL     1       7.966   6.934  18.491  0.00  0.00    +0.000 A 
ATOM     33  C   UNL     1       7.930   5.562  18.725  0.00  0.00    +0.000 A 
ATOM     34  C   UNL     1       7.140   4.739  17.921  0.00  0.00    +0.000 A 
ENDBRANCH  28  29
BRANCH  28  35
ATOM     35  O   UNL     1       6.278   3.083  15.747  0.00  0.00    +0.000 OA
ATOM     36  H   UNL     1       5.633   2.404  16.001  0.00  0.00    +0.000 HD
ENDBRANCH  28  35
ENDBRANCH  27  28
ENDBRANCH  25  27
ENDBRANCH  22  25
ENDBRANCH  21  22
ENDBRANCH   4  21
TORSDOF 12
ENDMDL
MODEL 2
REMARK VINA RESULT:      -8.1      2.614     10.121
REMARK  Name = 
REMARK  16 active torsions:
REMARK  status: ('A' for Active; 'I' for Inactive)
REMARK    1  A    between atoms: C_1  and  C_2
REMARK    2  A    between atoms: C_2  and  C_3
REMARK    3  A    between atoms: C_2  and  O_4
REMARK    4  A    between atoms: O_4  and  C_5
REMARK    5  A    between atoms: C_7  and  C_8
REMARK    6  A    between atoms: C_11  and  C_12
REMARK    7  A    between atoms: C_12  and  C_13
REMARK    8  A    between atoms: C_13  and  C_14
REMARK    9  A    between atoms: C_13  and  C_15
REMARK   10  A    between atoms: C_13  and  N_16
REMARK   11  A    between atoms: N_16  and  C_17
REMARK   12  A    between atoms: C_17  and  C_18
REMARK   13  A    between atoms: C_18  and  O_19
REMARK   14  A    between atoms: C_18  and  C_20
REMARK   15  A    between atoms: C_30  and  C_31
REMARK   16  A    between atoms: C_31  and  O_33
REMARK                            x       y       z     vdW  Elec       q    Type
REMARK                         _______ _______ _______ _____ _____    ______ ____
ROOT
ATOM      1  C   UNL     1       2.334   7.268  18.615  0.00  0.00    +0.000 A 
ATOM      2  C   UNL     1       1.729   7.710  19.799  0.00  0.00    +0.000 A 
ATOM      3  C   UNL     1       1.297   9.045  19.942  0.00  0.00    +0.000 A 
ATOM      4  C   UNL     1       1.467   9.979  18.910  0.00  0.00    +0.000 A 
ATOM      5  C   UNL     1       2.069   9.553  17.732  0.00  0.00    +0.000 A 
ATOM      6  C   UNL     1       2.486   8.229  17.591  0.00  0.00    +0.000 A 
ENDROOT
BRANCH   1   9
ATOM      7  C   UNL     1       4.439   4.166  17.912  0.00  0.00    +0.000 A 
ATOM      8  C   UNL     1       3.956   5.484  17.792  0.00  0.00    +0.000 A 
ATOM      9  C   UNL     1       2.704   5.855  18.326  0.00  0.00    +0.000 A 
ATOM     10  C   UNL     1       1.868   4.815  18.776  0.00  0.00    +0.000 A 
ATOM     11  C   UNL     1       2.359   3.527  18.968  0.00  0.00    +0.000 A 
ATOM     12  C   UNL     1       3.680   3.238  18.634  0.00  0.00    +0.000 A 
BRANCH  12  13
ATOM     13  C   UNL     1       4.257   2.030  19.263  0.00  0.00    +0.000 C 
ATOM     14  O   UNL     1       4.868   2.054  20.318  0.00  0.00    +0.000 OA
BRANCH  13  15
ATOM     15  O   UNL     1       4.136   0.928  18.494  0.00  0.00    +0.000 OA
ATOM     16  H   UNL     1       3.767   0.151  18.962  0.00  0.00    +0.000 HD
ENDBRANCH  13  15
ENDBRANCH  12  13
BRANCH   7  17
ATOM     17  O   UNL     1       5.718   3.956  17.459  0.00  0.00    +0.000 OA
BRANCH  17  19
ATOM     18  C   UNL     1       7.601   5.418  17.989  0.00  0.00    +0.000 C 
ATOM     19  C   UNL     1       6.465   5.114  17.020  0.00  0.00    +0.000 C 
ATOM     20  C   UNL     1       7.022   4.786  15.636  0.00  0.00    +0.000 C 
ENDBRANCH  17  19
ENDBRANCH   7  17
ENDBRANCH   1   9
BRANCH   4  21
ATOM     21  C   UNL     1       0.979  11.410  19.023  0.00  0.00    +0.000 C 
BRANCH  21  22
ATOM     22  C   UNL     1      -0.528  11.691  18.667  0.00  0.00    +0.000 C 
ATOM     23  C   UNL     1      -1.357  11.358  19.927  0.00  0.00    +0.000 C 
ATOM     24  C   UNL     1      -0.679  13.182  18.310  0.00  0.00    +0.000 C 
BRANCH  22  25
ATOM     25  N   UNL     1      -0.993  10.817  17.559  0.00  0.00    +0.000 NA
ATOM     26  H   UNL     1      -0.291  10.098  17.384  0.00  0.00    +0.000 HD
BRANCH  25  27
ATOM     27  C   UNL     1      -2.309  10.167  17.760  0.00  0.00    +0.000 C 
BRANCH  27  28
ATOM     28  C   UNL     1      -3.375  10.577  16.703  0.00  0.00    +0.000 C 
BRANCH  28  29
ATOM     29  C   UNL     1      -4.696  11.020  17.318  0.00  0.00    +0.000 A 
ATOM     30  C   UNL     1      -5.329  12.215  16.943  0.00  0.00    +0.000 A 
ATOM     31  C   UNL     1      -6.497  12.636  17.582  0.00  0.00    +0.000 A 
ATOM     32  C   UNL     1      -7.066  11.856  18.585  0.00  0.00    +0.000 A 
ATOM     33  C   UNL     1      -6.483  10.641  18.933  0.00  0.00    +0.000 A 
ATOM     34  C   UNL     1      -5.314  10.223  18.296  0.00  0.00    +0.000 A 
ENDBRANCH  28  29
BRANCH  28  35
ATOM     35  O   UNL     1      -2.801  11.590  15.867  0.00  0.00    +0.000 OA
ATOM     36  H   UNL     1      -3.473  12.290  15.816  0.00  0.00    +0.000 HD
ENDBRANCH  28  35
ENDBRANCH  27  28
ENDBRANCH  25  27
ENDBRANCH  22  25
ENDBRANCH  21  22
ENDBRANCH   4  21
TORSDOF 12
ENDMDL
MODEL 3
REMARK VINA RESULT:      -8.1      0.734      1.123
REMARK  Name = 
REMARK  16 active torsions:
REMARK  status: ('A' for Active; 'I' for Inactive)
REMARK    1  A    between atoms: C_1  and  C_2
REMARK    2  A    between atoms: C_2  and  C_3
REMARK    3  A    between atoms: C_2  and  O_4
REMARK    4  A    between atoms: O_4  and  C_5
REMARK    5  A    between atoms: C_7  and  C_8
REMARK    6  A    between atoms: C_11  and  C_12
REMARK    7  A    between atoms: C_12  and  C_13
REMARK    8  A    between atoms: C_13  and  C_14
REMARK    9  A    between atoms: C_13  and  C_15
REMARK   10  A    between atoms: C_13  and  N_16
REMARK   11  A    between atoms: N_16  and  C_17
REMARK   12  A    between atoms: C_17  and  C_18
REMARK   13  A    between atoms: C_18  and  O_19
REMARK   14  A    between atoms: C_18  and  C_20
REMARK   15  A    between atoms: C_30  and  C_31
REMARK   16  A    between atoms: C_31  and  O_33
REMARK                            x       y       z     vdW  Elec       q    Type
REMARK                         _______ _______ _______ _____ _____    ______ ____
ROOT
ATOM      1  C   UNL     1       1.311   8.939  19.569  0.00  0.00    +0.000 A 
ATOM      2  C   UNL     1       1.343   7.994  20.604  0.00  0.00    +0.000 A 
ATOM      3  C   UNL     1       2.106   6.814  20.489  0.00  0.00    +0.000 A 
ATOM      4  C   UNL     1       2.851   6.538  19.334  0.00  0.00    +0.000 A 
ATOM      5  C   UNL     1       2.824   7.466  18.299  0.00  0.00    +0.000 A 
ATOM      6  C   UNL     1       2.076   8.638  18.421  0.00  0.00    +0.000 A 
ENDROOT
BRANCH   1   9
ATOM      7  C   UNL     1      -1.136  11.786  18.899  0.00  0.00    +0.000 A 
ATOM      8  C   UNL     1      -0.209  10.759  18.637  0.00  0.00    +0.000 A 
ATOM      9  C   UNL     1       0.641  10.266  19.650  0.00  0.00    +0.000 A 
ATOM     10  C   UNL     1       0.681  10.989  20.858  0.00  0.00    +0.000 A 
ATOM     11  C   UNL     1      -0.277  11.953  21.154  0.00  0.00    +0.000 A 
ATOM     12  C   UNL     1      -1.250  12.268  20.208  0.00  0.00    +0.000 A 
BRANCH  12  13
ATOM     13  C   UNL     1      -2.466  12.933  20.727  0.00  0.00    +0.000 C 
ATOM     14  O   UNL     1      -3.215  12.414  21.537  0.00  0.00    +0.000 OA
BRANCH  13  15
ATOM     15  O   UNL     1      -2.716  14.115  20.126  0.00  0.00    +0.000 OA
ATOM     16  H   UNL     1      -2.152  14.851  20.440  0.00  0.00    +0.000 HD
ENDBRANCH  13  15
ENDBRANCH  12  13
BRANCH   7  17
ATOM     17  O   UNL     1      -1.987  12.098  17.867  0.00  0.00    +0.000 OA
BRANCH  17  19
ATOM     18  C   UNL     1      -4.337  11.438  17.836  0.00  0.00    +0.000 C 
ATOM     19  C   UNL     1      -2.912  11.074  17.438  0.00  0.00    +0.000 C 
ATOM     20  C   UNL     1      -2.794  10.976  15.918  0.00  0.00    +0.000 C 
ENDBRANCH  17  19
ENDBRANCH   7  17
ENDBRANCH   1   9
BRANCH   4  21
ATOM     21  C   UNL     1       3.709   5.295  19.200  0.00  0.00    +0.000 C 
BRANCH  21  22
ATOM     22  C   UNL     1       3.038   4.018  18.571  0.00  0.00    +0.000 C 
ATOM     23  C   UNL     1       2.914   2.974  19.701  0.00  0.00    +0.000 C 
ATOM     24  C   UNL     1       1.642   4.404  18.048  0.00  0.00    +0.000 C 
BRANCH  22  25
ATOM     25  N   UNL     1       3.882   3.441  17.493  0.00  0.00    +0.000 NA
ATOM     26  H   UNL     1       3.427   2.606  17.124  0.00  0.00    +0.000 HD
BRANCH  25  27
ATOM     27  C   UNL     1       4.203   4.351  16.369  0.00  0.00    +0.000 C 
BRANCH  27  28
ATOM     28  C   UNL     1       5.709   4.356  15.980  0.00  0.00    +0.000 C 
BRANCH  28  29
ATOM     29  C   UNL     1       6.567   5.217  16.897  0.00  0.00    +0.000 A 
ATOM     30  C   UNL     1       7.216   4.689  18.025  0.00  0.00    +0.000 A 
ATOM     31  C   UNL     1       7.929   5.519  18.892  0.00  0.00    +0.000 A 
ATOM     32  C   UNL     1       8.029   6.883  18.633  0.00  0.00    +0.000 A 
ATOM     33  C   UNL     1       7.438   7.416  17.491  0.00  0.00    +0.000 A 
ATOM     34  C   UNL     1       6.723   6.587  16.625  0.00  0.00    +0.000 A 
ENDBRANCH  28  29
BRANCH  28  35
ATOM     35  O   UNL     1       6.159   2.995  15.940  0.00  0.00    +0.000 OA
ATOM     36  H   UNL     1       7.039   3.005  16.352  0.00  0.00    +0.000 HD
ENDBRANCH  28  35
ENDBRANCH  27  28
ENDBRANCH  25  27
ENDBRANCH  22  25
ENDBRANCH  21  22
ENDBRANCH   4  21
TORSDOF 12
ENDMDL
MODEL 4
REMARK VINA RESULT:      -7.9      2.787     10.103
REMARK  Name = 
REMARK  16 active torsions:
REMARK  status: ('A' for Active; 'I' for Inactive)
REMARK    1  A    between atoms: C_1  and  C_2
REMARK    2  A    between atoms: C_2  and  C_3
REMARK    3  A    between atoms: C_2  and  O_4
REMARK    4  A    between atoms: O_4  and  C_5
REMARK    5  A    between atoms: C_7  and  C_8
REMARK    6  A    between atoms: C_11  and  C_12
REMARK    7  A    between atoms: C_12  and  C_13
REMARK    8  A    between atoms: C_13  and  C_14
REMARK    9  A    between atoms: C_13  and  C_15
REMARK   10  A    between atoms: C_13  and  N_16
REMARK   11  A    between atoms: N_16  and  C_17
REMARK   12  A    between atoms: C_17  and  C_18
REMARK   13  A    between atoms: C_18  and  O_19
REMARK   14  A    between atoms: C_18  and  C_20
REMARK   15  A    between atoms: C_30  and  C_31
REMARK   16  A    between atoms: C_31  and  O_33
REMARK                            x       y       z     vdW  Elec       q    Type
REMARK                         _______ _______ _______ _____ _____    ______ ____
ROOT
ATOM      1  C   UNL     1       2.139   7.301  19.140  0.00  0.00    +0.000 A 
ATOM      2  C   UNL     1       1.636   7.997  20.247  0.00  0.00    +0.000 A 
ATOM      3  C   UNL     1       1.288   9.361  20.154  0.00  0.00    +0.000 A 
ATOM      4  C   UNL     1       1.442  10.071  18.955  0.00  0.00    +0.000 A 
ATOM      5  C   UNL     1       1.943   9.392  17.851  0.00  0.00    +0.000 A 
ATOM      6  C   UNL     1       2.277   8.041  17.944  0.00  0.00    +0.000 A 
ENDROOT
BRANCH   1   9
ATOM      7  C   UNL     1       3.961   3.985  18.658  0.00  0.00    +0.000 A 
ATOM      8  C   UNL     1       3.467   5.271  18.362  0.00  0.00    +0.000 A 
ATOM      9  C   UNL     1       2.411   5.838  19.108  0.00  0.00    +0.000 A 
ATOM     10  C   UNL     1       1.731   4.987  20.000  0.00  0.00    +0.000 A 
ATOM     11  C   UNL     1       2.252   3.747  20.354  0.00  0.00    +0.000 A 
ATOM     12  C   UNL     1       3.430   3.301  19.757  0.00  0.00    +0.000 A 
BRANCH  12  13
ATOM     13  C   UNL     1       4.155   2.232  20.478  0.00  0.00    +0.000 C 
ATOM     14  O   UNL     1       3.921   1.931  21.636  0.00  0.00    +0.000 OA
BRANCH  13  15
ATOM     15  O   UNL     1       5.172   1.711  19.761  0.00  0.00    +0.000 OA
ATOM     16  H   UNL     1       5.566   0.904  20.151  0.00  0.00    +0.000 HD
ENDBRANCH  13  15
ENDBRANCH  12  13
BRANCH   7  17
ATOM     17  O   UNL     1       5.065   3.592  17.943  0.00  0.00    +0.000 OA
BRANCH  17  19
ATOM     18  C   UNL     1       7.218   4.690  17.601  0.00  0.00    +0.000 C 
ATOM     19  C   UNL     1       5.756   4.605  17.179  0.00  0.00    +0.000 C 
ATOM     20  C   UNL     1       5.651   4.204  15.709  0.00  0.00    +0.000 C 
ENDBRANCH  17  19
ENDBRANCH   7  17
ENDBRANCH   1   9
BRANCH   4  21
ATOM     21  C   UNL     1       1.042  11.527  18.818  0.00  0.00    +0.000 C 
BRANCH  21  22
ATOM     22  C   UNL     1      -0.495  11.847  18.707  0.00  0.00    +0.000 C 
ATOM     23  C   UNL     1      -1.131  11.473  20.064  0.00  0.00    +0.000 C 
ATOM     24  C   UNL     1      -0.665  13.354  18.437  0.00  0.00    +0.000 C 
BRANCH  22  25
ATOM     25  N   UNL     1      -1.141  11.029  17.649  0.00  0.00    +0.000 NA
ATOM     26  H   UNL     1      -0.464  10.362  17.282  0.00  0.00    +0.000 HD
BRANCH  25  27
ATOM     27  C   UNL     1      -2.365  10.300  18.055  0.00  0.00    +0.000 C 
BRANCH  27  28
ATOM     28  C   UNL     1      -3.656  10.799  17.344  0.00  0.00    +0.000 C 
BRANCH  28  29
ATOM     29  C   UNL     1      -4.758  11.211  18.310  0.00  0.00    +0.000 A 
ATOM     30  C   UNL     1      -6.027  10.612  18.292  0.00  0.00    +0.000 A 
ATOM     31  C   UNL     1      -7.043  11.066  19.136  0.00  0.00    +0.000 A 
ATOM     32  C   UNL     1      -6.799  12.105  20.030  0.00  0.00    +0.000 A 
ATOM     33  C   UNL     1      -5.531  12.674  20.101  0.00  0.00    +0.000 A 
ATOM     34  C   UNL     1      -4.517  12.222  19.255  0.00  0.00    +0.000 A 
ENDBRANCH  28  29
BRANCH  28  35
ATOM     35  O   UNL     1      -3.287  11.866  16.459  0.00  0.00    +0.000 OA
ATOM     36  H   UNL     1      -2.926  11.430  15.670  0.00  0.00    +0.000 HD
ENDBRANCH  28  35
ENDBRANCH  27  28
ENDBRANCH  25  27
ENDBRANCH  22  25
ENDBRANCH  21  22
ENDBRANCH   4  21
TORSDOF 12
ENDMDL
MODEL 5
REMARK VINA RESULT:      -7.9      2.167      4.179
REMARK  Name = 
REMARK  16 active torsions:
REMARK  status: ('A' for Active; 'I' for Inactive)
REMARK    1  A    between atoms: C_1  and  C_2
REMARK    2  A    between atoms: C_2  and  C_3
REMARK    3  A    between atoms: C_2  and  O_4
REMARK    4  A    between atoms: O_4  and  C_5
REMARK    5  A    between atoms: C_7  and  C_8
REMARK    6  A    between atoms: C_11  and  C_12
REMARK    7  A    between atoms: C_12  and  C_13
REMARK    8  A    between atoms: C_13  and  C_14
REMARK    9  A    between atoms: C_13  and  C_15
REMARK   10  A    between atoms: C_13  and  N_16
REMARK   11  A    between atoms: N_16  and  C_17
REMARK   12  A    between atoms: C_17  and  C_18
REMARK   13  A    between atoms: C_18  and  O_19
REMARK   14  A    between atoms: C_18  and  C_20
REMARK   15  A    between atoms: C_30  and  C_31
REMARK   16  A    between atoms: C_31  and  O_33
REMARK                            x       y       z     vdW  Elec       q    Type
REMARK                         _______ _______ _______ _____ _____    ______ ____
ROOT
ATOM      1  C   UNL     1       1.518   8.250  20.212  0.00  0.00    +0.000 A 
ATOM      2  C   UNL     1       1.762   6.940  20.647  0.00  0.00    +0.000 A 
ATOM      3  C   UNL     1       2.294   5.969  19.774  0.00  0.00    +0.000 A 
ATOM      4  C   UNL     1       2.589   6.275  18.438  0.00  0.00    +0.000 A 
ATOM      5  C   UNL     1       2.349   7.570  17.994  0.00  0.00    +0.000 A 
ATOM      6  C   UNL     1       1.832   8.531  18.864  0.00  0.00    +0.000 A 
ENDROOT
BRANCH   1   9
ATOM      7  C   UNL     1       0.135  11.625  21.327  0.00  0.00    +0.000 A 
ATOM      8  C   UNL     1       0.923  10.692  20.623  0.00  0.00    +0.000 A 
ATOM      9  C   UNL     1       1.082   9.370  21.090  0.00  0.00    +0.000 A 
ATOM     10  C   UNL     1       0.612   9.090  22.388  0.00  0.00    +0.000 A 
ATOM     11  C   UNL     1      -0.228   9.974  23.058  0.00  0.00    +0.000 A 
ATOM     12  C   UNL     1      -0.549  11.196  22.469  0.00  0.00    +0.000 A 
BRANCH  12  13
ATOM     13  C   UNL     1      -1.760  11.866  22.992  0.00  0.00    +0.000 C 
ATOM     14  O   UNL     1      -2.692  11.262  23.494  0.00  0.00    +0.000 OA
BRANCH  13  15
ATOM     15  O   UNL     1      -1.773  13.193  22.749  0.00  0.00    +0.000 OA
ATOM     16  H   UNL     1      -1.306  13.729  23.422  0.00  0.00    +0.000 HD
ENDBRANCH  13  15
ENDBRANCH  12  13
BRANCH   7  17
ATOM     17  O   UNL     1      -0.040  12.840  20.713  0.00  0.00    +0.000 OA
BRANCH  17  19
ATOM     18  C   UNL     1      -1.907  12.424  19.196  0.00  0.00    +0.000 C 
ATOM     19  C   UNL     1      -0.444  12.831  19.325  0.00  0.00    +0.000 C 
ATOM     20  C   UNL     1      -0.238  14.247  18.792  0.00  0.00    +0.000 C 
ENDBRANCH  17  19
ENDBRANCH   7  17
ENDBRANCH   1   9
BRANCH   4  21
ATOM     21  C   UNL     1       3.196   5.261  17.489  0.00  0.00    +0.000 C 
BRANCH  21  22
ATOM     22  C   UNL     1       4.753   5.047  17.558  0.00  0.00    +0.000 C 
ATOM     23  C   UNL     1       5.334   5.535  16.213  0.00  0.00    +0.000 C 
ATOM     24  C   UNL     1       5.314   5.893  18.717  0.00  0.00    +0.000 C 
BRANCH  22  25
ATOM     25  N   UNL     1       5.095   3.611  17.720  0.00  0.00    +0.000 NA
ATOM     26  H   UNL     1       5.964   3.416  17.222  0.00  0.00    +0.000 HD
BRANCH  25  27
ATOM     27  C   UNL     1       5.221   3.132  19.116  0.00  0.00    +0.000 C 
BRANCH  27  28
ATOM     28  C   UNL     1       4.330   1.897  19.436  0.00  0.00    +0.000 C 
BRANCH  28  29
ATOM     29  C   UNL     1       2.887   2.260  19.757  0.00  0.00    +0.000 A 
ATOM     30  C   UNL     1       1.877   2.236  18.782  0.00  0.00    +0.000 A 
ATOM     31  C   UNL     1       0.580   2.652  19.086  0.00  0.00    +0.000 A 
ATOM     32  C   UNL     1       0.263   3.072  20.376  0.00  0.00    +0.000 A 
ATOM     33  C   UNL     1       1.238   3.051  21.369  0.00  0.00    +0.000 A 
ATOM     34  C   UNL     1       2.535   2.638  21.064  0.00  0.00    +0.000 A 
ENDBRANCH  28  29
BRANCH  28  35
ATOM     35  O   UNL     1       4.426   0.986  18.333  0.00  0.00    +0.000 OA
ATOM     36  H   UNL     1       3.962   0.184  18.623  0.00  0.00    +0.000 HD
ENDBRANCH  28  35
ENDBRANCH  27  28
ENDBRANCH  25  27
ENDBRANCH  22  25
ENDBRANCH  21  22
ENDBRANCH   4  21
TORSDOF 12
ENDMDL
MODEL 6
REMARK VINA RESULT:      -7.8      1.866      2.826
REMARK  Name = 
REMARK  16 active torsions:
REMARK  status: ('A' for Active; 'I' for Inactive)
REMARK    1  A    between atoms: C_1  and  C_2
REMARK    2  A    between atoms: C_2  and  C_3
REMARK    3  A    between atoms: C_2  and  O_4
REMARK    4  A    between atoms: O_4  and  C_5
REMARK    5  A    between atoms: C_7  and  C_8
REMARK    6  A    between atoms: C_11  and  C_12
REMARK    7  A    between atoms: C_12  and  C_13
REMARK    8  A    between atoms: C_13  and  C_14
REMARK    9  A    between atoms: C_13  and  C_15
REMARK   10  A    between atoms: C_13  and  N_16
REMARK   11  A    between atoms: N_16  and  C_17
REMARK   12  A    between atoms: C_17  and  C_18
REMARK   13  A    between atoms: C_18  and  O_19
REMARK   14  A    between atoms: C_18  and  C_20
REMARK   15  A    between atoms: C_30  and  C_31
REMARK   16  A    between atoms: C_31  and  O_33
REMARK                            x       y       z     vdW  Elec       q    Type
REMARK                         _______ _______ _______ _____ _____    ______ ____
ROOT
ATOM      1  C   UNL     1       1.951   8.550  19.027  0.00  0.00    +0.000 A 
ATOM      2  C   UNL     1       2.697   8.029  17.961  0.00  0.00    +0.000 A 
ATOM      3  C   UNL     1       3.217   6.719  18.007  0.00  0.00    +0.000 A 
ATOM      4  C   UNL     1       3.016   5.894  19.123  0.00  0.00    +0.000 A 
ATOM      5  C   UNL     1       2.281   6.401  20.188  0.00  0.00    +0.000 A 
ATOM      6  C   UNL     1       1.759   7.694  20.135  0.00  0.00    +0.000 A 
ENDROOT
BRANCH   1   9
ATOM      7  C   UNL     1      -0.187  11.504  20.142  0.00  0.00    +0.000 A 
ATOM      8  C   UNL     1       0.176  10.171  19.871  0.00  0.00    +0.000 A 
ATOM      9  C   UNL     1       1.257   9.867  19.016  0.00  0.00    +0.000 A 
ATOM     10  C   UNL     1       1.806  10.932  18.277  0.00  0.00    +0.000 A 
ATOM     11  C   UNL     1       1.508  12.255  18.588  0.00  0.00    +0.000 A 
ATOM     12  C   UNL     1       0.591  12.533  19.599  0.00  0.00    +0.000 A 
BRANCH  12  13
ATOM     13  C   UNL     1       0.658  13.893  20.177  0.00  0.00    +0.000 C 
ATOM     14  O   UNL     1      -0.140  14.774  19.905  0.00  0.00    +0.000 OA
BRANCH  13  15
ATOM     15  O   UNL     1       1.754  14.087  20.939  0.00  0.00    +0.000 OA
ATOM     16  H   UNL     1       1.831  13.470  21.696  0.00  0.00    +0.000 HD
ENDBRANCH  13  15
ENDBRANCH  12  13
BRANCH   7  17
ATOM     17  O   UNL     1      -1.176  11.674  21.079  0.00  0.00    +0.000 OA
BRANCH  17  19
ATOM     18  C   UNL     1      -1.521  12.979  23.113  0.00  0.00    +0.000 C 
ATOM     19  C   UNL     1      -0.766  11.830  22.456  0.00  0.00    +0.000 C 
ATOM     20  C   UNL     1      -1.079  10.515  23.167  0.00  0.00    +0.000 C 
ENDBRANCH  17  19
ENDBRANCH   7  17
ENDBRANCH   1   9
BRANCH   4  21
ATOM     21  C   UNL     1       3.533   4.470  19.183  0.00  0.00    +0.000 C 
BRANCH  21  22
ATOM     22  C   UNL     1       2.890   3.426  18.197  0.00  0.00    +0.000 C 
ATOM     23  C   UNL     1       3.232   2.023  18.743  0.00  0.00    +0.000 C 
ATOM     24  C   UNL     1       1.363   3.635  18.187  0.00  0.00    +0.000 C 
BRANCH  22  25
ATOM     25  N   UNL     1       3.463   3.548  16.832  0.00  0.00    +0.000 NA
ATOM     26  H   UNL     1       3.197   4.450  16.437  0.00  0.00    +0.000 HD
BRANCH  25  27
ATOM     27  C   UNL     1       4.934   3.395  16.735  0.00  0.00    +0.000 C 
BRANCH  27  28
ATOM     28  C   UNL     1       5.639   4.580  16.015  0.00  0.00    +0.000 C 
BRANCH  28  29
ATOM     29  C   UNL     1       6.462   5.453  16.952  0.00  0.00    +0.000 A 
ATOM     30  C   UNL     1       6.641   6.827  16.727  0.00  0.00    +0.000 A 
ATOM     31  C   UNL     1       7.467   7.586  17.558  0.00  0.00    +0.000 A 
ATOM     32  C   UNL     1       8.104   6.991  18.644  0.00  0.00    +0.000 A 
ATOM     33  C   UNL     1       7.895   5.642  18.915  0.00  0.00    +0.000 A 
ATOM     34  C   UNL     1       7.072   4.884  18.083  0.00  0.00    +0.000 A 
ENDBRANCH  28  29
BRANCH  28  35
ATOM     35  O   UNL     1       6.430   4.039  14.947  0.00  0.00    +0.000 OA
ATOM     36  H   UNL     1       7.343   4.304  15.146  0.00  0.00    +0.000 HD
ENDBRANCH  28  35
ENDBRANCH  27  28
ENDBRANCH  25  27
ENDBRANCH  22  25
ENDBRANCH  21  22
ENDBRANCH   4  21
TORSDOF 12
ENDMDL
MODEL 7
REMARK VINA RESULT:      -7.8      3.801     10.344
REMARK  Name = 
REMARK  16 active torsions:
REMARK  status: ('A' for Active; 'I' for Inactive)
REMARK    1  A    between atoms: C_1  and  C_2
REMARK    2  A    between atoms: C_2  and  C_3
REMARK    3  A    between atoms: C_2  and  O_4
REMARK    4  A    between atoms: O_4  and  C_5
REMARK    5  A    between atoms: C_7  and  C_8
REMARK    6  A    between atoms: C_11  and  C_12
REMARK    7  A    between atoms: C_12  and  C_13
REMARK    8  A    between atoms: C_13  and  C_14
REMARK    9  A    between atoms: C_13  and  C_15
REMARK   10  A    between atoms: C_13  and  N_16
REMARK   11  A    between atoms: N_16  and  C_17
REMARK   12  A    between atoms: C_17  and  C_18
REMARK   13  A    between atoms: C_18  and  O_19
REMARK   14  A    between atoms: C_18  and  C_20
REMARK   15  A    between atoms: C_30  and  C_31
REMARK   16  A    between atoms: C_31  and  O_33
REMARK                            x       y       z     vdW  Elec       q    Type
REMARK                         _______ _______ _______ _____ _____    ______ ____
ROOT
ATOM      1  C   UNL     1       2.111   7.657  18.965  0.00  0.00    +0.000 A 
ATOM      2  C   UNL     1       1.703   7.912  20.281  0.00  0.00    +0.000 A 
ATOM      3  C   UNL     1       0.942   9.056  20.600  0.00  0.00    +0.000 A 
ATOM      4  C   UNL     1       0.576   9.985  19.615  0.00  0.00    +0.000 A 
ATOM      5  C   UNL     1       0.978   9.745  18.306  0.00  0.00    +0.000 A 
ATOM      6  C   UNL     1       1.722   8.606  17.993  0.00  0.00    +0.000 A 
ENDROOT
BRANCH   1   9
ATOM      7  C   UNL     1       4.657   4.826  18.753  0.00  0.00    +0.000 A 
ATOM      8  C   UNL     1       4.151   6.139  18.818  0.00  0.00    +0.000 A 
ATOM      9  C   UNL     1       2.802   6.418  18.514  0.00  0.00    +0.000 A 
ATOM     10  C   UNL     1       2.050   5.380  17.932  0.00  0.00    +0.000 A 
ATOM     11  C   UNL     1       2.512   4.067  17.932  0.00  0.00    +0.000 A 
ATOM     12  C   UNL     1       3.775   3.784  18.446  0.00  0.00    +0.000 A 
BRANCH  12  13
ATOM     13  C   UNL     1       4.016   2.375  18.829  0.00  0.00    +0.000 C 
ATOM     14  O   UNL     1       3.377   1.442  18.374  0.00  0.00    +0.000 OA
BRANCH  13  15
ATOM     15  O   UNL     1       4.930   2.247  19.814  0.00  0.00    +0.000 OA
ATOM     16  H   UNL     1       4.995   3.025  20.405  0.00  0.00    +0.000 HD
ENDBRANCH  13  15
ENDBRANCH  12  13
BRANCH   7  17
ATOM     17  O   UNL     1       5.950   4.663  19.185  0.00  0.00    +0.000 OA
BRANCH  17  19
ATOM     18  C   UNL     1       8.102   5.780  19.474  0.00  0.00    +0.000 C 
ATOM     19  C   UNL     1       6.976   5.426  18.510  0.00  0.00    +0.000 C 
ATOM     20  C   UNL     1       7.505   4.553  17.374  0.00  0.00    +0.000 C 
ENDBRANCH  17  19
ENDBRANCH   7  17
ENDBRANCH   1   9
BRANCH   4  21
ATOM     21  C   UNL     1      -0.272  11.203  19.924  0.00  0.00    +0.000 C 
BRANCH  21  22
ATOM     22  C   UNL     1       0.404  12.614  19.762  0.00  0.00    +0.000 C 
ATOM     23  C   UNL     1       1.868  12.468  20.229  0.00  0.00    +0.000 C 
ATOM     24  C   UNL     1       0.358  13.013  18.274  0.00  0.00    +0.000 C 
BRANCH  22  25
ATOM     25  N   UNL     1      -0.259  13.632  20.617  0.00  0.00    +0.000 NA
ATOM     26  H   UNL     1      -0.292  13.291  21.577  0.00  0.00    +0.000 HD
BRANCH  25  27
ATOM     27  C   UNL     1       0.354  14.981  20.606  0.00  0.00    +0.000 C 
BRANCH  27  28
ATOM     28  C   UNL     1      -0.583  16.089  20.046  0.00  0.00    +0.000 C 
BRANCH  28  29
ATOM     29  C   UNL     1      -0.004  16.820  18.843  0.00  0.00    +0.000 A 
ATOM     30  C   UNL     1       1.358  16.750  18.513  0.00  0.00    +0.000 A 
ATOM     31  C   UNL     1       1.875  17.496  17.452  0.00  0.00    +0.000 A 
ATOM     32  C   UNL     1       1.036  18.301  16.687  0.00  0.00    +0.000 A 
ATOM     33  C   UNL     1      -0.327  18.341  16.966  0.00  0.00    +0.000 A 
ATOM     34  C   UNL     1      -0.843  17.598  18.028  0.00  0.00    +0.000 A 
ENDBRANCH  28  29
BRANCH  28  35
ATOM     35  O   UNL     1      -1.852  15.487  19.754  0.00  0.00    +0.000 OA
ATOM     36  H   UNL     1      -1.733  15.045  18.898  0.00  0.00    +0.000 HD
ENDBRANCH  28  35
ENDBRANCH  27  28
ENDBRANCH  25  27
ENDBRANCH  22  25
ENDBRANCH  21  22
ENDBRANCH   4  21
TORSDOF 12
ENDMDL
MODEL 8
REMARK VINA RESULT:      -7.8      2.487      4.570
REMARK  Name = 
REMARK  16 active torsions:
REMARK  status: ('A' for Active; 'I' for Inactive)
REMARK    1  A    between atoms: C_1  and  C_2
REMARK    2  A    between atoms: C_2  and  C_3
REMARK    3  A    between atoms: C_2  and  O_4
REMARK    4  A    between atoms: O_4  and  C_5
REMARK    5  A    between atoms: C_7  and  C_8
REMARK    6  A    between atoms: C_11  and  C_12
REMARK    7  A    between atoms: C_12  and  C_13
REMARK    8  A    between atoms: C_13  and  C_14
REMARK    9  A    between atoms: C_13  and  C_15
REMARK   10  A    between atoms: C_13  and  N_16
REMARK   11  A    between atoms: N_16  and  C_17
REMARK   12  A    between atoms: C_17  and  C_18
REMARK   13  A    between atoms: C_18  and  O_19
REMARK   14  A    between atoms: C_18  and  C_20
REMARK   15  A    between atoms: C_30  and  C_31
REMARK   16  A    between atoms: C_31  and  O_33
REMARK                            x       y       z     vdW  Elec       q    Type
REMARK                         _______ _______ _______ _____ _____    ______ ____
ROOT
ATOM      1  C   UNL     1       1.355   9.155  20.064  0.00  0.00    +0.000 A 
ATOM      2  C   UNL     1       1.522   9.253  18.676  0.00  0.00    +0.000 A 
ATOM      3  C   UNL     1       2.000   8.162  17.921  0.00  0.00    +0.000 A 
ATOM      4  C   UNL     1       2.334   6.944  18.532  0.00  0.00    +0.000 A 
ATOM      5  C   UNL     1       2.176   6.837  19.909  0.00  0.00    +0.000 A 
ATOM      6  C   UNL     1       1.694   7.916  20.651  0.00  0.00    +0.000 A 
ENDROOT
BRANCH   1   9
ATOM      7  C   UNL     1      -0.348  12.397  21.128  0.00  0.00    +0.000 A 
ATOM      8  C   UNL     1       0.580  11.542  20.502  0.00  0.00    +0.000 A 
ATOM      9  C   UNL     1       0.740  10.205  20.922  0.00  0.00    +0.000 A 
ATOM     10  C   UNL     1       0.106   9.832  22.123  0.00  0.00    +0.000 A 
ATOM     11  C   UNL     1      -0.867  10.639  22.706  0.00  0.00    +0.000 A 
ATOM     12  C   UNL     1      -1.164  11.875  22.137  0.00  0.00    +0.000 A 
BRANCH  12  13
ATOM     13  C   UNL     1      -2.471  12.460  22.510  0.00  0.00    +0.000 C 
ATOM     14  O   UNL     1      -3.445  12.441  21.776  0.00  0.00    +0.000 OA
BRANCH  13  15
ATOM     15  O   UNL     1      -2.437  13.114  23.690  0.00  0.00    +0.000 OA
ATOM     16  H   UNL     1      -2.685  14.059  23.632  0.00  0.00    +0.000 HD
ENDBRANCH  13  15
ENDBRANCH  12  13
BRANCH   7  17
ATOM     17  O   UNL     1      -0.497  13.636  20.555  0.00  0.00    +0.000 OA
BRANCH  17  19
ATOM     18  C   UNL     1       1.179  15.246  19.806  0.00  0.00    +0.000 C 
ATOM     19  C   UNL     1       0.403  14.681  20.989  0.00  0.00    +0.000 C 
ATOM     20  C   UNL     1      -0.456  15.770  21.629  0.00  0.00    +0.000 C 
ENDBRANCH  17  19
ENDBRANCH   7  17
ENDBRANCH   1   9
BRANCH   4  21
ATOM     21  C   UNL     1       2.815   5.745  17.739  0.00  0.00    +0.000 C 
BRANCH  21  22
ATOM     22  C   UNL     1       4.349   5.404  17.802  0.00  0.00    +0.000 C 
ATOM     23  C   UNL     1       4.586   4.221  16.838  0.00  0.00    +0.000 C 
ATOM     24  C   UNL     1       5.145   6.638  17.335  0.00  0.00    +0.000 C 
BRANCH  22  25
ATOM     25  N   UNL     1       4.754   4.982  19.167  0.00  0.00    +0.000 NA
ATOM     26  H   UNL     1       3.934   4.981  19.773  0.00  0.00    +0.000 HD
BRANCH  25  27
ATOM     27  C   UNL     1       5.423   3.663  19.262  0.00  0.00    +0.000 C 
BRANCH  27  28
ATOM     28  C   UNL     1       4.661   2.637  20.149  0.00  0.00    +0.000 C 
BRANCH  28  29
ATOM     29  C   UNL     1       3.150   2.687  19.968  0.00  0.00    +0.000 A 
ATOM     30  C   UNL     1       2.512   2.113  18.857  0.00  0.00    +0.000 A 
ATOM     31  C   UNL     1       1.134   2.245  18.676  0.00  0.00    +0.000 A 
ATOM     32  C   UNL     1       0.367   2.928  19.617  0.00  0.00    +0.000 A 
ATOM     33  C   UNL     1       0.974   3.457  20.752  0.00  0.00    +0.000 A 
ATOM     34  C   UNL     1       2.351   3.327  20.931  0.00  0.00    +0.000 A 
ENDBRANCH  28  29
BRANCH  28  35
ATOM     35  O   UNL     1       5.195   1.336  19.875  0.00  0.00    +0.000 OA
ATOM     36  H   UNL     1       4.485   0.714  20.106  0.00  0.00    +0.000 HD
ENDBRANCH  28  35
ENDBRANCH  27  28
ENDBRANCH  25  27
ENDBRANCH  22  25
ENDBRANCH  21  22
ENDBRANCH   4  21
TORSDOF 12
ENDMDL
MODEL 9
REMARK VINA RESULT:      -7.8      1.906      2.620
REMARK  Name = 
REMARK  16 active torsions:
REMARK  status: ('A' for Active; 'I' for Inactive)
REMARK    1  A    between atoms: C_1  and  C_2
REMARK    2  A    between atoms: C_2  and  C_3
REMARK    3  A    between atoms: C_2  and  O_4
REMARK    4  A    between atoms: O_4  and  C_5
REMARK    5  A    between atoms: C_7  and  C_8
REMARK    6  A    between atoms: C_11  and  C_12
REMARK    7  A    between atoms: C_12  and  C_13
REMARK    8  A    between atoms: C_13  and  C_14
REMARK    9  A    between atoms: C_13  and  C_15
REMARK   10  A    between atoms: C_13  and  N_16
REMARK   11  A    between atoms: N_16  and  C_17
REMARK   12  A    between atoms: C_17  and  C_18
REMARK   13  A    between atoms: C_18  and  O_19
REMARK   14  A    between atoms: C_18  and  C_20
REMARK   15  A    between atoms: C_30  and  C_31
REMARK   16  A    between atoms: C_31  and  O_33
REMARK                            x       y       z     vdW  Elec       q    Type
REMARK                         _______ _______ _______ _____ _____    ______ ____
ROOT
ATOM      1  C   UNL     1       1.462   8.956  19.085  0.00  0.00    +0.000 A 
ATOM      2  C   UNL     1       1.249   8.485  20.387  0.00  0.00    +0.000 A 
ATOM      3  C   UNL     1       1.738   7.227  20.796  0.00  0.00    +0.000 A 
ATOM      4  C   UNL     1       2.445   6.399  19.913  0.00  0.00    +0.000 A 
ATOM      5  C   UNL     1       2.661   6.854  18.618  0.00  0.00    +0.000 A 
ATOM      6  C   UNL     1       2.184   8.104  18.220  0.00  0.00    +0.000 A 
ENDROOT
BRANCH   1   9
ATOM      7  C   UNL     1      -0.464  12.213  18.604  0.00  0.00    +0.000 A 
ATOM      8  C   UNL     1      -0.216  10.828  18.668  0.00  0.00    +0.000 A 
ATOM      9  C   UNL     1       1.098  10.317  18.602  0.00  0.00    +0.000 A 
ATOM     10  C   UNL     1       2.118  11.221  18.247  0.00  0.00    +0.000 A 
ATOM     11  C   UNL     1       1.899  12.595  18.255  0.00  0.00    +0.000 A 
ATOM     12  C   UNL     1       0.627  13.086  18.543  0.00  0.00    +0.000 A 
BRANCH  12  13
ATOM     13  C   UNL     1       0.562  14.500  18.975  0.00  0.00    +0.000 C 
ATOM     14  O   UNL     1       1.390  15.011  19.709  0.00  0.00    +0.000 OA
BRANCH  13  15
ATOM     15  O   UNL     1      -0.563  15.124  18.567  0.00  0.00    +0.000 OA
ATOM     16  H   UNL     1      -1.290  14.517  18.318  0.00  0.00    +0.000 HD
ENDBRANCH  13  15
ENDBRANCH  12  13
BRANCH   7  17
ATOM     17  O   UNL     1      -1.770  12.593  18.798  0.00  0.00    +0.000 OA
BRANCH  17  19
ATOM     18  C   UNL     1      -1.829  12.882  21.222  0.00  0.00    +0.000 C 
ATOM     19  C   UNL     1      -2.414  12.157  20.016  0.00  0.00    +0.000 C 
ATOM     20  C   UNL     1      -3.901  12.479  19.873  0.00  0.00    +0.000 C 
ENDBRANCH  17  19
ENDBRANCH   7  17
ENDBRANCH   1   9
BRANCH   4  21
ATOM     21  C   UNL     1       3.013   5.059  20.338  0.00  0.00    +0.000 C 
BRANCH  21  22
ATOM     22  C   UNL     1       2.032   3.829  20.353  0.00  0.00    +0.000 C 
ATOM     23  C   UNL     1       2.020   3.281  21.796  0.00  0.00    +0.000 C 
ATOM     24  C   UNL     1       0.625   4.319  19.958  0.00  0.00    +0.000 C 
BRANCH  22  25
ATOM     25  N   UNL     1       2.504   2.750  19.448  0.00  0.00    +0.000 NA
ATOM     26  H   UNL     1       1.749   2.080  19.304  0.00  0.00    +0.000 HD
BRANCH  25  27
ATOM     27  C   UNL     1       3.013   3.192  18.129  0.00  0.00    +0.000 C 
BRANCH  27  28
ATOM     28  C   UNL     1       4.557   3.072  17.982  0.00  0.00    +0.000 C 
BRANCH  28  29
ATOM     29  C   UNL     1       5.233   4.385  17.613  0.00  0.00    +0.000 A 
ATOM     30  C   UNL     1       6.248   4.950  18.401  0.00  0.00    +0.000 A 
ATOM     31  C   UNL     1       6.792   6.196  18.081  0.00  0.00    +0.000 A 
ATOM     32  C   UNL     1       6.353   6.883  16.953  0.00  0.00    +0.000 A 
ATOM     33  C   UNL     1       5.386   6.315  16.129  0.00  0.00    +0.000 A 
ATOM     34  C   UNL     1       4.840   5.071  16.451  0.00  0.00    +0.000 A 
ENDBRANCH  28  29
BRANCH  28  35
ATOM     35  O   UNL     1       5.074   2.523  19.201  0.00  0.00    +0.000 OA
ATOM     36  H   UNL     1       4.855   1.577  19.169  0.00  0.00    +0.000 HD
ENDBRANCH  28  35
ENDBRANCH  27  28
ENDBRANCH  25  27
ENDBRANCH  22  25
ENDBRANCH  21  22
ENDBRANCH   4  21
TORSDOF 12
ENDMDL
