MODEL 1
REMARK VINA RESULT:      -7.2      0.000      0.000
REMARK  Name = 
REMARK  5 active torsions:
REMARK  status: ('A' for Active; 'I' for Inactive)
REMARK    1  A    between atoms: C_2  and  C_3
REMARK    2  A    between atoms: C_3  and  N_4
REMARK    3  A    between atoms: N_4  and  C_5
REMARK    4  A    between atoms: N_4  and  C_12
REMARK    5  A    between atoms: C_5  and  C_6
REMARK                            x       y       z     vdW  Elec       q    Type
REMARK                         _______ _______ _______ _____ _____    ______ ____
ROOT
ATOM      1  N   UNL     1       3.027   5.550  18.000  0.00  0.00    +0.000 N 
ENDROOT
BRANCH   1   2
ATOM      2  C   UNL     1       4.353   5.257  17.675  0.00  0.00    +0.000 A 
ATOM      3  C   UNL     1       4.687   4.705  16.429  0.00  0.00    +0.000 A 
ATOM      4  C   UNL     1       6.017   4.461  16.076  0.00  0.00    +0.000 A 
ATOM      5 CL   UNL     1       6.379   3.789  14.533  0.00  0.00    +0.000 Cl
ATOM      6  C   UNL     1       7.045   4.758  16.958  0.00  0.00    +0.000 A 
ATOM      7  C   UNL     1       6.729   5.287  18.202  0.00  0.00    +0.000 A 
ATOM      8 CL   UNL     1       7.988   5.679  19.309  0.00  0.00    +0.000 Cl
ATOM      9  C   UNL     1       5.401   5.524  18.564  0.00  0.00    +0.000 A 
ENDBRANCH   1   2
BRANCH   1  10
ATOM     10  C   UNL     1       2.631   6.969  18.210  0.00  0.00    +0.000 C 
BRANCH  10  12
ATOM     11  C   UNL     1       1.662   7.289  20.844  0.00  0.00    +0.000 C 
ATOM     12  C   UNL     1       2.109   7.141  19.628  0.00  0.00    +0.000 C 
ENDBRANCH  10  12
ENDBRANCH   1  10
BRANCH   1  13
ATOM     13  C   UNL     1       2.048   4.451  17.856  0.00  0.00    +0.000 C 
BRANCH  13  14
ATOM     14  C   UNL     1       1.831   3.644  19.122  0.00  0.00    +0.000 A 
ATOM     15  C   UNL     1       2.812   3.095  19.862  0.00  0.00    +0.000 A 
ATOM     16  C   UNL     1       2.185   2.751  21.159  0.00  0.00    +0.000 A 
ATOM     17  O   UNL     1       2.781   2.370  22.150  0.00  0.00    +0.000 OA
ATOM     18  N   UNL     1       0.846   3.061  21.033  0.00  0.00    +0.000 N 
ATOM     19  N   UNL     1       0.596   3.567  19.762  0.00  0.00    +0.000 N 
ATOM     20  H   UNL     1       0.186   3.106  21.800  0.00  0.00    +0.000 HD
ATOM     21  H   UNL     1       0.057   4.434  19.714  0.00  0.00    +0.000 HD
ENDBRANCH  13  14
ENDBRANCH   1  13
TORSDOF 5
ENDMDL
MODEL 2
REMARK VINA RESULT:      -7.0      2.280      3.991
REMARK  Name = 
REMARK  5 active torsions:
REMARK  status: ('A' for Active; 'I' for Inactive)
REMARK    1  A    between atoms: C_2  and  C_3
REMARK    2  A    between atoms: C_3  and  N_4
REMARK    3  A    between atoms: N_4  and  C_5
REMARK    4  A    between atoms: N_4  and  C_12
REMARK    5  A    between atoms: C_5  and  C_6
REMARK                            x       y       z     vdW  Elec       q    Type
REMARK                         _______ _______ _______ _____ _____    ______ ____
ROOT
ATOM      1  N   UNL     1       3.577   3.561  18.745  0.00  0.00    +0.000 N 
ENDROOT
BRANCH   1   2
ATOM      2  C   UNL     1       4.725   4.025  18.100  0.00  0.00    +0.000 A 
ATOM      3  C   UNL     1       5.730   4.701  18.809  0.00  0.00    +0.000 A 
ATOM      4  C   UNL     1       6.906   5.120  18.181  0.00  0.00    +0.000 A 
ATOM      5 CL   UNL     1       8.113   5.940  19.094  0.00  0.00    +0.000 Cl
ATOM      6  C   UNL     1       7.107   4.876  16.831  0.00  0.00    +0.000 A 
ATOM      7  C   UNL     1       6.115   4.224  16.111  0.00  0.00    +0.000 A 
ATOM      8 CL   UNL     1       6.348   3.896  14.438  0.00  0.00    +0.000 Cl
ATOM      9  C   UNL     1       4.933   3.813  16.732  0.00  0.00    +0.000 A 
ENDBRANCH   1   2
BRANCH   1  10
ATOM     10  C   UNL     1       3.709   2.506  19.786  0.00  0.00    +0.000 C 
BRANCH  10  12
ATOM     11  C   UNL     1       1.604   2.764  21.651  0.00  0.00    +0.000 C 
ATOM     12  C   UNL     1       2.576   2.645  20.790  0.00  0.00    +0.000 C 
ENDBRANCH  10  12
ENDBRANCH   1  10
BRANCH   1  13
ATOM     13  C   UNL     1       2.335   4.335  18.534  0.00  0.00    +0.000 C 
BRANCH  13  14
ATOM     14  C   UNL     1       2.426   5.786  18.969  0.00  0.00    +0.000 A 
ATOM     15  C   UNL     1       2.365   6.843  18.140  0.00  0.00    +0.000 A 
ATOM     16  C   UNL     1       2.113   8.015  19.009  0.00  0.00    +0.000 A 
ATOM     17  O   UNL     1       1.846   9.138  18.619  0.00  0.00    +0.000 OA
ATOM     18  N   UNL     1       2.129   7.542  20.306  0.00  0.00    +0.000 N 
ATOM     19  N   UNL     1       2.374   6.173  20.306  0.00  0.00    +0.000 N 
ATOM     20  H   UNL     1       1.816   8.061  21.117  0.00  0.00    +0.000 HD
ATOM     21  H   UNL     1       1.747   5.598  20.873  0.00  0.00    +0.000 HD
ENDBRANCH  13  14
ENDBRANCH   1  13
TORSDOF 5
ENDMDL
MODEL 3
REMARK VINA RESULT:      -7.0      2.283      3.417
REMARK  Name = 
REMARK  5 active torsions:
REMARK  status: ('A' for Active; 'I' for Inactive)
REMARK    1  A    between atoms: C_2  and  C_3
REMARK    2  A    between atoms: C_3  and  N_4
REMARK    3  A    between atoms: N_4  and  C_5
REMARK    4  A    between atoms: N_4  and  C_12
REMARK    5  A    between atoms: C_5  and  C_6
REMARK                            x       y       z     vdW  Elec       q    Type
REMARK                         _______ _______ _______ _____ _____    ______ ____
ROOT
ATOM      1  N   UNL     1       3.585   3.535  18.814  0.00  0.00    +0.000 N 
ENDROOT
BRANCH   1   2
ATOM      2  C   UNL     1       4.740   3.969  18.160  0.00  0.00    +0.000 A 
ATOM      3  C   UNL     1       4.910   3.766  16.782  0.00  0.00    +0.000 A 
ATOM      4  C   UNL     1       6.038   4.247  16.111  0.00  0.00    +0.000 A 
ATOM      5 CL   UNL     1       6.199   3.981  14.418  0.00  0.00    +0.000 Cl
ATOM      6  C   UNL     1       7.024   4.939  16.798  0.00  0.00    +0.000 A 
ATOM      7  C   UNL     1       6.879   5.131  18.165  0.00  0.00    +0.000 A 
ATOM      8 CL   UNL     1       8.082   6.000  19.038  0.00  0.00    +0.000 Cl
ATOM      9  C   UNL     1       5.759   4.644  18.843  0.00  0.00    +0.000 A 
ENDBRANCH   1   2
BRANCH   1  10
ATOM     10  C   UNL     1       3.704   2.520  19.895  0.00  0.00    +0.000 C 
BRANCH  10  12
ATOM     11  C   UNL     1       1.519   2.780  21.666  0.00  0.00    +0.000 C 
ATOM     12  C   UNL     1       2.528   2.660  20.849  0.00  0.00    +0.000 C 
ENDBRANCH  10  12
ENDBRANCH   1  10
BRANCH   1  13
ATOM     13  C   UNL     1       2.349   4.307  18.564  0.00  0.00    +0.000 C 
BRANCH  13  14
ATOM     14  C   UNL     1       2.429   5.762  18.985  0.00  0.00    +0.000 A 
ATOM     15  C   UNL     1       2.381   6.811  18.144  0.00  0.00    +0.000 A 
ATOM     16  C   UNL     1       2.111   7.991  18.996  0.00  0.00    +0.000 A 
ATOM     17  O   UNL     1       1.849   9.109  18.590  0.00  0.00    +0.000 OA
ATOM     18  N   UNL     1       2.105   7.532  20.298  0.00  0.00    +0.000 N 
ATOM     19  N   UNL     1       2.352   6.163  20.317  0.00  0.00    +0.000 N 
ATOM     20  H   UNL     1       1.776   8.059  21.097  0.00  0.00    +0.000 HD
ATOM     21  H   UNL     1       1.717   5.593  20.879  0.00  0.00    +0.000 HD
ENDBRANCH  13  14
ENDBRANCH   1  13
TORSDOF 5
ENDMDL
MODEL 4
REMARK VINA RESULT:      -7.0      0.434      2.107
REMARK  Name = 
REMARK  5 active torsions:
REMARK  status: ('A' for Active; 'I' for Inactive)
REMARK    1  A    between atoms: C_2  and  C_3
REMARK    2  A    between atoms: C_3  and  N_4
REMARK    3  A    between atoms: N_4  and  C_5
REMARK    4  A    between atoms: N_4  and  C_12
REMARK    5  A    between atoms: C_5  and  C_6
REMARK                            x       y       z     vdW  Elec       q    Type
REMARK                         _______ _______ _______ _____ _____    ______ ____
ROOT
ATOM      1  N   UNL     1       3.078   5.887  18.032  0.00  0.00    +0.000 N 
ENDROOT
BRANCH   1   2
ATOM      2  C   UNL     1       4.383   5.536  17.679  0.00  0.00    +0.000 A 
ATOM      3  C   UNL     1       5.454   5.756  18.559  0.00  0.00    +0.000 A 
ATOM      4  C   UNL     1       6.753   5.356  18.235  0.00  0.00    +0.000 A 
ATOM      5 CL   UNL     1       8.034   5.641  19.348  0.00  0.00    +0.000 Cl
ATOM      6  C   UNL     1       7.015   4.730  17.025  0.00  0.00    +0.000 A 
ATOM      7  C   UNL     1       5.970   4.523  16.136  0.00  0.00    +0.000 A 
ATOM      8 CL   UNL     1       6.267   3.734  14.635  0.00  0.00    +0.000 Cl
ATOM      9  C   UNL     1       4.670   4.929  16.451  0.00  0.00    +0.000 A 
ENDBRANCH   1   2
BRANCH   1  10
ATOM     10  C   UNL     1       2.752   7.319  18.267  0.00  0.00    +0.000 C 
BRANCH  10  12
ATOM     11  C   UNL     1       1.582   7.607  20.821  0.00  0.00    +0.000 C 
ATOM     12  C   UNL     1       2.122   7.474  19.642  0.00  0.00    +0.000 C 
ENDBRANCH  10  12
ENDBRANCH   1  10
BRANCH   1  13
ATOM     13  C   UNL     1       2.046   4.836  17.895  0.00  0.00    +0.000 C 
BRANCH  13  14
ATOM     14  C   UNL     1       1.886   3.958  19.122  0.00  0.00    +0.000 A 
ATOM     15  C   UNL     1       2.712   3.963  20.184  0.00  0.00    +0.000 A 
ATOM     16  C   UNL     1       1.977   3.261  21.261  0.00  0.00    +0.000 A 
ATOM     17  O   UNL     1       2.330   3.189  22.424  0.00  0.00    +0.000 OA
ATOM     18  N   UNL     1       0.794   2.826  20.698  0.00  0.00    +0.000 N 
ATOM     19  N   UNL     1       0.741   3.203  19.360  0.00  0.00    +0.000 N 
ATOM     20  H   UNL     1       0.002   2.469  21.217  0.00  0.00    +0.000 HD
ATOM     21  H   UNL     1      -0.120   3.657  19.048  0.00  0.00    +0.000 HD
ENDBRANCH  13  14
ENDBRANCH   1  13
TORSDOF 5
ENDMDL
MODEL 5
REMARK VINA RESULT:      -7.0      1.057      2.308
REMARK  Name = 
REMARK  5 active torsions:
REMARK  status: ('A' for Active; 'I' for Inactive)
REMARK    1  A    between atoms: C_2  and  C_3
REMARK    2  A    between atoms: C_3  and  N_4
REMARK    3  A    between atoms: N_4  and  C_5
REMARK    4  A    between atoms: N_4  and  C_12
REMARK    5  A    between atoms: C_5  and  C_6
REMARK                            x       y       z     vdW  Elec       q    Type
REMARK                         _______ _______ _______ _____ _____    ______ ____
ROOT
ATOM      1  N   UNL     1       3.245   5.572  18.335  0.00  0.00    +0.000 N 
ENDROOT
BRANCH   1   2
ATOM      2  C   UNL     1       4.404   5.647  17.559  0.00  0.00    +0.000 A 
ATOM      3  C   UNL     1       5.420   6.566  17.863  0.00  0.00    +0.000 A 
ATOM      4  C   UNL     1       6.605   6.608  17.124  0.00  0.00    +0.000 A 
ATOM      5 CL   UNL     1       7.826   7.748  17.539  0.00  0.00    +0.000 Cl
ATOM      6  C   UNL     1       6.804   5.737  16.063  0.00  0.00    +0.000 A 
ATOM      7  C   UNL     1       5.801   4.835  15.738  0.00  0.00    +0.000 A 
ATOM      8 CL   UNL     1       6.030   3.733  14.435  0.00  0.00    +0.000 Cl
ATOM      9  C   UNL     1       4.609   4.795  16.467  0.00  0.00    +0.000 A 
ENDBRANCH   1   2
BRANCH   1  10
ATOM     10  C   UNL     1       2.888   6.718  19.214  0.00  0.00    +0.000 C 
BRANCH  10  12
ATOM     11  C   UNL     1       1.779   8.788  17.646  0.00  0.00    +0.000 C 
ATOM     12  C   UNL     1       2.291   7.832  18.370  0.00  0.00    +0.000 C 
ENDBRANCH  10  12
ENDBRANCH   1  10
BRANCH   1  13
ATOM     13  C   UNL     1       2.313   4.463  18.035  0.00  0.00    +0.000 C 
BRANCH  13  14
ATOM     14  C   UNL     1       1.963   3.604  19.235  0.00  0.00    +0.000 A 
ATOM     15  C   UNL     1       2.857   3.076  20.090  0.00  0.00    +0.000 A 
ATOM     16  C   UNL     1       2.074   2.659  21.276  0.00  0.00    +0.000 A 
ATOM     17  O   UNL     1       2.543   2.272  22.330  0.00  0.00    +0.000 OA
ATOM     18  N   UNL     1       0.751   2.911  20.970  0.00  0.00    +0.000 N 
ATOM     19  N   UNL     1       0.656   3.448  19.691  0.00  0.00    +0.000 N 
ATOM     20  H   UNL     1      -0.010   2.899  21.637  0.00  0.00    +0.000 HD
ATOM     21  H   UNL     1       0.086   4.291  19.591  0.00  0.00    +0.000 HD
ENDBRANCH  13  14
ENDBRANCH   1  13
TORSDOF 5
ENDMDL
MODEL 6
REMARK VINA RESULT:      -7.0      3.962      6.102
REMARK  Name = 
REMARK  5 active torsions:
REMARK  status: ('A' for Active; 'I' for Inactive)
REMARK    1  A    between atoms: C_2  and  C_3
REMARK    2  A    between atoms: C_3  and  N_4
REMARK    3  A    between atoms: N_4  and  C_5
REMARK    4  A    between atoms: N_4  and  C_12
REMARK    5  A    between atoms: C_5  and  C_6
REMARK                            x       y       z     vdW  Elec       q    Type
REMARK                         _______ _______ _______ _____ _____    ______ ____
ROOT
ATOM      1  N   UNL     1       5.698   5.790  17.632  0.00  0.00    +0.000 N 
ENDROOT
BRANCH   1   2
ATOM      2  C   UNL     1       4.687   5.059  18.260  0.00  0.00    +0.000 A 
ATOM      3  C   UNL     1       4.599   3.667  18.106  0.00  0.00    +0.000 A 
ATOM      4  C   UNL     1       3.624   2.922  18.775  0.00  0.00    +0.000 A 
ATOM      5 CL   UNL     1       3.559   1.216  18.561  0.00  0.00    +0.000 Cl
ATOM      6  C   UNL     1       2.712   3.549  19.612  0.00  0.00    +0.000 A 
ATOM      7  C   UNL     1       2.775   4.927  19.761  0.00  0.00    +0.000 A 
ATOM      8 CL   UNL     1       1.664   5.726  20.806  0.00  0.00    +0.000 Cl
ATOM      9  C   UNL     1       3.741   5.678  19.086  0.00  0.00    +0.000 A 
ENDBRANCH   1   2
BRANCH   1  10
ATOM     10  C   UNL     1       7.031   5.887  18.284  0.00  0.00    +0.000 C 
BRANCH  10  12
ATOM     11  C   UNL     1       8.125   8.446  17.802  0.00  0.00    +0.000 C 
ATOM     12  C   UNL     1       7.620   7.264  18.025  0.00  0.00    +0.000 C 
ENDBRANCH  10  12
ENDBRANCH   1  10
BRANCH   1  13
ATOM     13  C   UNL     1       5.451   6.202  16.234  0.00  0.00    +0.000 C 
BRANCH  13  14
ATOM     14  C   UNL     1       6.090   5.297  15.198  0.00  0.00    +0.000 A 
ATOM     15  C   UNL     1       5.452   4.318  14.532  0.00  0.00    +0.000 A 
ATOM     16  C   UNL     1       6.331   3.974  13.391  0.00  0.00    +0.000 A 
ATOM     17  O   UNL     1       6.035   3.235  12.470  0.00  0.00    +0.000 OA
ATOM     18  N   UNL     1       7.469   4.743  13.538  0.00  0.00    +0.000 N 
ATOM     19  N   UNL     1       7.362   5.531  14.679  0.00  0.00    +0.000 N 
ATOM     20  H   UNL     1       8.180   4.868  12.828  0.00  0.00    +0.000 HD
ATOM     21  H   UNL     1       7.582   6.523  14.570  0.00  0.00    +0.000 HD
ENDBRANCH  13  14
ENDBRANCH   1  13
TORSDOF 5
ENDMDL
MODEL 7
REMARK VINA RESULT:      -7.0      1.063      1.278
REMARK  Name = 
REMARK  5 active torsions:
REMARK  status: ('A' for Active; 'I' for Inactive)
REMARK    1  A    between atoms: C_2  and  C_3
REMARK    2  A    between atoms: C_3  and  N_4
REMARK    3  A    between atoms: N_4  and  C_5
REMARK    4  A    between atoms: N_4  and  C_12
REMARK    5  A    between atoms: C_5  and  C_6
REMARK                            x       y       z     vdW  Elec       q    Type
REMARK                         _______ _______ _______ _____ _____    ______ ____
ROOT
ATOM      1  N   UNL     1       3.243   5.633  18.387  0.00  0.00    +0.000 N 
ENDROOT
BRANCH   1   2
ATOM      2  C   UNL     1       4.425   5.655  17.643  0.00  0.00    +0.000 A 
ATOM      3  C   UNL     1       4.606   4.795  16.549  0.00  0.00    +0.000 A 
ATOM      4  C   UNL     1       5.763   4.850  15.766  0.00  0.00    +0.000 A 
ATOM      5 CL   UNL     1       5.938   3.779  14.430  0.00  0.00    +0.000 Cl
ATOM      6  C   UNL     1       6.766   5.762  16.057  0.00  0.00    +0.000 A 
ATOM      7  C   UNL     1       6.610   6.607  17.147  0.00  0.00    +0.000 A 
ATOM      8 CL   UNL     1       7.834   7.758  17.519  0.00  0.00    +0.000 Cl
ATOM      9  C   UNL     1       5.460   6.549  17.939  0.00  0.00    +0.000 A 
ENDBRANCH   1   2
BRANCH   1  10
ATOM     10  C   UNL     1       2.902   6.805  19.237  0.00  0.00    +0.000 C 
BRANCH  10  12
ATOM     11  C   UNL     1       1.747   8.821  17.632  0.00  0.00    +0.000 C 
ATOM     12  C   UNL     1       2.281   7.890  18.373  0.00  0.00    +0.000 C 
ENDBRANCH  10  12
ENDBRANCH   1  10
BRANCH   1  13
ATOM     13  C   UNL     1       2.281   4.553  18.077  0.00  0.00    +0.000 C 
BRANCH  13  14
ATOM     14  C   UNL     1       1.949   3.659  19.257  0.00  0.00    +0.000 A 
ATOM     15  C   UNL     1       2.854   3.122  20.094  0.00  0.00    +0.000 A 
ATOM     16  C   UNL     1       2.084   2.666  21.273  0.00  0.00    +0.000 A 
ATOM     17  O   UNL     1       2.564   2.259  22.315  0.00  0.00    +0.000 OA
ATOM     18  N   UNL     1       0.756   2.908  20.981  0.00  0.00    +0.000 N 
ATOM     19  N   UNL     1       0.647   3.475  19.716  0.00  0.00    +0.000 N 
ATOM     20  H   UNL     1      -0.002   2.870  21.651  0.00  0.00    +0.000 HD
ATOM     21  H   UNL     1       0.065   4.312  19.640  0.00  0.00    +0.000 HD
ENDBRANCH  13  14
ENDBRANCH   1  13
TORSDOF 5
ENDMDL
MODEL 8
REMARK VINA RESULT:      -6.9      4.211      6.455
REMARK  Name = 
REMARK  5 active torsions:
REMARK  status: ('A' for Active; 'I' for Inactive)
REMARK    1  A    between atoms: C_2  and  C_3
REMARK    2  A    between atoms: C_3  and  N_4
REMARK    3  A    between atoms: N_4  and  C_5
REMARK    4  A    between atoms: N_4  and  C_12
REMARK    5  A    between atoms: C_5  and  C_6
REMARK                            x       y       z     vdW  Elec       q    Type
REMARK                         _______ _______ _______ _____ _____    ______ ____
ROOT
ATOM      1  N   UNL     1       5.602   4.828  17.286  0.00  0.00    +0.000 N 
ENDROOT
BRANCH   1   2
ATOM      2  C   UNL     1       4.563   5.440  17.992  0.00  0.00    +0.000 A 
ATOM      3  C   UNL     1       4.002   6.647  17.551  0.00  0.00    +0.000 A 
ATOM      4  C   UNL     1       2.926   7.236  18.221  0.00  0.00    +0.000 A 
ATOM      5 CL   UNL     1       2.266   8.714  17.638  0.00  0.00    +0.000 Cl
ATOM      6  C   UNL     1       2.386   6.635  19.349  0.00  0.00    +0.000 A 
ATOM      7  C   UNL     1       2.943   5.450  19.809  0.00  0.00    +0.000 A 
ATOM      8 CL   UNL     1       2.281   4.677  21.197  0.00  0.00    +0.000 Cl
ATOM      9  C   UNL     1       4.025   4.862  19.148  0.00  0.00    +0.000 A 
ENDBRANCH   1   2
BRANCH   1  10
ATOM     10  C   UNL     1       6.904   4.600  17.967  0.00  0.00    +0.000 C 
BRANCH  10  12
ATOM     11  C   UNL     1       8.094   7.089  18.569  0.00  0.00    +0.000 C 
ATOM     12  C   UNL     1       7.544   5.940  18.292  0.00  0.00    +0.000 C 
ENDBRANCH  10  12
ENDBRANCH   1  10
BRANCH   1  13
ATOM     13  C   UNL     1       5.251   4.213  15.987  0.00  0.00    +0.000 C 
BRANCH  13  14
ATOM     14  C   UNL     1       6.293   4.414  14.903  0.00  0.00    +0.000 A 
ATOM     15  C   UNL     1       6.282   3.805  13.704  0.00  0.00    +0.000 A 
ATOM     16  C   UNL     1       7.232   4.568  12.863  0.00  0.00    +0.000 A 
ATOM     17  O   UNL     1       7.391   4.419  11.665  0.00  0.00    +0.000 OA
ATOM     18  N   UNL     1       7.788   5.528  13.685  0.00  0.00    +0.000 N 
ATOM     19  N   UNL     1       7.258   5.416  14.966  0.00  0.00    +0.000 N 
ATOM     20  H   UNL     1       8.339   6.316  13.367  0.00  0.00    +0.000 HD
ATOM     21  H   UNL     1       6.922   6.280  15.398  0.00  0.00    +0.000 HD
ENDBRANCH  13  14
ENDBRANCH   1  13
TORSDOF 5
ENDMDL
MODEL 9
REMARK VINA RESULT:      -6.9      2.226      2.297
REMARK  Name = 
REMARK  5 active torsions:
REMARK  status: ('A' for Active; 'I' for Inactive)
REMARK    1  A    between atoms: C_2  and  C_3
REMARK    2  A    between atoms: C_3  and  N_4
REMARK    3  A    between atoms: N_4  and  C_5
REMARK    4  A    between atoms: N_4  and  C_12
REMARK    5  A    between atoms: C_5  and  C_6
REMARK                            x       y       z     vdW  Elec       q    Type
REMARK                         _______ _______ _______ _____ _____    ______ ____
ROOT
ATOM      1  N   UNL     1       3.347   4.588  17.696  0.00  0.00    +0.000 N 
ENDROOT
BRANCH   1   2
ATOM      2  C   UNL     1       4.540   4.892  17.037  0.00  0.00    +0.000 A 
ATOM      3  C   UNL     1       4.868   4.279  15.818  0.00  0.00    +0.000 A 
ATOM      4  C   UNL     1       6.033   4.620  15.125  0.00  0.00    +0.000 A 
ATOM      5 CL   UNL     1       6.391   3.847  13.630  0.00  0.00    +0.000 Cl
ATOM      6  C   UNL     1       6.900   5.577  15.632  0.00  0.00    +0.000 A 
ATOM      7  C   UNL     1       6.598   6.178  16.847  0.00  0.00    +0.000 A 
ATOM      8 CL   UNL     1       7.649   7.380  17.490  0.00  0.00    +0.000 Cl
ATOM      9  C   UNL     1       5.440   5.834  17.549  0.00  0.00    +0.000 A 
ENDBRANCH   1   2
BRANCH   1  10
ATOM     10  C   UNL     1       2.410   5.690  18.041  0.00  0.00    +0.000 C 
BRANCH  10  12
ATOM     11  C   UNL     1       1.781   5.559  20.791  0.00  0.00    +0.000 C 
ATOM     12  C   UNL     1       2.071   5.620  19.521  0.00  0.00    +0.000 C 
ENDBRANCH  10  12
ENDBRANCH   1  10
BRANCH   1  13
ATOM     13  C   UNL     1       2.976   3.158  17.776  0.00  0.00    +0.000 C 
BRANCH  13  14
ATOM     14  C   UNL     1       3.924   2.316  18.609  0.00  0.00    +0.000 A 
ATOM     15  C   UNL     1       4.435   2.683  19.798  0.00  0.00    +0.000 A 
ATOM     16  C   UNL     1       4.971   1.440  20.400  0.00  0.00    +0.000 A 
ATOM     17  O   UNL     1       5.383   1.330  21.540  0.00  0.00    +0.000 OA
ATOM     18  N   UNL     1       4.794   0.449  19.455  0.00  0.00    +0.000 N 
ATOM     19  N   UNL     1       4.194   0.981  18.319  0.00  0.00    +0.000 N 
ATOM     20  H   UNL     1       4.896  -0.543  19.630  0.00  0.00    +0.000 HD
ATOM     21  H   UNL     1       3.389   0.473  17.948  0.00  0.00    +0.000 HD
ENDBRANCH  13  14
ENDBRANCH   1  13
TORSDOF 5
ENDMDL
