MODEL 1
REMARK VINA RESULT:      -6.1      0.000      0.000
REMARK  Name = 
REMARK  12 active torsions:
REMARK  status: ('A' for Active; 'I' for Inactive)
REMARK    1  A    between atoms: C_1  and  C_2
REMARK    2  A    between atoms: C_2  and  O_3
REMARK    3  A    between atoms: O_3  and  C_4
REMARK    4  A    between atoms: C_4  and  C_5
REMARK    5  A    between atoms: C_5  and  O_6
REMARK    6  A    between atoms: C_5  and  C_7
REMARK    7  A    between atoms: C_7  and  N_8
REMARK    8  A    between atoms: N_8  and  C_9
REMARK    9  A    between atoms: N_8  and  C_10
REMARK   10  A    between atoms: C_10  and  C_11
REMARK   11  A    between atoms: C_11  and  C_12
REMARK   12  A    between atoms: C_11  and  C_13
REMARK                            x       y       z     vdW  Elec       q    Type
REMARK                         _______ _______ _______ _____ _____    ______ ____
ROOT
ATOM      1  N   UNL     1       5.502   6.169  17.946  0.00  0.00    +0.000 NA
ATOM      2  C   UNL     1       4.438   6.946  17.284  0.00  0.00    +0.000 C 
ENDROOT
BRANCH   1   3
ATOM      3  C   UNL     1       6.681   6.052  17.067  0.00  0.00    +0.000 C 
BRANCH   3   4
ATOM      4  C   UNL     1       6.900   4.695  16.363  0.00  0.00    +0.000 C 
BRANCH   4   5
ATOM      5  O   UNL     1       8.125   4.138  16.877  0.00  0.00    +0.000 OA
ATOM      6  H   UNL     1       8.747   4.057  16.136  0.00  0.00    +0.000 HD
ENDBRANCH   4   5
BRANCH   4   7
ATOM      7  C   UNL     1       6.963   4.826  14.831  0.00  0.00    +0.000 C 
BRANCH   7   8
ATOM      8  O   UNL     1       6.256   3.726  14.247  0.00  0.00    +0.000 OA
BRANCH   8  10
ATOM      9  C   UNL     1       5.083   3.415  12.203  0.00  0.00    +0.000 C 
ATOM     10  C   UNL     1       6.440   3.643  12.837  0.00  0.00    +0.000 C 
ENDBRANCH   8  10
ENDBRANCH   7   8
ENDBRANCH   4   7
ENDBRANCH   3   4
ENDBRANCH   1   3
BRANCH   1  11
ATOM     11  C   UNL     1       4.956   4.830  18.291  0.00  0.00    +0.000 C 
BRANCH  11  12
ATOM     12  C   UNL     1       3.508   4.522  17.820  0.00  0.00    +0.000 C 
ATOM     13  C   UNL     1       3.457   3.519  16.661  0.00  0.00    +0.000 C 
BRANCH  12  14
ATOM     14  C   UNL     1       2.648   4.022  18.978  0.00  0.00    +0.000 A 
ATOM     15  C   UNL     1       1.411   3.415  18.710  0.00  0.00    +0.000 A 
ATOM     16  C   UNL     1       0.629   2.912  19.752  0.00  0.00    +0.000 A 
ATOM     17  C   UNL     1       1.070   3.016  21.068  0.00  0.00    +0.000 A 
ATOM     18  C   UNL     1       2.290   3.628  21.348  0.00  0.00    +0.000 A 
ATOM     19  C   UNL     1       3.076   4.129  20.307  0.00  0.00    +0.000 A 
ENDBRANCH  12  14
ENDBRANCH  11  12
ENDBRANCH   1  11
TORSDOF 9
ENDMDL
MODEL 2
REMARK VINA RESULT:      -6.1      1.330      2.139
REMARK  Name = 
REMARK  12 active torsions:
REMARK  status: ('A' for Active; 'I' for Inactive)
REMARK    1  A    between atoms: C_1  and  C_2
REMARK    2  A    between atoms: C_2  and  O_3
REMARK    3  A    between atoms: O_3  and  C_4
REMARK    4  A    between atoms: C_4  and  C_5
REMARK    5  A    between atoms: C_5  and  O_6
REMARK    6  A    between atoms: C_5  and  C_7
REMARK    7  A    between atoms: C_7  and  N_8
REMARK    8  A    between atoms: N_8  and  C_9
REMARK    9  A    between atoms: N_8  and  C_10
REMARK   10  A    between atoms: C_10  and  C_11
REMARK   11  A    between atoms: C_11  and  C_12
REMARK   12  A    between atoms: C_11  and  C_13
REMARK                            x       y       z     vdW  Elec       q    Type
REMARK                         _______ _______ _______ _____ _____    ______ ____
ROOT
ATOM      1  N   UNL     1       5.672   6.185  17.956  0.00  0.00    +0.000 NA
ATOM      2  C   UNL     1       6.597   7.194  17.410  0.00  0.00    +0.000 C 
ENDROOT
BRANCH   1   3
ATOM      3  C   UNL     1       6.126   4.825  17.609  0.00  0.00    +0.000 C 
BRANCH   3   4
ATOM      4  C   UNL     1       5.654   4.252  16.254  0.00  0.00    +0.000 C 
BRANCH   4   5
ATOM      5  O   UNL     1       5.252   2.887  16.484  0.00  0.00    +0.000 OA
ATOM      6  H   UNL     1       4.286   2.877  16.586  0.00  0.00    +0.000 HD
ENDBRANCH   4   5
BRANCH   4   7
ATOM      7  C   UNL     1       6.743   4.323  15.170  0.00  0.00    +0.000 C 
BRANCH   7   8
ATOM      8  O   UNL     1       6.119   4.607  13.912  0.00  0.00    +0.000 OA
BRANCH   8  10
ATOM      9  C   UNL     1       4.949   3.488  12.172  0.00  0.00    +0.000 C 
ATOM     10  C   UNL     1       6.223   3.525  12.992  0.00  0.00    +0.000 C 
ENDBRANCH   8  10
ENDBRANCH   7   8
ENDBRANCH   4   7
ENDBRANCH   3   4
ENDBRANCH   1   3
BRANCH   1  11
ATOM     11  C   UNL     1       4.315   6.452  17.412  0.00  0.00    +0.000 C 
BRANCH  11  12
ATOM     12  C   UNL     1       3.203   6.793  18.441  0.00  0.00    +0.000 C 
ATOM     13  C   UNL     1       2.230   7.866  17.939  0.00  0.00    +0.000 C 
BRANCH  12  14
ATOM     14  C   UNL     1       2.429   5.541  18.850  0.00  0.00    +0.000 A 
ATOM     15  C   UNL     1       1.996   5.396  20.177  0.00  0.00    +0.000 A 
ATOM     16  C   UNL     1       1.250   4.280  20.561  0.00  0.00    +0.000 A 
ATOM     17  C   UNL     1       0.935   3.297  19.627  0.00  0.00    +0.000 A 
ATOM     18  C   UNL     1       1.368   3.424  18.309  0.00  0.00    +0.000 A 
ATOM     19  C   UNL     1       2.112   4.542  17.922  0.00  0.00    +0.000 A 
ENDBRANCH  12  14
ENDBRANCH  11  12
ENDBRANCH   1  11
TORSDOF 9
ENDMDL
MODEL 3
REMARK VINA RESULT:      -6.1      2.586      6.300
REMARK  Name = 
REMARK  12 active torsions:
REMARK  status: ('A' for Active; 'I' for Inactive)
REMARK    1  A    between atoms: C_1  and  C_2
REMARK    2  A    between atoms: C_2  and  O_3
REMARK    3  A    between atoms: O_3  and  C_4
REMARK    4  A    between atoms: C_4  and  C_5
REMARK    5  A    between atoms: C_5  and  O_6
REMARK    6  A    between atoms: C_5  and  C_7
REMARK    7  A    between atoms: C_7  and  N_8
REMARK    8  A    between atoms: N_8  and  C_9
REMARK    9  A    between atoms: N_8  and  C_10
REMARK   10  A    between atoms: C_10  and  C_11
REMARK   11  A    between atoms: C_11  and  C_12
REMARK   12  A    between atoms: C_11  and  C_13
REMARK                            x       y       z     vdW  Elec       q    Type
REMARK                         _______ _______ _______ _____ _____    ______ ____
ROOT
ATOM      1  N   UNL     1       3.690   4.053  17.747  0.00  0.00    +0.000 NA
ATOM      2  C   UNL     1       3.143   2.684  17.726  0.00  0.00    +0.000 C 
ENDROOT
BRANCH   1   3
ATOM      3  C   UNL     1       2.628   5.030  18.052  0.00  0.00    +0.000 C 
BRANCH   3   4
ATOM      4  C   UNL     1       2.719   5.766  19.408  0.00  0.00    +0.000 C 
BRANCH   4   5
ATOM      5  O   UNL     1       4.075   5.634  19.876  0.00  0.00    +0.000 OA
ATOM      6  H   UNL     1       4.233   6.338  20.526  0.00  0.00    +0.000 HD
ENDBRANCH   4   5
BRANCH   4   7
ATOM      7  C   UNL     1       1.728   5.214  20.448  0.00  0.00    +0.000 C 
BRANCH   7   8
ATOM      8  O   UNL     1       2.468   4.552  21.480  0.00  0.00    +0.000 OA
BRANCH   8  10
ATOM      9  C   UNL     1       0.996   2.888  20.634  0.00  0.00    +0.000 C 
ATOM     10  C   UNL     1       2.137   3.172  21.591  0.00  0.00    +0.000 C 
ENDBRANCH   8  10
ENDBRANCH   7   8
ENDBRANCH   4   7
ENDBRANCH   3   4
ENDBRANCH   1   3
BRANCH   1  11
ATOM     11  C   UNL     1       4.308   4.329  16.423  0.00  0.00    +0.000 C 
BRANCH  11  12
ATOM     12  C   UNL     1       5.843   4.123  16.312  0.00  0.00    +0.000 C 
ATOM     13  C   UNL     1       6.344   4.120  14.863  0.00  0.00    +0.000 C 
BRANCH  12  14
ATOM     14  C   UNL     1       6.599   5.176  17.119  0.00  0.00    +0.000 A 
ATOM     15  C   UNL     1       7.259   4.801  18.300  0.00  0.00    +0.000 A 
ATOM     16  C   UNL     1       7.992   5.740  19.030  0.00  0.00    +0.000 A 
ATOM     17  C   UNL     1       8.068   7.059  18.592  0.00  0.00    +0.000 A 
ATOM     18  C   UNL     1       7.407   7.446  17.428  0.00  0.00    +0.000 A 
ATOM     19  C   UNL     1       6.676   6.508  16.694  0.00  0.00    +0.000 A 
ENDBRANCH  12  14
ENDBRANCH  11  12
ENDBRANCH   1  11
TORSDOF 9
ENDMDL
MODEL 4
REMARK VINA RESULT:      -6.0      2.687      3.827
REMARK  Name = 
REMARK  12 active torsions:
REMARK  status: ('A' for Active; 'I' for Inactive)
REMARK    1  A    between atoms: C_1  and  C_2
REMARK    2  A    between atoms: C_2  and  O_3
REMARK    3  A    between atoms: O_3  and  C_4
REMARK    4  A    between atoms: C_4  and  C_5
REMARK    5  A    between atoms: C_5  and  O_6
REMARK    6  A    between atoms: C_5  and  C_7
REMARK    7  A    between atoms: C_7  and  N_8
REMARK    8  A    between atoms: N_8  and  C_9
REMARK    9  A    between atoms: N_8  and  C_10
REMARK   10  A    between atoms: C_10  and  C_11
REMARK   11  A    between atoms: C_11  and  C_12
REMARK   12  A    between atoms: C_11  and  C_13
REMARK                            x       y       z     vdW  Elec       q    Type
REMARK                         _______ _______ _______ _____ _____    ______ ____
ROOT
ATOM      1  N   UNL     1       5.239   4.881  18.819  0.00  0.00    +0.000 NA
ATOM      2  C   UNL     1       4.940   3.480  19.166  0.00  0.00    +0.000 C 
ENDROOT
BRANCH   1   3
ATOM      3  C   UNL     1       6.522   5.300  19.415  0.00  0.00    +0.000 C 
BRANCH   3   4
ATOM      4  C   UNL     1       7.653   5.695  18.440  0.00  0.00    +0.000 C 
BRANCH   4   5
ATOM      5  O   UNL     1       8.274   6.885  18.964  0.00  0.00    +0.000 OA
ATOM      6  H   UNL     1       7.716   7.641  18.721  0.00  0.00    +0.000 HD
ENDBRANCH   4   5
BRANCH   4   7
ATOM      7  C   UNL     1       7.145   5.933  17.007  0.00  0.00    +0.000 C 
BRANCH   7   8
ATOM      8  O   UNL     1       7.605   4.863  16.174  0.00  0.00    +0.000 OA
BRANCH   8  10
ATOM      9  C   UNL     1       5.505   5.483  15.249  0.00  0.00    +0.000 C 
ATOM     10  C   UNL     1       6.659   4.504  15.172  0.00  0.00    +0.000 C 
ENDBRANCH   8  10
ENDBRANCH   7   8
ENDBRANCH   4   7
ENDBRANCH   3   4
ENDBRANCH   1   3
BRANCH   1  11
ATOM     11  C   UNL     1       4.120   5.732  19.303  0.00  0.00    +0.000 C 
BRANCH  11  12
ATOM     12  C   UNL     1       3.072   6.177  18.247  0.00  0.00    +0.000 C 
ATOM     13  C   UNL     1       2.049   5.082  17.921  0.00  0.00    +0.000 C 
BRANCH  12  14
ATOM     14  C   UNL     1       2.350   7.447  18.690  0.00  0.00    +0.000 A 
ATOM     15  C   UNL     1       2.075   8.452  17.749  0.00  0.00    +0.000 A 
ATOM     16  C   UNL     1       1.377   9.602  18.125  0.00  0.00    +0.000 A 
ATOM     17  C   UNL     1       0.953   9.762  19.440  0.00  0.00    +0.000 A 
ATOM     18  C   UNL     1       1.229   8.777  20.386  0.00  0.00    +0.000 A 
ATOM     19  C   UNL     1       1.925   7.623  20.012  0.00  0.00    +0.000 A 
ENDBRANCH  12  14
ENDBRANCH  11  12
ENDBRANCH   1  11
TORSDOF 9
ENDMDL
MODEL 5
REMARK VINA RESULT:      -5.9      1.331      1.817
REMARK  Name = 
REMARK  12 active torsions:
REMARK  status: ('A' for Active; 'I' for Inactive)
REMARK    1  A    between atoms: C_1  and  C_2
REMARK    2  A    between atoms: C_2  and  O_3
REMARK    3  A    between atoms: O_3  and  C_4
REMARK    4  A    between atoms: C_4  and  C_5
REMARK    5  A    between atoms: C_5  and  O_6
REMARK    6  A    between atoms: C_5  and  C_7
REMARK    7  A    between atoms: C_7  and  N_8
REMARK    8  A    between atoms: N_8  and  C_9
REMARK    9  A    between atoms: N_8  and  C_10
REMARK   10  A    between atoms: C_10  and  C_11
REMARK   11  A    between atoms: C_11  and  C_12
REMARK   12  A    between atoms: C_11  and  C_13
REMARK                            x       y       z     vdW  Elec       q    Type
REMARK                         _______ _______ _______ _____ _____    ______ ____
ROOT
ATOM      1  N   UNL     1       4.584   5.089  17.250  0.00  0.00    +0.000 NA
ATOM      2  C   UNL     1       5.280   3.855  17.656  0.00  0.00    +0.000 C 
ENDROOT
BRANCH   1   3
ATOM      3  C   UNL     1       5.270   5.719  16.107  0.00  0.00    +0.000 C 
BRANCH   3   4
ATOM      4  C   UNL     1       6.708   5.243  15.802  0.00  0.00    +0.000 C 
BRANCH   4   5
ATOM      5  O   UNL     1       7.594   6.339  16.099  0.00  0.00    +0.000 OA
ATOM      6  H   UNL     1       8.240   6.028  16.754  0.00  0.00    +0.000 HD
ENDBRANCH   4   5
BRANCH   4   7
ATOM      7  C   UNL     1       6.882   4.782  14.344  0.00  0.00    +0.000 C 
BRANCH   7   8
ATOM      8  O   UNL     1       5.711   4.060  13.949  0.00  0.00    +0.000 OA
BRANCH   8  10
ATOM      9  C   UNL     1       7.078   4.038  12.004  0.00  0.00    +0.000 C 
ATOM     10  C   UNL     1       5.848   3.452  12.668  0.00  0.00    +0.000 C 
ENDBRANCH   8  10
ENDBRANCH   7   8
ENDBRANCH   4   7
ENDBRANCH   3   4
ENDBRANCH   1   3
BRANCH   1  11
ATOM     11  C   UNL     1       4.538   6.006  18.420  0.00  0.00    +0.000 C 
BRANCH  11  12
ATOM     12  C   UNL     1       3.131   6.399  18.946  0.00  0.00    +0.000 C 
ATOM     13  C   UNL     1       2.349   7.279  17.963  0.00  0.00    +0.000 C 
BRANCH  12  14
ATOM     14  C   UNL     1       2.310   5.161  19.300  0.00  0.00    +0.000 A 
ATOM     15  C   UNL     1       1.691   4.425  18.278  0.00  0.00    +0.000 A 
ATOM     16  C   UNL     1       0.972   3.265  18.577  0.00  0.00    +0.000 A 
ATOM     17  C   UNL     1       0.860   2.834  19.895  0.00  0.00    +0.000 A 
ATOM     18  C   UNL     1       1.461   3.562  20.920  0.00  0.00    +0.000 A 
ATOM     19  C   UNL     1       2.184   4.721  20.623  0.00  0.00    +0.000 A 
ENDBRANCH  12  14
ENDBRANCH  11  12
ENDBRANCH   1  11
TORSDOF 9
ENDMDL
MODEL 6
REMARK VINA RESULT:      -5.9      1.385      1.774
REMARK  Name = 
REMARK  12 active torsions:
REMARK  status: ('A' for Active; 'I' for Inactive)
REMARK    1  A    between atoms: C_1  and  C_2
REMARK    2  A    between atoms: C_2  and  O_3
REMARK    3  A    between atoms: O_3  and  C_4
REMARK    4  A    between atoms: C_4  and  C_5
REMARK    5  A    between atoms: C_5  and  O_6
REMARK    6  A    between atoms: C_5  and  C_7
REMARK    7  A    between atoms: C_7  and  N_8
REMARK    8  A    between atoms: N_8  and  C_9
REMARK    9  A    between atoms: N_8  and  C_10
REMARK   10  A    between atoms: C_10  and  C_11
REMARK   11  A    between atoms: C_11  and  C_12
REMARK   12  A    between atoms: C_11  and  C_13
REMARK                            x       y       z     vdW  Elec       q    Type
REMARK                         _______ _______ _______ _____ _____    ______ ____
ROOT
ATOM      1  N   UNL     1       6.516   4.794  17.445  0.00  0.00    +0.000 NA
ATOM      2  C   UNL     1       6.904   5.660  18.573  0.00  0.00    +0.000 C 
ENDROOT
BRANCH   1   3
ATOM      3  C   UNL     1       6.669   5.511  16.165  0.00  0.00    +0.000 C 
BRANCH   3   4
ATOM      4  C   UNL     1       7.160   4.688  14.953  0.00  0.00    +0.000 C 
BRANCH   4   5
ATOM      5  O   UNL     1       7.878   5.588  14.087  0.00  0.00    +0.000 OA
ATOM      6  H   UNL     1       7.251   6.262  13.776  0.00  0.00    +0.000 HD
ENDBRANCH   4   5
BRANCH   4   7
ATOM      7  C   UNL     1       6.008   4.006  14.195  0.00  0.00    +0.000 C 
BRANCH   7   8
ATOM      8  O   UNL     1       6.404   3.821  12.831  0.00  0.00    +0.000 OA
BRANCH   8  10
ATOM      9  C   UNL     1       5.744   2.013  11.436  0.00  0.00    +0.000 C 
ATOM     10  C   UNL     1       5.337   3.356  12.010  0.00  0.00    +0.000 C 
ENDBRANCH   8  10
ENDBRANCH   7   8
ENDBRANCH   4   7
ENDBRANCH   3   4
ENDBRANCH   1   3
BRANCH   1  11
ATOM     11  C   UNL     1       5.109   4.360  17.652  0.00  0.00    +0.000 C 
BRANCH  11  12
ATOM     12  C   UNL     1       4.207   5.296  18.502  0.00  0.00    +0.000 C 
ATOM     13  C   UNL     1       3.614   6.454  17.692  0.00  0.00    +0.000 C 
BRANCH  12  14
ATOM     14  C   UNL     1       3.087   4.511  19.181  0.00  0.00    +0.000 A 
ATOM     15  C   UNL     1       3.005   3.121  18.999  0.00  0.00    +0.000 A 
ATOM     16  C   UNL     1       2.014   2.379  19.645  0.00  0.00    +0.000 A 
ATOM     17  C   UNL     1       1.095   3.016  20.474  0.00  0.00    +0.000 A 
ATOM     18  C   UNL     1       1.158   4.396  20.654  0.00  0.00    +0.000 A 
ATOM     19  C   UNL     1       2.150   5.141  20.010  0.00  0.00    +0.000 A 
ENDBRANCH  12  14
ENDBRANCH  11  12
ENDBRANCH   1  11
TORSDOF 9
ENDMDL
MODEL 7
REMARK VINA RESULT:      -5.9      1.376      1.869
REMARK  Name = 
REMARK  12 active torsions:
REMARK  status: ('A' for Active; 'I' for Inactive)
REMARK    1  A    between atoms: C_1  and  C_2
REMARK    2  A    between atoms: C_2  and  O_3
REMARK    3  A    between atoms: O_3  and  C_4
REMARK    4  A    between atoms: C_4  and  C_5
REMARK    5  A    between atoms: C_5  and  O_6
REMARK    6  A    between atoms: C_5  and  C_7
REMARK    7  A    between atoms: C_7  and  N_8
REMARK    8  A    between atoms: N_8  and  C_9
REMARK    9  A    between atoms: N_8  and  C_10
REMARK   10  A    between atoms: C_10  and  C_11
REMARK   11  A    between atoms: C_11  and  C_12
REMARK   12  A    between atoms: C_11  and  C_13
REMARK                            x       y       z     vdW  Elec       q    Type
REMARK                         _______ _______ _______ _____ _____    ______ ____
ROOT
ATOM      1  N   UNL     1       5.308   5.341  16.252  0.00  0.00    +0.000 NA
ATOM      2  C   UNL     1       5.293   6.810  16.370  0.00  0.00    +0.000 C 
ENDROOT
BRANCH   1   3
ATOM      3  C   UNL     1       5.334   4.935  14.834  0.00  0.00    +0.000 C 
BRANCH   3   4
ATOM      4  C   UNL     1       6.652   4.331  14.300  0.00  0.00    +0.000 C 
BRANCH   4   5
ATOM      5  O   UNL     1       7.630   5.389  14.279  0.00  0.00    +0.000 OA
ATOM      6  H   UNL     1       8.509   4.981  14.338  0.00  0.00    +0.000 HD
ENDBRANCH   4   5
BRANCH   4   7
ATOM      7  C   UNL     1       6.495   3.707  12.903  0.00  0.00    +0.000 C 
BRANCH   7   8
ATOM      8  O   UNL     1       5.103   3.674  12.570  0.00  0.00    +0.000 OA
BRANCH   8  10
ATOM      9  C   UNL     1       3.552   3.345  10.799  0.00  0.00    +0.000 C 
ATOM     10  C   UNL     1       4.829   2.846  11.444  0.00  0.00    +0.000 C 
ENDBRANCH   8  10
ENDBRANCH   7   8
ENDBRANCH   4   7
ENDBRANCH   3   4
ENDBRANCH   1   3
BRANCH   1  11
ATOM     11  C   UNL     1       4.105   4.804  16.941  0.00  0.00    +0.000 C 
BRANCH  11  12
ATOM     12  C   UNL     1       4.353   3.933  18.203  0.00  0.00    +0.000 C 
ATOM     13  C   UNL     1       5.394   4.537  19.153  0.00  0.00    +0.000 C 
BRANCH  12  14
ATOM     14  C   UNL     1       3.050   3.675  18.957  0.00  0.00    +0.000 A 
ATOM     15  C   UNL     1       2.037   2.916  18.351  0.00  0.00    +0.000 A 
ATOM     16  C   UNL     1       0.856   2.632  19.041  0.00  0.00    +0.000 A 
ATOM     17  C   UNL     1       0.673   3.108  20.336  0.00  0.00    +0.000 A 
ATOM     18  C   UNL     1       1.666   3.873  20.944  0.00  0.00    +0.000 A 
ATOM     19  C   UNL     1       2.850   4.155  20.258  0.00  0.00    +0.000 A 
ENDBRANCH  12  14
ENDBRANCH  11  12
ENDBRANCH   1  11
TORSDOF 9
ENDMDL
MODEL 8
REMARK VINA RESULT:      -5.9      2.095      3.543
REMARK  Name = 
REMARK  12 active torsions:
REMARK  status: ('A' for Active; 'I' for Inactive)
REMARK    1  A    between atoms: C_1  and  C_2
REMARK    2  A    between atoms: C_2  and  O_3
REMARK    3  A    between atoms: O_3  and  C_4
REMARK    4  A    between atoms: C_4  and  C_5
REMARK    5  A    between atoms: C_5  and  O_6
REMARK    6  A    between atoms: C_5  and  C_7
REMARK    7  A    between atoms: C_7  and  N_8
REMARK    8  A    between atoms: N_8  and  C_9
REMARK    9  A    between atoms: N_8  and  C_10
REMARK   10  A    between atoms: C_10  and  C_11
REMARK   11  A    between atoms: C_11  and  C_12
REMARK   12  A    between atoms: C_11  and  C_13
REMARK                            x       y       z     vdW  Elec       q    Type
REMARK                         _______ _______ _______ _____ _____    ______ ____
ROOT
ATOM      1  N   UNL     1       5.389   5.967  16.681  0.00  0.00    +0.000 NA
ATOM      2  C   UNL     1       5.140   6.652  15.400  0.00  0.00    +0.000 C 
ENDROOT
BRANCH   1   3
ATOM      3  C   UNL     1       6.497   5.002  16.545  0.00  0.00    +0.000 C 
BRANCH   3   4
ATOM      4  C   UNL     1       7.727   5.212  17.455  0.00  0.00    +0.000 C 
BRANCH   4   5
ATOM      5  O   UNL     1       8.171   3.910  17.883  0.00  0.00    +0.000 OA
ATOM      6  H   UNL     1       8.671   4.024  18.707  0.00  0.00    +0.000 HD
ENDBRANCH   4   5
BRANCH   4   7
ATOM      7  C   UNL     1       7.421   6.107  18.668  0.00  0.00    +0.000 C 
BRANCH   7   8
ATOM      8  O   UNL     1       8.326   7.216  18.660  0.00  0.00    +0.000 OA
BRANCH   8  10
ATOM      9  C   UNL     1       8.493   9.550  18.241  0.00  0.00    +0.000 C 
ATOM     10  C   UNL     1       7.940   8.232  17.739  0.00  0.00    +0.000 C 
ENDBRANCH   8  10
ENDBRANCH   7   8
ENDBRANCH   4   7
ENDBRANCH   3   4
ENDBRANCH   1   3
BRANCH   1  11
ATOM     11  C   UNL     1       4.135   5.287  17.100  0.00  0.00    +0.000 C 
BRANCH  11  12
ATOM     12  C   UNL     1       3.501   5.754  18.439  0.00  0.00    +0.000 C 
ATOM     13  C   UNL     1       2.662   7.029  18.292  0.00  0.00    +0.000 C 
BRANCH  12  14
ATOM     14  C   UNL     1       2.656   4.646  19.063  0.00  0.00    +0.000 A 
ATOM     15  C   UNL     1       2.768   3.333  18.578  0.00  0.00    +0.000 A 
ATOM     16  C   UNL     1       2.036   2.298  19.164  0.00  0.00    +0.000 A 
ATOM     17  C   UNL     1       1.185   2.563  20.233  0.00  0.00    +0.000 A 
ATOM     18  C   UNL     1       1.056   3.863  20.716  0.00  0.00    +0.000 A 
ATOM     19  C   UNL     1       1.790   4.901  20.133  0.00  0.00    +0.000 A 
ENDBRANCH  12  14
ENDBRANCH  11  12
ENDBRANCH   1  11
TORSDOF 9
ENDMDL
MODEL 9
REMARK VINA RESULT:      -5.8      1.103      1.421
REMARK  Name = 
REMARK  12 active torsions:
REMARK  status: ('A' for Active; 'I' for Inactive)
REMARK    1  A    between atoms: C_1  and  C_2
REMARK    2  A    between atoms: C_2  and  O_3
REMARK    3  A    between atoms: O_3  and  C_4
REMARK    4  A    between atoms: C_4  and  C_5
REMARK    5  A    between atoms: C_5  and  O_6
REMARK    6  A    between atoms: C_5  and  C_7
REMARK    7  A    between atoms: C_7  and  N_8
REMARK    8  A    between atoms: N_8  and  C_9
REMARK    9  A    between atoms: N_8  and  C_10
REMARK   10  A    between atoms: C_10  and  C_11
REMARK   11  A    between atoms: C_11  and  C_12
REMARK   12  A    between atoms: C_11  and  C_13
REMARK                            x       y       z     vdW  Elec       q    Type
REMARK                         _______ _______ _______ _____ _____    ______ ____
ROOT
ATOM      1  N   UNL     1       4.589   6.075  17.228  0.00  0.00    +0.000 NA
ATOM      2  C   UNL     1       3.764   7.276  17.458  0.00  0.00    +0.000 C 
ENDROOT
BRANCH   1   3
ATOM      3  C   UNL     1       5.222   6.129  15.897  0.00  0.00    +0.000 C 
BRANCH   3   4
ATOM      4  C   UNL     1       6.583   5.414  15.738  0.00  0.00    +0.000 C 
BRANCH   4   5
ATOM      5  O   UNL     1       7.609   6.365  16.082  0.00  0.00    +0.000 OA
ATOM      6  H   UNL     1       7.258   7.254  15.910  0.00  0.00    +0.000 HD
ENDBRANCH   4   5
BRANCH   4   7
ATOM      7  C   UNL     1       6.802   4.868  14.316  0.00  0.00    +0.000 C 
BRANCH   7   8
ATOM      8  O   UNL     1       5.713   3.999  13.987  0.00  0.00    +0.000 OA
BRANCH   8  10
ATOM      9  C   UNL     1       7.119   3.961  12.070  0.00  0.00    +0.000 C 
ATOM     10  C   UNL     1       5.832   3.444  12.680  0.00  0.00    +0.000 C 
ENDBRANCH   8  10
ENDBRANCH   7   8
ENDBRANCH   4   7
ENDBRANCH   3   4
ENDBRANCH   1   3
BRANCH   1  11
ATOM     11  C   UNL     1       3.717   4.878  17.359  0.00  0.00    +0.000 C 
BRANCH  11  12
ATOM     12  C   UNL     1       4.188   3.775  18.346  0.00  0.00    +0.000 C 
ATOM     13  C   UNL     1       5.519   4.111  19.029  0.00  0.00    +0.000 C 
BRANCH  12  14
ATOM     14  C   UNL     1       3.122   3.488  19.400  0.00  0.00    +0.000 A 
ATOM     15  C   UNL     1       1.778   3.788  19.126  0.00  0.00    +0.000 A 
ATOM     16  C   UNL     1       0.782   3.494  20.060  0.00  0.00    +0.000 A 
ATOM     17  C   UNL     1       1.118   2.905  21.276  0.00  0.00    +0.000 A 
ATOM     18  C   UNL     1       2.449   2.613  21.565  0.00  0.00    +0.000 A 
ATOM     19  C   UNL     1       3.447   2.904  20.631  0.00  0.00    +0.000 A 
ENDBRANCH  12  14
ENDBRANCH  11  12
ENDBRANCH   1  11
TORSDOF 9
ENDMDL
