MODEL 1
REMARK VINA RESULT:      -8.2      0.000      0.000
REMARK  Name = 
REMARK  2 active torsions:
REMARK  status: ('A' for Active; 'I' for Inactive)
REMARK    1  A    between atoms: C_5  and  C_6
REMARK    2  A    between atoms: C_9  and  C_10
REMARK                            x       y       z     vdW  Elec       q    Type
REMARK                         _______ _______ _______ _____ _____    ______ ____
ROOT
ATOM      1  C   UNL     1       0.153   9.818  18.740  0.00  0.00    +0.000 A 
ATOM      2  C   UNL     1       1.161   9.267  17.915  0.00  0.00    +0.000 A 
ATOM      3  C   UNL     1       2.092   8.376  18.529  0.00  0.00    +0.000 A 
ATOM      4  C   UNL     1       2.908   7.261  18.126  0.00  0.00    +0.000 A 
ATOM      5  N   UNL     1       2.506   6.227  18.911  0.00  0.00    +0.000 NA
ATOM      6  N   UNL     1       2.401   6.881  20.083  0.00  0.00    +0.000 N 
ATOM      7  C   UNL     1       1.842   8.104  19.876  0.00  0.00    +0.000 A 
ATOM      8  C   UNL     1       1.051   8.876  20.695  0.00  0.00    +0.000 A 
ATOM      9  N   UNL     1       0.199   9.731  20.098  0.00  0.00    +0.000 NA
ATOM     10  H   UNL     1       2.517   6.364  20.944  0.00  0.00    +0.000 HD
ENDROOT
BRANCH   4  11
ATOM     11  C   UNL     1       4.350   6.971  17.715  0.00  0.00    +0.000 A 
ATOM     12  N   UNL     1       5.257   6.141  18.221  0.00  0.00    +0.000 NA
ATOM     13  C   UNL     1       5.831   5.506  17.100  0.00  0.00    +0.000 A 
ATOM     14  C   UNL     1       6.737   4.444  16.965  0.00  0.00    +0.000 A 
ATOM     15  C   UNL     1       6.949   3.888  15.676  0.00  0.00    +0.000 A 
ATOM     16  C   UNL     1       6.263   4.349  14.557  0.00  0.00    +0.000 A 
ATOM     17  C   UNL     1       5.405   5.441  14.663  0.00  0.00    +0.000 A 
ATOM     18  C   UNL     1       5.273   6.013  15.931  0.00  0.00    +0.000 A 
ATOM     19  N   UNL     1       4.582   7.112  16.354  0.00  0.00    +0.000 N 
ATOM     20  H   UNL     1       3.917   7.599  15.773  0.00  0.00    +0.000 HD
ENDBRANCH   4  11
BRANCH   1  25
ATOM     21  C   UNL     1      -3.076  10.396  16.760  0.00  0.00    +0.000 A 
ATOM     22  C   UNL     1      -3.658  11.360  17.563  0.00  0.00    +0.000 A 
ATOM     23  N   UNL     1      -3.079  11.833  18.682  0.00  0.00    +0.000 NA
ATOM     24  C   UNL     1      -1.858  11.320  19.001  0.00  0.00    +0.000 A 
ATOM     25  C   UNL     1      -1.141  10.374  18.253  0.00  0.00    +0.000 A 
ATOM     26  C   UNL     1      -1.813   9.899  17.114  0.00  0.00    +0.000 A 
ENDBRANCH   1  25
TORSDOF 2
ENDMDL
MODEL 2
REMARK VINA RESULT:      -8.1      3.350      9.044
REMARK  Name = 
REMARK  2 active torsions:
REMARK  status: ('A' for Active; 'I' for Inactive)
REMARK    1  A    between atoms: C_5  and  C_6
REMARK    2  A    between atoms: C_9  and  C_10
REMARK                            x       y       z     vdW  Elec       q    Type
REMARK                         _______ _______ _______ _____ _____    ______ ____
ROOT
ATOM      1  C   UNL     1       2.068   6.622  19.860  0.00  0.00    +0.000 A 
ATOM      2  C   UNL     1       1.478   7.379  20.899  0.00  0.00    +0.000 A 
ATOM      3  C   UNL     1       1.110   8.724  20.598  0.00  0.00    +0.000 A 
ATOM      4  C   UNL     1       0.131   9.677  21.052  0.00  0.00    +0.000 A 
ATOM      5  N   UNL     1      -0.590   9.997  19.944  0.00  0.00    +0.000 NA
ATOM      6  N   UNL     1       0.419  10.104  19.060  0.00  0.00    +0.000 N 
ATOM      7  C   UNL     1       1.321   9.107  19.271  0.00  0.00    +0.000 A 
ATOM      8  C   UNL     1       2.155   8.455  18.394  0.00  0.00    +0.000 A 
ATOM      9  N   UNL     1       2.514   7.196  18.708  0.00  0.00    +0.000 NA
ATOM     10  H   UNL     1       0.305  10.709  18.258  0.00  0.00    +0.000 HD
ENDROOT
BRANCH   4  11
ATOM     11  C   UNL     1       0.026  10.864  22.007  0.00  0.00    +0.000 A 
ATOM     12  N   UNL     1       0.258  12.160  21.826  0.00  0.00    +0.000 NA
ATOM     13  C   UNL     1      -0.832  12.811  22.438  0.00  0.00    +0.000 A 
ATOM     14  C   UNL     1      -1.244  14.152  22.476  0.00  0.00    +0.000 A 
ATOM     15  C   UNL     1      -2.528  14.457  23.001  0.00  0.00    +0.000 A 
ATOM     16  C   UNL     1      -3.392  13.462  23.447  0.00  0.00    +0.000 A 
ATOM     17  C   UNL     1      -2.976  12.132  23.471  0.00  0.00    +0.000 A 
ATOM     18  C   UNL     1      -1.680  11.873  23.017  0.00  0.00    +0.000 A 
ATOM     19  N   UNL     1      -0.958  10.716  22.975  0.00  0.00    +0.000 N 
ATOM     20  H   UNL     1      -1.362   9.810  23.155  0.00  0.00    +0.000 HD
ENDBRANCH   4  11
BRANCH   1  25
ATOM     21  C   UNL     1       1.185   2.915  20.252  0.00  0.00    +0.000 A 
ATOM     22  C   UNL     1       2.164   2.367  19.443  0.00  0.00    +0.000 A 
ATOM     23  N   UNL     1       3.080   3.108  18.794  0.00  0.00    +0.000 NA
ATOM     24  C   UNL     1       3.014   4.456  18.975  0.00  0.00    +0.000 A 
ATOM     25  C   UNL     1       2.104   5.134  19.800  0.00  0.00    +0.000 A 
ATOM     26  C   UNL     1       1.155   4.306  20.424  0.00  0.00    +0.000 A 
ENDBRANCH   1  25
TORSDOF 2
ENDMDL
MODEL 3
REMARK VINA RESULT:      -8.1      3.212      8.926
REMARK  Name = 
REMARK  2 active torsions:
REMARK  status: ('A' for Active; 'I' for Inactive)
REMARK    1  A    between atoms: C_5  and  C_6
REMARK    2  A    between atoms: C_9  and  C_10
REMARK                            x       y       z     vdW  Elec       q    Type
REMARK                         _______ _______ _______ _____ _____    ______ ____
ROOT
ATOM      1  C   UNL     1       2.385   7.047  19.102  0.00  0.00    +0.000 A 
ATOM      2  C   UNL     1       1.862   7.644  20.272  0.00  0.00    +0.000 A 
ATOM      3  C   UNL     1       1.289   8.944  20.142  0.00  0.00    +0.000 A 
ATOM      4  C   UNL     1       0.273   9.721  20.804  0.00  0.00    +0.000 A 
ATOM      5  N   UNL     1      -0.634  10.015  19.835  0.00  0.00    +0.000 NA
ATOM      6  N   UNL     1       0.215  10.319  18.836  0.00  0.00    +0.000 N 
ATOM      7  C   UNL     1       1.255   9.441  18.837  0.00  0.00    +0.000 A 
ATOM      8  C   UNL     1       2.029   8.970  17.802  0.00  0.00    +0.000 A 
ATOM      9  N   UNL     1       2.585   7.754  17.954  0.00  0.00    +0.000 NA
ATOM     10  H   UNL     1      -0.089  10.955  18.112  0.00  0.00    +0.000 HD
ENDROOT
BRANCH   4  11
ATOM     11  C   UNL     1       0.160  10.814  21.864  0.00  0.00    +0.000 A 
ATOM     12  N   UNL     1       0.389  12.122  21.804  0.00  0.00    +0.000 NA
ATOM     13  C   UNL     1      -0.706  12.711  22.468  0.00  0.00    +0.000 A 
ATOM     14  C   UNL     1      -1.123  14.041  22.628  0.00  0.00    +0.000 A 
ATOM     15  C   UNL     1      -2.410  14.293  23.171  0.00  0.00    +0.000 A 
ATOM     16  C   UNL     1      -3.273  13.259  23.519  0.00  0.00    +0.000 A 
ATOM     17  C   UNL     1      -2.854  11.934  23.423  0.00  0.00    +0.000 A 
ATOM     18  C   UNL     1      -1.555  11.722  22.954  0.00  0.00    +0.000 A 
ATOM     19  N   UNL     1      -0.828  10.575  22.809  0.00  0.00    +0.000 N 
ATOM     20  H   UNL     1      -1.230   9.655  22.902  0.00  0.00    +0.000 HD
ENDBRANCH   4  11
BRANCH   1  25
ATOM     21  C   UNL     1       2.269   3.477  17.718  0.00  0.00    +0.000 A 
ATOM     22  C   UNL     1       3.238   2.897  18.517  0.00  0.00    +0.000 A 
ATOM     23  N   UNL     1       3.910   3.575  19.465  0.00  0.00    +0.000 NA
ATOM     24  C   UNL     1       3.587   4.890  19.620  0.00  0.00    +0.000 A 
ATOM     25  C   UNL     1       2.599   5.585  18.909  0.00  0.00    +0.000 A 
ATOM     26  C   UNL     1       1.956   4.829  17.913  0.00  0.00    +0.000 A 
ENDBRANCH   1  25
TORSDOF 2
ENDMDL
MODEL 4
REMARK VINA RESULT:      -7.8      1.503      2.013
REMARK  Name = 
REMARK  2 active torsions:
REMARK  status: ('A' for Active; 'I' for Inactive)
REMARK    1  A    between atoms: C_5  and  C_6
REMARK    2  A    between atoms: C_9  and  C_10
REMARK                            x       y       z     vdW  Elec       q    Type
REMARK                         _______ _______ _______ _____ _____    ______ ____
ROOT
ATOM      1  C   UNL     1      -0.008   9.920  18.615  0.00  0.00    +0.000 A 
ATOM      2  C   UNL     1       0.841   9.170  17.770  0.00  0.00    +0.000 A 
ATOM      3  C   UNL     1       1.810   8.331  18.396  0.00  0.00    +0.000 A 
ATOM      4  C   UNL     1       2.507   7.109  18.088  0.00  0.00    +0.000 A 
ATOM      5  N   UNL     1       2.178   6.252  19.091  0.00  0.00    +0.000 NA
ATOM      6  N   UNL     1       2.277   7.100  20.133  0.00  0.00    +0.000 N 
ATOM      7  C   UNL     1       1.750   8.307  19.792  0.00  0.00    +0.000 A 
ATOM      8  C   UNL     1       1.125   9.260  20.563  0.00  0.00    +0.000 A 
ATOM      9  N   UNL     1       0.234  10.060  19.948  0.00  0.00    +0.000 NA
ATOM     10  H   UNL     1       2.495   6.727  21.047  0.00  0.00    +0.000 HD
ENDROOT
BRANCH   4  11
ATOM     11  C   UNL     1       3.857   6.653  17.540  0.00  0.00    +0.000 A 
ATOM     12  N   UNL     1       4.855   7.334  16.985  0.00  0.00    +0.000 NA
ATOM     13  C   UNL     1       6.021   6.828  17.593  0.00  0.00    +0.000 A 
ATOM     14  C   UNL     1       7.368   7.215  17.544  0.00  0.00    +0.000 A 
ATOM     15  C   UNL     1       8.281   6.630  18.460  0.00  0.00    +0.000 A 
ATOM     16  C   UNL     1       7.868   5.709  19.418  0.00  0.00    +0.000 A 
ATOM     17  C   UNL     1       6.546   5.270  19.443  0.00  0.00    +0.000 A 
ATOM     18  C   UNL     1       5.689   5.810  18.481  0.00  0.00    +0.000 A 
ATOM     19  N   UNL     1       4.380   5.547  18.194  0.00  0.00    +0.000 N 
ATOM     20  H   UNL     1       3.792   4.981  18.786  0.00  0.00    +0.000 HD
ENDBRANCH   4  11
BRANCH   1  25
ATOM     21  C   UNL     1      -3.373  10.494  16.875  0.00  0.00    +0.000 A 
ATOM     22  C   UNL     1      -3.892  11.466  17.711  0.00  0.00    +0.000 A 
ATOM     23  N   UNL     1      -3.231  11.945  18.780  0.00  0.00    +0.000 NA
ATOM     24  C   UNL     1      -1.991  11.430  19.012  0.00  0.00    +0.000 A 
ATOM     25  C   UNL     1      -1.333  10.477  18.221  0.00  0.00    +0.000 A 
ATOM     26  C   UNL     1      -2.089   9.995  17.139  0.00  0.00    +0.000 A 
ENDBRANCH   1  25
TORSDOF 2
ENDMDL
MODEL 5
REMARK VINA RESULT:      -7.8      3.146      9.050
REMARK  Name = 
REMARK  2 active torsions:
REMARK  status: ('A' for Active; 'I' for Inactive)
REMARK    1  A    between atoms: C_5  and  C_6
REMARK    2  A    between atoms: C_9  and  C_10
REMARK                            x       y       z     vdW  Elec       q    Type
REMARK                         _______ _______ _______ _____ _____    ______ ____
ROOT
ATOM      1  C   UNL     1       2.247   7.117  19.726  0.00  0.00    +0.000 A 
ATOM      2  C   UNL     1       1.493   8.012  20.519  0.00  0.00    +0.000 A 
ATOM      3  C   UNL     1       1.032   9.209  19.893  0.00  0.00    +0.000 A 
ATOM      4  C   UNL     1      -0.070  10.122  20.044  0.00  0.00    +0.000 A 
ATOM      5  N   UNL     1      -0.707  10.109  18.843  0.00  0.00    +0.000 NA
ATOM      6  N   UNL     1       0.369  10.132  18.034  0.00  0.00    +0.000 N 
ATOM      7  C   UNL     1       1.334   9.312  18.533  0.00  0.00    +0.000 A 
ATOM      8  C   UNL     1       2.306   8.581  17.891  0.00  0.00    +0.000 A 
ATOM      9  N   UNL     1       2.748   7.470  18.510  0.00  0.00    +0.000 NA
ATOM     10  H   UNL     1       0.277  10.529  17.109  0.00  0.00    +0.000 HD
ENDROOT
BRANCH   4  11
ATOM     11  C   UNL     1      -0.377  11.470  20.693  0.00  0.00    +0.000 A 
ATOM     12  N   UNL     1      -0.931  12.575  20.203  0.00  0.00    +0.000 NA
ATOM     13  C   UNL     1      -1.854  12.983  21.187  0.00  0.00    +0.000 A 
ATOM     14  C   UNL     1      -2.836  13.984  21.218  0.00  0.00    +0.000 A 
ATOM     15  C   UNL     1      -3.766  13.996  22.291  0.00  0.00    +0.000 A 
ATOM     16  C   UNL     1      -3.744  13.027  23.289  0.00  0.00    +0.000 A 
ATOM     17  C   UNL     1      -2.740  12.062  23.307  0.00  0.00    +0.000 A 
ATOM     18  C   UNL     1      -1.797  12.121  22.278  0.00  0.00    +0.000 A 
ATOM     19  N   UNL     1      -0.672  11.383  22.046  0.00  0.00    +0.000 N 
ATOM     20  H   UNL     1      -0.448  10.546  22.563  0.00  0.00    +0.000 HD
ENDBRANCH   4  11
BRANCH   1  25
ATOM     21  C   UNL     1       1.632   3.482  20.768  0.00  0.00    +0.000 A 
ATOM     22  C   UNL     1       2.805   2.915  20.302  0.00  0.00    +0.000 A 
ATOM     23  N   UNL     1       3.769   3.625  19.688  0.00  0.00    +0.000 NA
ATOM     24  C   UNL     1       3.548   4.962  19.546  0.00  0.00    +0.000 A 
ATOM     25  C   UNL     1       2.427   5.665  20.010  0.00  0.00    +0.000 A 
ATOM     26  C   UNL     1       1.444   4.862  20.614  0.00  0.00    +0.000 A 
ENDBRANCH   1  25
TORSDOF 2
ENDMDL
MODEL 6
REMARK VINA RESULT:      -7.8      4.481      6.511
REMARK  Name = 
REMARK  2 active torsions:
REMARK  status: ('A' for Active; 'I' for Inactive)
REMARK    1  A    between atoms: C_5  and  C_6
REMARK    2  A    between atoms: C_9  and  C_10
REMARK                            x       y       z     vdW  Elec       q    Type
REMARK                         _______ _______ _______ _____ _____    ______ ____
ROOT
ATOM      1  C   UNL     1       3.371   4.871  18.215  0.00  0.00    +0.000 A 
ATOM      2  C   UNL     1       3.981   4.274  17.088  0.00  0.00    +0.000 A 
ATOM      3  C   UNL     1       4.801   5.108  16.271  0.00  0.00    +0.000 A 
ATOM      4  C   UNL     1       5.937   4.946  15.402  0.00  0.00    +0.000 A 
ATOM      5  N   UNL     1       6.901   5.747  15.928  0.00  0.00    +0.000 NA
ATOM      6  N   UNL     1       6.145   6.822  16.220  0.00  0.00    +0.000 N 
ATOM      7  C   UNL     1       4.953   6.416  16.736  0.00  0.00    +0.000 A 
ATOM      8  C   UNL     1       4.119   7.023  17.647  0.00  0.00    +0.000 A 
ATOM      9  N   UNL     1       3.333   6.221  18.390  0.00  0.00    +0.000 NA
ATOM     10  H   UNL     1       6.580   7.734  16.246  0.00  0.00    +0.000 HD
ENDROOT
BRANCH   4  11
ATOM     11  C   UNL     1       6.245   4.800  13.913  0.00  0.00    +0.000 A 
ATOM     12  N   UNL     1       7.391   4.603  13.269  0.00  0.00    +0.000 NA
ATOM     13  C   UNL     1       7.103   3.602  12.319  0.00  0.00    +0.000 A 
ATOM     14  C   UNL     1       7.906   2.866  11.435  0.00  0.00    +0.000 A 
ATOM     15  C   UNL     1       7.335   1.758  10.755  0.00  0.00    +0.000 A 
ATOM     16  C   UNL     1       6.016   1.371  10.966  0.00  0.00    +0.000 A 
ATOM     17  C   UNL     1       5.188   2.125  11.794  0.00  0.00    +0.000 A 
ATOM     18  C   UNL     1       5.759   3.252  12.391  0.00  0.00    +0.000 A 
ATOM     19  N   UNL     1       5.216   4.221  13.185  0.00  0.00    +0.000 N 
ATOM     20  H   UNL     1       4.290   4.153  13.579  0.00  0.00    +0.000 HD
ENDBRANCH   4  11
BRANCH   1  25
ATOM     21  C   UNL     1       1.111   3.319  20.891  0.00  0.00    +0.000 A 
ATOM     22  C   UNL     1       2.049   2.550  21.556  0.00  0.00    +0.000 A 
ATOM     23  N   UNL     1       3.347   2.508  21.203  0.00  0.00    +0.000 NA
ATOM     24  C   UNL     1       3.717   3.279  20.143  0.00  0.00    +0.000 A 
ATOM     25  C   UNL     1       2.878   4.134  19.413  0.00  0.00    +0.000 A 
ATOM     26  C   UNL     1       1.530   4.108  19.811  0.00  0.00    +0.000 A 
ENDBRANCH   1  25
TORSDOF 2
ENDMDL
MODEL 7
REMARK VINA RESULT:      -7.7      3.239      8.199
REMARK  Name = 
REMARK  2 active torsions:
REMARK  status: ('A' for Active; 'I' for Inactive)
REMARK    1  A    between atoms: C_5  and  C_6
REMARK    2  A    between atoms: C_9  and  C_10
REMARK                            x       y       z     vdW  Elec       q    Type
REMARK                         _______ _______ _______ _____ _____    ______ ____
ROOT
ATOM      1  C   UNL     1       2.348   6.746  19.666  0.00  0.00    +0.000 A 
ATOM      2  C   UNL     1       1.700   7.745  20.428  0.00  0.00    +0.000 A 
ATOM      3  C   UNL     1       1.418   8.983  19.777  0.00  0.00    +0.000 A 
ATOM      4  C   UNL     1       0.443  10.036  19.888  0.00  0.00    +0.000 A 
ATOM      5  N   UNL     1      -0.161  10.089  18.671  0.00  0.00    +0.000 NA
ATOM      6  N   UNL     1       0.928   9.957  17.891  0.00  0.00    +0.000 N 
ATOM      7  C   UNL     1       1.764   9.025  18.424  0.00  0.00    +0.000 A 
ATOM      8  C   UNL     1       2.645   8.161  17.816  0.00  0.00    +0.000 A 
ATOM      9  N   UNL     1       2.920   7.011  18.459  0.00  0.00    +0.000 NA
ATOM     10  H   UNL     1       0.912  10.349  16.959  0.00  0.00    +0.000 HD
ENDROOT
BRANCH   4  11
ATOM     11  C   UNL     1       0.303  11.422  20.514  0.00  0.00    +0.000 A 
ATOM     12  N   UNL     1       1.167  12.170  21.193  0.00  0.00    +0.000 NA
ATOM     13  C   UNL     1       1.030  13.464  20.649  0.00  0.00    +0.000 A 
ATOM     14  C   UNL     1       1.744  14.657  20.834  0.00  0.00    +0.000 A 
ATOM     15  C   UNL     1       1.492  15.746  19.959  0.00  0.00    +0.000 A 
ATOM     16  C   UNL     1       0.581  15.648  18.911  0.00  0.00    +0.000 A 
ATOM     17  C   UNL     1      -0.178  14.492  18.749  0.00  0.00    +0.000 A 
ATOM     18  C   UNL     1       0.041  13.465  19.672  0.00  0.00    +0.000 A 
ATOM     19  N   UNL     1      -0.573  12.256  19.833  0.00  0.00    +0.000 N 
ATOM     20  H   UNL     1      -1.218  11.873  19.159  0.00  0.00    +0.000 HD
ENDBRANCH   4  11
BRANCH   1  25
ATOM     21  C   UNL     1       1.221   3.233  20.700  0.00  0.00    +0.000 A 
ATOM     22  C   UNL     1       2.337   2.517  20.308  0.00  0.00    +0.000 A 
ATOM     23  N   UNL     1       3.417   3.090  19.745  0.00  0.00    +0.000 NA
ATOM     24  C   UNL     1       3.374   4.442  19.580  0.00  0.00    +0.000 A 
ATOM     25  C   UNL     1       2.327   5.287  19.972  0.00  0.00    +0.000 A 
ATOM     26  C   UNL     1       1.217   4.624  20.524  0.00  0.00    +0.000 A 
ENDBRANCH   1  25
TORSDOF 2
ENDMDL
MODEL 8
REMARK VINA RESULT:      -7.7      1.400      1.736
REMARK  Name = 
REMARK  2 active torsions:
REMARK  status: ('A' for Active; 'I' for Inactive)
REMARK    1  A    between atoms: C_5  and  C_6
REMARK    2  A    between atoms: C_9  and  C_10
REMARK                            x       y       z     vdW  Elec       q    Type
REMARK                         _______ _______ _______ _____ _____    ______ ____
ROOT
ATOM      1  C   UNL     1       1.060   9.278  19.206  0.00  0.00    +0.000 A 
ATOM      2  C   UNL     1       1.742   8.320  18.422  0.00  0.00    +0.000 A 
ATOM      3  C   UNL     1       2.262   7.174  19.096  0.00  0.00    +0.000 A 
ATOM      4  C   UNL     1       2.557   5.803  18.773  0.00  0.00    +0.000 A 
ATOM      5  N   UNL     1       1.802   5.067  19.630  0.00  0.00    +0.000 NA
ATOM      6  N   UNL     1       1.999   5.784  20.752  0.00  0.00    +0.000 N 
ATOM      7  C   UNL     1       1.964   7.112  20.459  0.00  0.00    +0.000 A 
ATOM      8  C   UNL     1       1.569   8.186  21.222  0.00  0.00    +0.000 A 
ATOM      9  N   UNL     1       1.108   9.268  20.567  0.00  0.00    +0.000 NA
ATOM     10  H   UNL     1       1.926   5.320  21.648  0.00  0.00    +0.000 HD
ENDROOT
BRANCH   4  11
ATOM     11  C   UNL     1       3.753   4.938  18.381  0.00  0.00    +0.000 A 
ATOM     12  N   UNL     1       3.878   3.969  17.479  0.00  0.00    +0.000 NA
ATOM     13  C   UNL     1       5.092   4.245  16.817  0.00  0.00    +0.000 A 
ATOM     14  C   UNL     1       5.714   3.684  15.692  0.00  0.00    +0.000 A 
ATOM     15  C   UNL     1       6.843   4.343  15.138  0.00  0.00    +0.000 A 
ATOM     16  C   UNL     1       7.324   5.538  15.663  0.00  0.00    +0.000 A 
ATOM     17  C   UNL     1       6.756   6.077  16.814  0.00  0.00    +0.000 A 
ATOM     18  C   UNL     1       5.693   5.366  17.379  0.00  0.00    +0.000 A 
ATOM     19  N   UNL     1       4.975   5.579  18.521  0.00  0.00    +0.000 N 
ATOM     20  H   UNL     1       5.046   6.426  19.063  0.00  0.00    +0.000 HD
ENDBRANCH   4  11
BRANCH   1  25
ATOM     21  C   UNL     1      -1.953  10.891  17.473  0.00  0.00    +0.000 A 
ATOM     22  C   UNL     1      -1.809  12.185  17.938  0.00  0.00    +0.000 A 
ATOM     23  N   UNL     1      -0.812  12.565  18.757  0.00  0.00    +0.000 NA
ATOM     24  C   UNL     1       0.084  11.603  19.116  0.00  0.00    +0.000 A 
ATOM     25  C   UNL     1       0.078  10.269  18.683  0.00  0.00    +0.000 A 
ATOM     26  C   UNL     1      -1.006   9.929  17.855  0.00  0.00    +0.000 A 
ENDBRANCH   1  25
TORSDOF 2
ENDMDL
MODEL 9
REMARK VINA RESULT:      -7.7      2.052      8.306
REMARK  Name = 
REMARK  2 active torsions:
REMARK  status: ('A' for Active; 'I' for Inactive)
REMARK    1  A    between atoms: C_5  and  C_6
REMARK    2  A    between atoms: C_9  and  C_10
REMARK                            x       y       z     vdW  Elec       q    Type
REMARK                         _______ _______ _______ _____ _____    ______ ____
ROOT
ATOM      1  C   UNL     1       3.704   5.749  18.574  0.00  0.00    +0.000 A 
ATOM      2  C   UNL     1       3.136   6.995  18.222  0.00  0.00    +0.000 A 
ATOM      3  C   UNL     1       2.115   7.512  19.073  0.00  0.00    +0.000 A 
ATOM      4  C   UNL     1       1.606   8.806  19.447  0.00  0.00    +0.000 A 
ATOM      5  N   UNL     1       1.755   8.868  20.797  0.00  0.00    +0.000 NA
ATOM      6  N   UNL     1       1.350   7.623  21.111  0.00  0.00    +0.000 N 
ATOM      7  C   UNL     1       1.849   6.738  20.205  0.00  0.00    +0.000 A 
ATOM      8  C   UNL     1       2.200   5.416  20.347  0.00  0.00    +0.000 A 
ATOM      9  N   UNL     1       3.146   4.939  19.516  0.00  0.00    +0.000 NA
ATOM     10  H   UNL     1       0.954   7.454  22.025  0.00  0.00    +0.000 HD
ENDROOT
BRANCH   4  11
ATOM     11  C   UNL     1       0.460   9.749  19.084  0.00  0.00    +0.000 A 
ATOM     12  N   UNL     1      -0.625  10.112  19.760  0.00  0.00    +0.000 NA
ATOM     13  C   UNL     1      -0.706  11.509  19.588  0.00  0.00    +0.000 A 
ATOM     14  C   UNL     1      -1.533  12.493  20.150  0.00  0.00    +0.000 A 
ATOM     15  C   UNL     1      -1.211  13.859  19.934  0.00  0.00    +0.000 A 
ATOM     16  C   UNL     1      -0.087  14.241  19.209  0.00  0.00    +0.000 A 
ATOM     17  C   UNL     1       0.710  13.279  18.594  0.00  0.00    +0.000 A 
ATOM     18  C   UNL     1       0.325  11.946  18.764  0.00  0.00    +0.000 A 
ATOM     19  N   UNL     1       0.838  10.790  18.249  0.00  0.00    +0.000 N 
ATOM     20  H   UNL     1       1.716  10.752  17.753  0.00  0.00    +0.000 HD
ENDBRANCH   4  11
BRANCH   1  25
ATOM     21  C   UNL     1       6.641   4.574  16.413  0.00  0.00    +0.000 A 
ATOM     22  C   UNL     1       7.630   4.546  17.379  0.00  0.00    +0.000 A 
ATOM     23  N   UNL     1       7.409   4.871  18.666  0.00  0.00    +0.000 NA
ATOM     24  C   UNL     1       6.137   5.230  18.996  0.00  0.00    +0.000 A 
ATOM     25  C   UNL     1       5.037   5.259  18.126  0.00  0.00    +0.000 A 
ATOM     26  C   UNL     1       5.341   4.939  16.791  0.00  0.00    +0.000 A 
ENDBRANCH   1  25
TORSDOF 2
ENDMDL
