MODEL 1
REMARK VINA RESULT:      -5.7      0.000      0.000
REMARK  Name = 
REMARK  13 active torsions:
REMARK  status: ('A' for Active; 'I' for Inactive)
REMARK    1  A    between atoms: C_1  and  C_2
REMARK    2  A    between atoms: C_2  and  O_3
REMARK    3  A    between atoms: O_3  and  C_4
REMARK    4  A    between atoms: C_4  and  C_6
REMARK    5  A    between atoms: C_7  and  C_8
REMARK    6  A    between atoms: C_8  and  C_9
REMARK    7  A    between atoms: C_10  and  C_11
REMARK    8  A    between atoms: C_11  and  S_13
REMARK    9  A    between atoms: S_13  and  C_14
REMARK   10  A    between atoms: C_14  and  C_15
REMARK   11  A    between atoms: C_16  and  C_17
REMARK   12  A    between atoms: N_21  and  C_22
REMARK   13  A    between atoms: C_23  and  C_24
REMARK                            x       y       z     vdW  Elec       q    Type
REMARK                         _______ _______ _______ _____ _____    ______ ____
ROOT
ATOM      1  C   UNL     1      -1.680  12.003  20.914  0.00  0.00    +0.000 A 
ATOM      2  C   UNL     1      -1.659  11.407  19.633  0.00  0.00    +0.000 A 
ATOM      3  C   UNL     1      -2.843  11.487  18.859  0.00  0.00    +0.000 A 
ATOM      4  C   UNL     1      -3.980  12.272  19.287  0.00  0.00    +0.000 A 
ATOM      5  N   UNL     1      -3.826  13.015  20.459  0.00  0.00    +0.000 N 
ATOM      6  C   UNL     1      -4.774  14.121  20.763  0.00  0.00    +0.000 C 
ATOM      7  C   UNL     1      -2.764  12.818  21.328  0.00  0.00    +0.000 A 
ENDROOT
BRANCH   7   8
ATOM      8  C   UNL     1      -2.816  13.526  22.658  0.00  0.00    +0.000 A 
ATOM      9  C   UNL     1      -3.535  13.009  23.760  0.00  0.00    +0.000 A 
ATOM     10  C   UNL     1      -3.662  13.719  24.961  0.00  0.00    +0.000 A 
ATOM     11  C   UNL     1      -2.964  14.905  25.143  0.00  0.00    +0.000 A 
ATOM     12  C   UNL     1      -2.162  15.391  24.118  0.00  0.00    +0.000 A 
ATOM     13  C   UNL     1      -2.122  14.735  22.881  0.00  0.00    +0.000 A 
ENDBRANCH   7   8
BRANCH   4  14
ATOM     14  C   UNL     1      -5.413  12.212  18.526  0.00  0.00    +0.000 C 
ATOM     15  C   UNL     1      -6.646  11.531  19.148  0.00  0.00    +0.000 C 
ATOM     16  C   UNL     1      -7.538  12.557  18.420  0.00  0.00    +0.000 C 
ATOM     17  C   UNL     1      -6.300  13.444  18.198  0.00  0.00    +0.000 C 
ENDBRANCH   4  14
BRANCH   1  18
ATOM     18  C   UNL     1      -0.590  11.723  21.879  0.00  0.00    +0.000 C 
ATOM     19  O   UNL     1       0.491  12.286  21.912  0.00  0.00    +0.000 OA
BRANCH  18  20
ATOM     20  O   UNL     1      -1.026  10.686  22.621  0.00  0.00    +0.000 OA
BRANCH  20  22
ATOM     21  C   UNL     1      -0.263   8.598  21.947  0.00  0.00    +0.000 C 
ATOM     22  C   UNL     1      -0.085   9.667  23.001  0.00  0.00    +0.000 C 
ENDBRANCH  20  22
ENDBRANCH  18  20
ENDBRANCH   1  18
BRANCH   2  23
ATOM     23  C   UNL     1      -0.399  10.737  19.090  0.00  0.00    +0.000 C 
ATOM     24  C   UNL     1       0.684  11.648  18.522  0.00  0.00    +0.000 C 
ENDBRANCH   2  23
BRANCH   3  25
ATOM     25  C   UNL     1      -2.964  10.562  17.679  0.00  0.00    +0.000 C 
ATOM     26  O   UNL     1      -3.260   9.394  17.882  0.00  0.00    +0.000 OA
BRANCH  25  27
ATOM     27  S   UNL     1      -2.672  11.177  16.054  0.00  0.00    +0.000 S 
BRANCH  27  28
ATOM     28  C   UNL     1      -3.054   9.670  15.070  0.00  0.00    +0.000 C 
ATOM     29  C   UNL     1      -3.490   9.984  13.644  0.00  0.00    +0.000 C 
ENDBRANCH  27  28
ENDBRANCH  25  27
ENDBRANCH   3  25
TORSDOF 9
ENDMDL
MODEL 2
REMARK VINA RESULT:      -5.4      2.468      6.365
REMARK  Name = 
REMARK  13 active torsions:
REMARK  status: ('A' for Active; 'I' for Inactive)
REMARK    1  A    between atoms: C_1  and  C_2
REMARK    2  A    between atoms: C_2  and  O_3
REMARK    3  A    between atoms: O_3  and  C_4
REMARK    4  A    between atoms: C_4  and  C_6
REMARK    5  A    between atoms: C_7  and  C_8
REMARK    6  A    between atoms: C_8  and  C_9
REMARK    7  A    between atoms: C_10  and  C_11
REMARK    8  A    between atoms: C_11  and  S_13
REMARK    9  A    between atoms: S_13  and  C_14
REMARK   10  A    between atoms: C_14  and  C_15
REMARK   11  A    between atoms: C_16  and  C_17
REMARK   12  A    between atoms: N_21  and  C_22
REMARK   13  A    between atoms: C_23  and  C_24
REMARK                            x       y       z     vdW  Elec       q    Type
REMARK                         _______ _______ _______ _____ _____    ______ ____
ROOT
ATOM      1  C   UNL     1      -3.844  11.574  18.722  0.00  0.00    +0.000 A 
ATOM      2  C   UNL     1      -5.130  12.110  18.963  0.00  0.00    +0.000 A 
ATOM      3  C   UNL     1      -5.303  12.884  20.137  0.00  0.00    +0.000 A 
ATOM      4  C   UNL     1      -4.187  13.245  20.981  0.00  0.00    +0.000 A 
ATOM      5  N   UNL     1      -2.916  12.865  20.543  0.00  0.00    +0.000 N 
ATOM      6  C   UNL     1      -1.709  13.508  21.128  0.00  0.00    +0.000 C 
ATOM      7  C   UNL     1      -2.730  11.959  19.510  0.00  0.00    +0.000 A 
ENDROOT
BRANCH   7   8
ATOM      8  C   UNL     1      -1.325  11.467  19.266  0.00  0.00    +0.000 A 
ATOM      9  C   UNL     1      -0.423  12.151  18.420  0.00  0.00    +0.000 A 
ATOM     10  C   UNL     1       0.845  11.637  18.119  0.00  0.00    +0.000 A 
ATOM     11  C   UNL     1       1.300  10.493  18.759  0.00  0.00    +0.000 A 
ATOM     12  C   UNL     1       0.479   9.851  19.678  0.00  0.00    +0.000 A 
ATOM     13  C   UNL     1      -0.828  10.306  19.896  0.00  0.00    +0.000 A 
ENDBRANCH   7   8
BRANCH   4  14
ATOM     14  C   UNL     1      -4.385  13.949  22.431  0.00  0.00    +0.000 C 
ATOM     15  C   UNL     1      -3.643  13.463  23.690  0.00  0.00    +0.000 C 
ATOM     16  C   UNL     1      -3.638  14.916  24.207  0.00  0.00    +0.000 C 
ATOM     17  C   UNL     1      -3.963  15.401  22.783  0.00  0.00    +0.000 C 
ENDBRANCH   4  14
BRANCH   1  18
ATOM     18  C   UNL     1      -3.656  10.539  17.679  0.00  0.00    +0.000 C 
ATOM     19  O   UNL     1      -3.532   9.343  17.880  0.00  0.00    +0.000 OA
BRANCH  18  20
ATOM     20  O   UNL     1      -3.570  11.214  16.516  0.00  0.00    +0.000 OA
BRANCH  20  22
ATOM     21  C   UNL     1      -3.295  10.159  14.463  0.00  0.00    +0.000 C 
ATOM     22  C   UNL     1      -2.542  10.845  15.581  0.00  0.00    +0.000 C 
ENDBRANCH  20  22
ENDBRANCH  18  20
ENDBRANCH   1  18
BRANCH   2  23
ATOM     23  C   UNL     1      -6.276  11.894  17.977  0.00  0.00    +0.000 C 
ATOM     24  C   UNL     1      -6.561  13.016  16.985  0.00  0.00    +0.000 C 
ENDBRANCH   2  23
BRANCH   3  25
ATOM     25  C   UNL     1      -6.712  13.144  20.594  0.00  0.00    +0.000 C 
ATOM     26  O   UNL     1      -7.218  14.227  20.338  0.00  0.00    +0.000 OA
BRANCH  25  27
ATOM     27  S   UNL     1      -7.587  11.899  21.481  0.00  0.00    +0.000 S 
BRANCH  27  28
ATOM     28  C   UNL     1      -7.916  12.799  23.052  0.00  0.00    +0.000 C 
ATOM     29  C   UNL     1      -6.991  12.375  24.187  0.00  0.00    +0.000 C 
ENDBRANCH  27  28
ENDBRANCH  25  27
ENDBRANCH   3  25
TORSDOF 9
ENDMDL
MODEL 3
REMARK VINA RESULT:      -5.4      2.527      5.650
REMARK  Name = 
REMARK  13 active torsions:
REMARK  status: ('A' for Active; 'I' for Inactive)
REMARK    1  A    between atoms: C_1  and  C_2
REMARK    2  A    between atoms: C_2  and  O_3
REMARK    3  A    between atoms: O_3  and  C_4
REMARK    4  A    between atoms: C_4  and  C_6
REMARK    5  A    between atoms: C_7  and  C_8
REMARK    6  A    between atoms: C_8  and  C_9
REMARK    7  A    between atoms: C_10  and  C_11
REMARK    8  A    between atoms: C_11  and  S_13
REMARK    9  A    between atoms: S_13  and  C_14
REMARK   10  A    between atoms: C_14  and  C_15
REMARK   11  A    between atoms: C_16  and  C_17
REMARK   12  A    between atoms: N_21  and  C_22
REMARK   13  A    between atoms: C_23  and  C_24
REMARK                            x       y       z     vdW  Elec       q    Type
REMARK                         _______ _______ _______ _____ _____    ______ ____
ROOT
ATOM      1  C   UNL     1      -2.340  12.554  21.558  0.00  0.00    +0.000 A 
ATOM      2  C   UNL     1      -3.638  12.779  22.069  0.00  0.00    +0.000 A 
ATOM      3  C   UNL     1      -4.703  12.835  21.137  0.00  0.00    +0.000 A 
ATOM      4  C   UNL     1      -4.508  12.526  19.738  0.00  0.00    +0.000 A 
ATOM      5  N   UNL     1      -3.236  12.089  19.362  0.00  0.00    +0.000 N 
ATOM      6  C   UNL     1      -3.047  11.399  18.058  0.00  0.00    +0.000 C 
ATOM      7  C   UNL     1      -2.137  12.200  20.200  0.00  0.00    +0.000 A 
ENDROOT
BRANCH   7   8
ATOM      8  C   UNL     1      -0.783  11.891  19.611  0.00  0.00    +0.000 A 
ATOM      9  C   UNL     1       0.026  12.887  19.019  0.00  0.00    +0.000 A 
ATOM     10  C   UNL     1       1.237  12.578  18.386  0.00  0.00    +0.000 A 
ATOM     11  C   UNL     1       1.740  11.286  18.441  0.00  0.00    +0.000 A 
ATOM     12  C   UNL     1       1.020  10.300  19.107  0.00  0.00    +0.000 A 
ATOM     13  C   UNL     1      -0.240  10.588  19.646  0.00  0.00    +0.000 A 
ENDBRANCH   7   8
BRANCH   4  14
ATOM     14  C   UNL     1      -5.659  12.784  18.622  0.00  0.00    +0.000 C 
ATOM     15  C   UNL     1      -6.915  11.900  18.518  0.00  0.00    +0.000 C 
ATOM     16  C   UNL     1      -7.700  13.133  18.025  0.00  0.00    +0.000 C 
ATOM     17  C   UNL     1      -6.574  14.037  18.558  0.00  0.00    +0.000 C 
ENDBRANCH   4  14
BRANCH   1  18
ATOM     18  C   UNL     1      -1.156  12.757  22.426  0.00  0.00    +0.000 C 
ATOM     19  O   UNL     1      -0.612  11.897  23.097  0.00  0.00    +0.000 OA
BRANCH  18  20
ATOM     20  O   UNL     1      -0.890  14.077  22.366  0.00  0.00    +0.000 OA
BRANCH  20  22
ATOM     21  C   UNL     1       0.351  15.803  21.426  0.00  0.00    +0.000 C 
ATOM     22  C   UNL     1       0.473  14.497  22.179  0.00  0.00    +0.000 C 
ENDBRANCH  20  22
ENDBRANCH  18  20
ENDBRANCH   1  18
BRANCH   2  23
ATOM     23  C   UNL     1      -3.886  12.919  23.570  0.00  0.00    +0.000 C 
ATOM     24  C   UNL     1      -3.786  14.319  24.164  0.00  0.00    +0.000 C 
ENDBRANCH   2  23
BRANCH   3  25
ATOM     25  C   UNL     1      -6.003  13.430  21.606  0.00  0.00    +0.000 C 
ATOM     26  O   UNL     1      -6.105  14.647  21.652  0.00  0.00    +0.000 OA
BRANCH  25  27
ATOM     27  S   UNL     1      -7.329  12.370  22.077  0.00  0.00    +0.000 S 
BRANCH  27  28
ATOM     28  C   UNL     1      -7.266  12.575  23.905  0.00  0.00    +0.000 C 
ATOM     29  C   UNL     1      -7.916  13.869  24.382  0.00  0.00    +0.000 C 
ENDBRANCH  27  28
ENDBRANCH  25  27
ENDBRANCH   3  25
TORSDOF 9
ENDMDL
MODEL 4
REMARK VINA RESULT:      -5.3      3.030      7.248
REMARK  Name = 
REMARK  13 active torsions:
REMARK  status: ('A' for Active; 'I' for Inactive)
REMARK    1  A    between atoms: C_1  and  C_2
REMARK    2  A    between atoms: C_2  and  O_3
REMARK    3  A    between atoms: O_3  and  C_4
REMARK    4  A    between atoms: C_4  and  C_6
REMARK    5  A    between atoms: C_7  and  C_8
REMARK    6  A    between atoms: C_8  and  C_9
REMARK    7  A    between atoms: C_10  and  C_11
REMARK    8  A    between atoms: C_11  and  S_13
REMARK    9  A    between atoms: S_13  and  C_14
REMARK   10  A    between atoms: C_14  and  C_15
REMARK   11  A    between atoms: C_16  and  C_17
REMARK   12  A    between atoms: N_21  and  C_22
REMARK   13  A    between atoms: C_23  and  C_24
REMARK                            x       y       z     vdW  Elec       q    Type
REMARK                         _______ _______ _______ _____ _____    ______ ____
ROOT
ATOM      1  C   UNL     1      -5.446  12.219  19.281  0.00  0.00    +0.000 A 
ATOM      2  C   UNL     1      -5.802  13.045  20.372  0.00  0.00    +0.000 A 
ATOM      3  C   UNL     1      -4.753  13.528  21.192  0.00  0.00    +0.000 A 
ATOM      4  C   UNL     1      -3.363  13.318  20.852  0.00  0.00    +0.000 A 
ATOM      5  N   UNL     1      -3.101  12.689  19.633  0.00  0.00    +0.000 N 
ATOM      6  C   UNL     1      -1.742  12.774  19.034  0.00  0.00    +0.000 C 
ATOM      7  C   UNL     1      -4.090  12.046  18.904  0.00  0.00    +0.000 A 
ENDROOT
BRANCH   7   8
ATOM      8  C   UNL     1      -3.652  11.226  17.717  0.00  0.00    +0.000 A 
ATOM      9  C   UNL     1      -2.906  10.033  17.859  0.00  0.00    +0.000 A 
ATOM     10  C   UNL     1      -2.417   9.330  16.750  0.00  0.00    +0.000 A 
ATOM     11  C   UNL     1      -2.772   9.721  15.467  0.00  0.00    +0.000 A 
ATOM     12  C   UNL     1      -3.593  10.829  15.293  0.00  0.00    +0.000 A 
ATOM     13  C   UNL     1      -3.991  11.594  16.397  0.00  0.00    +0.000 A 
ENDBRANCH   7   8
BRANCH   4  14
ATOM     14  C   UNL     1      -2.154  13.678  21.875  0.00  0.00    +0.000 C 
ATOM     15  C   UNL     1      -1.004  12.696  22.165  0.00  0.00    +0.000 C 
ATOM     16  C   UNL     1      -0.068  13.906  22.366  0.00  0.00    +0.000 C 
ATOM     17  C   UNL     1      -1.100  14.796  21.651  0.00  0.00    +0.000 C 
ENDBRANCH   4  14
BRANCH   1  18
ATOM     18  C   UNL     1      -6.490  11.459  18.555  0.00  0.00    +0.000 C 
ATOM     19  O   UNL     1      -7.224  11.909  17.691  0.00  0.00    +0.000 OA
BRANCH  18  20
ATOM     20  O   UNL     1      -6.494  10.233  19.113  0.00  0.00    +0.000 OA
BRANCH  20  22
ATOM     21  C   UNL     1      -7.388   8.442  20.294  0.00  0.00    +0.000 C 
ATOM     22  C   UNL     1      -7.470   9.942  20.129  0.00  0.00    +0.000 C 
ENDBRANCH  20  22
ENDBRANCH  18  20
ENDBRANCH   1  18
BRANCH   2  23
ATOM     23  C   UNL     1      -7.257  13.431  20.632  0.00  0.00    +0.000 C 
ATOM     24  C   UNL     1      -7.768  14.705  19.968  0.00  0.00    +0.000 C 
ENDBRANCH   2  23
BRANCH   3  25
ATOM     25  C   UNL     1      -5.127  14.084  22.539  0.00  0.00    +0.000 C 
ATOM     26  O   UNL     1      -5.297  15.290  22.644  0.00  0.00    +0.000 OA
BRANCH  25  27
ATOM     27  S   UNL     1      -5.302  12.999  23.915  0.00  0.00    +0.000 S 
BRANCH  27  28
ATOM     28  C   UNL     1      -7.130  13.040  24.122  0.00  0.00    +0.000 C 
ATOM     29  C   UNL     1      -7.825  11.824  23.520  0.00  0.00    +0.000 C 
ENDBRANCH  27  28
ENDBRANCH  25  27
ENDBRANCH   3  25
TORSDOF 9
ENDMDL
MODEL 5
REMARK VINA RESULT:      -5.3      2.323      6.395
REMARK  Name = 
REMARK  13 active torsions:
REMARK  status: ('A' for Active; 'I' for Inactive)
REMARK    1  A    between atoms: C_1  and  C_2
REMARK    2  A    between atoms: C_2  and  O_3
REMARK    3  A    between atoms: O_3  and  C_4
REMARK    4  A    between atoms: C_4  and  C_6
REMARK    5  A    between atoms: C_7  and  C_8
REMARK    6  A    between atoms: C_8  and  C_9
REMARK    7  A    between atoms: C_10  and  C_11
REMARK    8  A    between atoms: C_11  and  S_13
REMARK    9  A    between atoms: S_13  and  C_14
REMARK   10  A    between atoms: C_14  and  C_15
REMARK   11  A    between atoms: C_16  and  C_17
REMARK   12  A    between atoms: N_21  and  C_22
REMARK   13  A    between atoms: C_23  and  C_24
REMARK                            x       y       z     vdW  Elec       q    Type
REMARK                         _______ _______ _______ _____ _____    ______ ____
ROOT
ATOM      1  C   UNL     1      -3.340  11.487  18.838  0.00  0.00    +0.000 A 
ATOM      2  C   UNL     1      -4.521  12.240  19.030  0.00  0.00    +0.000 A 
ATOM      3  C   UNL     1      -4.617  13.009  20.216  0.00  0.00    +0.000 A 
ATOM      4  C   UNL     1      -3.501  13.147  21.125  0.00  0.00    +0.000 A 
ATOM      5  N   UNL     1      -2.296  12.554  20.739  0.00  0.00    +0.000 N 
ATOM      6  C   UNL     1      -1.028  12.958  21.403  0.00  0.00    +0.000 C 
ATOM      7  C   UNL     1      -2.219  11.650  19.691  0.00  0.00    +0.000 A 
ENDROOT
BRANCH   7   8
ATOM      8  C   UNL     1      -0.913  10.919  19.503  0.00  0.00    +0.000 A 
ATOM      9  C   UNL     1      -0.527   9.841  20.330  0.00  0.00    +0.000 A 
ATOM     10  C   UNL     1       0.729   9.231  20.213  0.00  0.00    +0.000 A 
ATOM     11  C   UNL     1       1.584   9.591  19.181  0.00  0.00    +0.000 A 
ATOM     12  C   UNL     1       1.192  10.577  18.282  0.00  0.00    +0.000 A 
ATOM     13  C   UNL     1      -0.018  11.259  18.466  0.00  0.00    +0.000 A 
ENDBRANCH   7   8
BRANCH   4  14
ATOM     14  C   UNL     1      -3.649  13.846  22.584  0.00  0.00    +0.000 C 
ATOM     15  C   UNL     1      -3.446  13.063  23.895  0.00  0.00    +0.000 C 
ATOM     16  C   UNL     1      -2.913  14.356  24.544  0.00  0.00    +0.000 C 
ATOM     17  C   UNL     1      -2.716  14.955  23.140  0.00  0.00    +0.000 C 
ENDBRANCH   4  14
BRANCH   1  18
ATOM     18  C   UNL     1      -3.283  10.456  17.775  0.00  0.00    +0.000 C 
ATOM     19  O   UNL     1      -3.428   9.257  17.941  0.00  0.00    +0.000 OA
BRANCH  18  20
ATOM     20  O   UNL     1      -2.960  11.121  16.648  0.00  0.00    +0.000 OA
BRANCH  20  22
ATOM     21  C   UNL     1      -3.782  10.287  14.641  0.00  0.00    +0.000 C 
ATOM     22  C   UNL     1      -2.540  10.364  15.500  0.00  0.00    +0.000 C 
ENDBRANCH  20  22
ENDBRANCH  18  20
ENDBRANCH   1  18
BRANCH   2  23
ATOM     23  C   UNL     1      -5.632  12.253  17.983  0.00  0.00    +0.000 C 
ATOM     24  C   UNL     1      -6.679  11.148  18.066  0.00  0.00    +0.000 C 
ENDBRANCH   2  23
BRANCH   3  25
ATOM     25  C   UNL     1      -5.980  13.508  20.610  0.00  0.00    +0.000 C 
ATOM     26  O   UNL     1      -6.315  14.628  20.255  0.00  0.00    +0.000 OA
BRANCH  25  27
ATOM     27  S   UNL     1      -7.043  12.481  21.567  0.00  0.00    +0.000 S 
BRANCH  27  28
ATOM     28  C   UNL     1      -7.908  13.761  22.567  0.00  0.00    +0.000 C 
ATOM     29  C   UNL     1      -7.156  14.131  23.840  0.00  0.00    +0.000 C 
ENDBRANCH  27  28
ENDBRANCH  25  27
ENDBRANCH   3  25
TORSDOF 9
ENDMDL
MODEL 6
REMARK VINA RESULT:      -5.2      2.586      5.748
REMARK  Name = 
REMARK  13 active torsions:
REMARK  status: ('A' for Active; 'I' for Inactive)
REMARK    1  A    between atoms: C_1  and  C_2
REMARK    2  A    between atoms: C_2  and  O_3
REMARK    3  A    between atoms: O_3  and  C_4
REMARK    4  A    between atoms: C_4  and  C_6
REMARK    5  A    between atoms: C_7  and  C_8
REMARK    6  A    between atoms: C_8  and  C_9
REMARK    7  A    between atoms: C_10  and  C_11
REMARK    8  A    between atoms: C_11  and  S_13
REMARK    9  A    between atoms: S_13  and  C_14
REMARK   10  A    between atoms: C_14  and  C_15
REMARK   11  A    between atoms: C_16  and  C_17
REMARK   12  A    between atoms: N_21  and  C_22
REMARK   13  A    between atoms: C_23  and  C_24
REMARK                            x       y       z     vdW  Elec       q    Type
REMARK                         _______ _______ _______ _____ _____    ______ ____
ROOT
ATOM      1  C   UNL     1      -3.551  11.742  18.936  0.00  0.00    +0.000 A 
ATOM      2  C   UNL     1      -4.938  11.902  19.159  0.00  0.00    +0.000 A 
ATOM      3  C   UNL     1      -5.331  12.627  20.312  0.00  0.00    +0.000 A 
ATOM      4  C   UNL     1      -4.368  13.308  21.148  0.00  0.00    +0.000 A 
ATOM      5  N   UNL     1      -3.038  13.288  20.721  0.00  0.00    +0.000 N 
ATOM      6  C   UNL     1      -2.064  14.257  21.291  0.00  0.00    +0.000 C 
ATOM      7  C   UNL     1      -2.596  12.444  19.714  0.00  0.00    +0.000 A 
ENDROOT
BRANCH   7   8
ATOM      8  C   UNL     1      -1.108  12.359  19.485  0.00  0.00    +0.000 A 
ATOM      9  C   UNL     1      -0.429  13.234  18.607  0.00  0.00    +0.000 A 
ATOM     10  C   UNL     1       0.935  13.086  18.323  0.00  0.00    +0.000 A 
ATOM     11  C   UNL     1       1.690  12.146  19.009  0.00  0.00    +0.000 A 
ATOM     12  C   UNL     1       1.076  11.337  19.959  0.00  0.00    +0.000 A 
ATOM     13  C   UNL     1      -0.308  11.413  20.163  0.00  0.00    +0.000 A 
ENDBRANCH   7   8
BRANCH   4  14
ATOM     14  C   UNL     1      -4.769  13.965  22.578  0.00  0.00    +0.000 C 
ATOM     15  C   UNL     1      -5.505  15.313  22.686  0.00  0.00    +0.000 C 
ATOM     16  C   UNL     1      -6.189  14.798  23.969  0.00  0.00    +0.000 C 
ATOM     17  C   UNL     1      -5.792  13.363  23.580  0.00  0.00    +0.000 C 
ENDBRANCH   4  14
BRANCH   1  18
ATOM     18  C   UNL     1      -3.072  10.775  17.921  0.00  0.00    +0.000 C 
ATOM     19  O   UNL     1      -2.716   9.630  18.144  0.00  0.00    +0.000 OA
BRANCH  18  20
ATOM     20  O   UNL     1      -3.040  11.459  16.760  0.00  0.00    +0.000 OA
BRANCH  20  22
ATOM     21  C   UNL     1      -3.867  10.389  14.870  0.00  0.00    +0.000 C 
ATOM     22  C   UNL     1      -2.589  10.782  15.575  0.00  0.00    +0.000 C 
ENDBRANCH  20  22
ENDBRANCH  18  20
ENDBRANCH   1  18
BRANCH   2  23
ATOM     23  C   UNL     1      -5.969  11.349  18.178  0.00  0.00    +0.000 C 
ATOM     24  C   UNL     1      -6.428  12.273  17.056  0.00  0.00    +0.000 C 
ENDBRANCH   2  23
BRANCH   3  25
ATOM     25  C   UNL     1      -6.761  12.493  20.760  0.00  0.00    +0.000 C 
ATOM     26  O   UNL     1      -7.089  11.486  21.370  0.00  0.00    +0.000 OA
BRANCH  25  27
ATOM     27  S   UNL     1      -7.914  13.773  20.393  0.00  0.00    +0.000 S 
BRANCH  27  28
ATOM     28  C   UNL     1      -6.847  14.886  19.389  0.00  0.00    +0.000 C 
ATOM     29  C   UNL     1      -7.614  15.625  18.299  0.00  0.00    +0.000 C 
ENDBRANCH  27  28
ENDBRANCH  25  27
ENDBRANCH   3  25
TORSDOF 9
ENDMDL
MODEL 7
REMARK VINA RESULT:      -5.2      2.487      6.155
REMARK  Name = 
REMARK  13 active torsions:
REMARK  status: ('A' for Active; 'I' for Inactive)
REMARK    1  A    between atoms: C_1  and  C_2
REMARK    2  A    between atoms: C_2  and  O_3
REMARK    3  A    between atoms: O_3  and  C_4
REMARK    4  A    between atoms: C_4  and  C_6
REMARK    5  A    between atoms: C_7  and  C_8
REMARK    6  A    between atoms: C_8  and  C_9
REMARK    7  A    between atoms: C_10  and  C_11
REMARK    8  A    between atoms: C_11  and  S_13
REMARK    9  A    between atoms: S_13  and  C_14
REMARK   10  A    between atoms: C_14  and  C_15
REMARK   11  A    between atoms: C_16  and  C_17
REMARK   12  A    between atoms: N_21  and  C_22
REMARK   13  A    between atoms: C_23  and  C_24
REMARK                            x       y       z     vdW  Elec       q    Type
REMARK                         _______ _______ _______ _____ _____    ______ ____
ROOT
ATOM      1  C   UNL     1      -2.355  12.058  19.689  0.00  0.00    +0.000 A 
ATOM      2  C   UNL     1      -2.518  12.587  20.990  0.00  0.00    +0.000 A 
ATOM      3  C   UNL     1      -3.837  12.889  21.409  0.00  0.00    +0.000 A 
ATOM      4  C   UNL     1      -4.989  12.535  20.610  0.00  0.00    +0.000 A 
ATOM      5  N   UNL     1      -4.746  11.808  19.442  0.00  0.00    +0.000 N 
ATOM      6  C   UNL     1      -5.863  11.086  18.775  0.00  0.00    +0.000 C 
ATOM      7  C   UNL     1      -3.473  11.659  18.914  0.00  0.00    +0.000 A 
ENDROOT
BRANCH   7   8
ATOM      8  C   UNL     1      -3.360  11.036  17.545  0.00  0.00    +0.000 A 
ATOM      9  C   UNL     1      -3.835  11.683  16.381  0.00  0.00    +0.000 A 
ATOM     10  C   UNL     1      -3.817  11.057  15.128  0.00  0.00    +0.000 A 
ATOM     11  C   UNL     1      -3.203   9.822  14.976  0.00  0.00    +0.000 A 
ATOM     12  C   UNL     1      -2.631   9.203  16.081  0.00  0.00    +0.000 A 
ATOM     13  C   UNL     1      -2.745   9.780  17.352  0.00  0.00    +0.000 A 
ENDBRANCH   7   8
BRANCH   4  14
ATOM     14  C   UNL     1      -6.487  13.052  20.967  0.00  0.00    +0.000 C 
ATOM     15  C   UNL     1      -7.195  12.675  22.281  0.00  0.00    +0.000 C 
ATOM     16  C   UNL     1      -7.917  14.038  22.243  0.00  0.00    +0.000 C 
ATOM     17  C   UNL     1      -6.883  14.533  21.216  0.00  0.00    +0.000 C 
ENDBRANCH   4  14
BRANCH   1  18
ATOM     18  C   UNL     1      -1.004  11.980  19.085  0.00  0.00    +0.000 C 
ATOM     19  O   UNL     1      -0.499  12.825  18.366  0.00  0.00    +0.000 OA
BRANCH  18  20
ATOM     20  O   UNL     1      -0.526  10.770  19.433  0.00  0.00    +0.000 OA
BRANCH  20  22
ATOM     21  C   UNL     1       1.077   9.630  18.194  0.00  0.00    +0.000 C 
ATOM     22  C   UNL     1       0.894  10.550  19.380  0.00  0.00    +0.000 C 
ENDBRANCH  20  22
ENDBRANCH  18  20
ENDBRANCH   1  18
BRANCH   2  23
ATOM     23  C   UNL     1      -1.323  12.789  21.920  0.00  0.00    +0.000 C 
ATOM     24  C   UNL     1      -0.881  11.592  22.754  0.00  0.00    +0.000 C 
ENDBRANCH   2  23
BRANCH   3  25
ATOM     25  C   UNL     1      -3.996  13.776  22.613  0.00  0.00    +0.000 C 
ATOM     26  O   UNL     1      -4.282  13.260  23.684  0.00  0.00    +0.000 OA
BRANCH  25  27
ATOM     27  S   UNL     1      -3.775  15.516  22.452  0.00  0.00    +0.000 S 
BRANCH  27  28
ATOM     28  C   UNL     1      -4.321  16.063  24.121  0.00  0.00    +0.000 C 
ATOM     29  C   UNL     1      -5.737  16.628  24.130  0.00  0.00    +0.000 C 
ENDBRANCH  27  28
ENDBRANCH  25  27
ENDBRANCH   3  25
TORSDOF 9
ENDMDL
MODEL 8
REMARK VINA RESULT:      -5.2      2.891      7.179
REMARK  Name = 
REMARK  13 active torsions:
REMARK  status: ('A' for Active; 'I' for Inactive)
REMARK    1  A    between atoms: C_1  and  C_2
REMARK    2  A    between atoms: C_2  and  O_3
REMARK    3  A    between atoms: O_3  and  C_4
REMARK    4  A    between atoms: C_4  and  C_6
REMARK    5  A    between atoms: C_7  and  C_8
REMARK    6  A    between atoms: C_8  and  C_9
REMARK    7  A    between atoms: C_10  and  C_11
REMARK    8  A    between atoms: C_11  and  S_13
REMARK    9  A    between atoms: S_13  and  C_14
REMARK   10  A    between atoms: C_14  and  C_15
REMARK   11  A    between atoms: C_16  and  C_17
REMARK   12  A    between atoms: N_21  and  C_22
REMARK   13  A    between atoms: C_23  and  C_24
REMARK                            x       y       z     vdW  Elec       q    Type
REMARK                         _______ _______ _______ _____ _____    ______ ____
ROOT
ATOM      1  C   UNL     1      -5.313  11.730  19.616  0.00  0.00    +0.000 A 
ATOM      2  C   UNL     1      -5.639  12.407  20.814  0.00  0.00    +0.000 A 
ATOM      3  C   UNL     1      -4.571  12.982  21.547  0.00  0.00    +0.000 A 
ATOM      4  C   UNL     1      -3.222  13.013  21.028  0.00  0.00    +0.000 A 
ATOM      5  N   UNL     1      -3.034  12.525  19.733  0.00  0.00    +0.000 N 
ATOM      6  C   UNL     1      -1.790  12.861  18.989  0.00  0.00    +0.000 C 
ATOM      7  C   UNL     1      -4.007  11.795  19.068  0.00  0.00    +0.000 A 
ENDROOT
BRANCH   7   8
ATOM      8  C   UNL     1      -3.615  11.143  17.766  0.00  0.00    +0.000 A 
ATOM      9  C   UNL     1      -2.760  10.018  17.714  0.00  0.00    +0.000 A 
ATOM     10  C   UNL     1      -2.320   9.479  16.498  0.00  0.00    +0.000 A 
ATOM     11  C   UNL     1      -2.827   9.961  15.300  0.00  0.00    +0.000 A 
ATOM     12  C   UNL     1      -3.752  10.998  15.317  0.00  0.00    +0.000 A 
ATOM     13  C   UNL     1      -4.108  11.607  16.528  0.00  0.00    +0.000 A 
ENDBRANCH   7   8
BRANCH   4  14
ATOM     14  C   UNL     1      -1.954  13.475  21.931  0.00  0.00    +0.000 C 
ATOM     15  C   UNL     1      -0.730  12.568  22.154  0.00  0.00    +0.000 C 
ATOM     16  C   UNL     1       0.150  13.832  22.233  0.00  0.00    +0.000 C 
ATOM     17  C   UNL     1      -0.986  14.638  21.580  0.00  0.00    +0.000 C 
ENDBRANCH   4  14
BRANCH   1  18
ATOM     18  C   UNL     1      -6.324  10.876  18.950  0.00  0.00    +0.000 C 
ATOM     19  O   UNL     1      -7.111  11.244  18.094  0.00  0.00    +0.000 OA
BRANCH  18  20
ATOM     20  O   UNL     1      -6.230   9.673  19.550  0.00  0.00    +0.000 OA
BRANCH  20  22
ATOM     21  C   UNL     1      -7.767   8.685  20.985  0.00  0.00    +0.000 C 
ATOM     22  C   UNL     1      -7.374   8.803  19.530  0.00  0.00    +0.000 C 
ENDBRANCH  20  22
ENDBRANCH  18  20
ENDBRANCH   1  18
BRANCH   2  23
ATOM     23  C   UNL     1      -7.087  12.546  21.278  0.00  0.00    +0.000 C 
ATOM     24  C   UNL     1      -7.915  13.661  20.649  0.00  0.00    +0.000 C 
ENDBRANCH   2  23
BRANCH   3  25
ATOM     25  C   UNL     1      -4.842  13.372  22.974  0.00  0.00    +0.000 C 
ATOM     26  O   UNL     1      -5.234  12.512  23.749  0.00  0.00    +0.000 OA
BRANCH  25  27
ATOM     27  S   UNL     1      -4.596  15.039  23.485  0.00  0.00    +0.000 S 
BRANCH  27  28
ATOM     28  C   UNL     1      -6.139  15.802  22.836  0.00  0.00    +0.000 C 
ATOM     29  C   UNL     1      -5.914  16.617  21.567  0.00  0.00    +0.000 C 
ENDBRANCH  27  28
ENDBRANCH  25  27
ENDBRANCH   3  25
TORSDOF 9
ENDMDL
MODEL 9
REMARK VINA RESULT:      -5.1      2.761      7.405
REMARK  Name = 
REMARK  13 active torsions:
REMARK  status: ('A' for Active; 'I' for Inactive)
REMARK    1  A    between atoms: C_1  and  C_2
REMARK    2  A    between atoms: C_2  and  O_3
REMARK    3  A    between atoms: O_3  and  C_4
REMARK    4  A    between atoms: C_4  and  C_6
REMARK    5  A    between atoms: C_7  and  C_8
REMARK    6  A    between atoms: C_8  and  C_9
REMARK    7  A    between atoms: C_10  and  C_11
REMARK    8  A    between atoms: C_11  and  S_13
REMARK    9  A    between atoms: S_13  and  C_14
REMARK   10  A    between atoms: C_14  and  C_15
REMARK   11  A    between atoms: C_16  and  C_17
REMARK   12  A    between atoms: N_21  and  C_22
REMARK   13  A    between atoms: C_23  and  C_24
REMARK                            x       y       z     vdW  Elec       q    Type
REMARK                         _______ _______ _______ _____ _____    ______ ____
ROOT
ATOM      1  C   UNL     1      -5.155  12.017  19.318  0.00  0.00    +0.000 A 
ATOM      2  C   UNL     1      -5.426  12.811  20.455  0.00  0.00    +0.000 A 
ATOM      3  C   UNL     1      -4.315  13.310  21.179  0.00  0.00    +0.000 A 
ATOM      4  C   UNL     1      -2.960  13.150  20.700  0.00  0.00    +0.000 A 
ATOM      5  N   UNL     1      -2.802  12.551  19.448  0.00  0.00    +0.000 N 
ATOM      6  C   UNL     1      -1.512  12.688  18.720  0.00  0.00    +0.000 C 
ATOM      7  C   UNL     1      -3.839  11.892  18.806  0.00  0.00    +0.000 A 
ENDROOT
BRANCH   7   8
ATOM      8  C   UNL     1      -3.497  11.107  17.565  0.00  0.00    +0.000 A 
ATOM      9  C   UNL     1      -2.806   9.875  17.618  0.00  0.00    +0.000 A 
ATOM     10  C   UNL     1      -2.405   9.201  16.457  0.00  0.00    +0.000 A 
ATOM     11  C   UNL     1      -2.797   9.668  15.211  0.00  0.00    +0.000 A 
ATOM     12  C   UNL     1      -3.568  10.821  15.125  0.00  0.00    +0.000 A 
ATOM     13  C   UNL     1      -3.877  11.552  16.280  0.00  0.00    +0.000 A 
ENDBRANCH   7   8
BRANCH   4  14
ATOM     14  C   UNL     1      -1.667  13.527  21.606  0.00  0.00    +0.000 C 
ATOM     15  C   UNL     1      -1.326  14.979  21.989  0.00  0.00    +0.000 C 
ATOM     16  C   UNL     1      -0.732  14.456  23.312  0.00  0.00    +0.000 C 
ATOM     17  C   UNL     1      -1.473  13.125  23.094  0.00  0.00    +0.000 C 
ENDBRANCH   4  14
BRANCH   1  18
ATOM     18  C   UNL     1      -6.244  11.239  18.681  0.00  0.00    +0.000 C 
ATOM     19  O   UNL     1      -7.041  11.670  17.865  0.00  0.00    +0.000 OA
BRANCH  18  20
ATOM     20  O   UNL     1      -6.201  10.022  19.259  0.00  0.00    +0.000 OA
BRANCH  20  22
ATOM     21  C   UNL     1      -7.785   9.634  20.915  0.00  0.00    +0.000 C 
ATOM     22  C   UNL     1      -7.436   9.319  19.478  0.00  0.00    +0.000 C 
ENDBRANCH  20  22
ENDBRANCH  18  20
ENDBRANCH   1  18
BRANCH   2  23
ATOM     23  C   UNL     1      -6.858  13.148  20.866  0.00  0.00    +0.000 C 
ATOM     24  C   UNL     1      -7.452  14.440  20.318  0.00  0.00    +0.000 C 
ENDBRANCH   2  23
BRANCH   3  25
ATOM     25  C   UNL     1      -4.570  13.831  22.567  0.00  0.00    +0.000 C 
ATOM     26  O   UNL     1      -4.651  13.027  23.485  0.00  0.00    +0.000 OA
BRANCH  25  27
ATOM     27  S   UNL     1      -4.748  15.563  22.832  0.00  0.00    +0.000 S 
BRANCH  27  28
ATOM     28  C   UNL     1      -4.556  15.627  24.661  0.00  0.00    +0.000 C 
ATOM     29  C   UNL     1      -3.209  16.190  25.100  0.00  0.00    +0.000 C 
ENDBRANCH  27  28
ENDBRANCH  25  27
ENDBRANCH   3  25
TORSDOF 9
ENDMDL
