MODEL 1
REMARK VINA RESULT:      -8.6      0.000      0.000
REMARK  Name = 
REMARK  8 active torsions:
REMARK  status: ('A' for Active; 'I' for Inactive)
REMARK    1  A    between atoms: C_1  and  O_2
REMARK    2  A    between atoms: O_2  and  C_3
REMARK    3  A    between atoms: C_6  and  C_7
REMARK    4  A    between atoms: C_7  and  C_8
REMARK    5  A    between atoms: C_7  and  N_18
REMARK    6  A    between atoms: C_8  and  C_9
REMARK    7  A    between atoms: C_29  and  O_30
REMARK    8  A    between atoms: O_30  and  C_31
REMARK                            x       y       z     vdW  Elec       q    Type
REMARK                         _______ _______ _______ _____ _____    ______ ____
ROOT
ATOM      1  C   UNL     1       3.093   7.216  18.453  0.00  0.00    +0.000 C 
ENDROOT
BRANCH   1   2
ATOM      2  N   UNL     1       2.292   6.183  19.116  0.00  0.00    +0.000 N 
ATOM      3  C   UNL     1       2.128   6.121  20.554  0.00  0.00    +0.000 C 
ATOM      4  C   UNL     1       1.872   4.674  20.746  0.00  0.00    +0.000 A 
ATOM      5  C   UNL     1       2.256   3.834  21.770  0.00  0.00    +0.000 A 
ATOM      6  C   UNL     1       1.937   2.481  21.651  0.00  0.00    +0.000 A 
ATOM      7  C   UNL     1       1.166   2.009  20.570  0.00  0.00    +0.000 A 
ATOM      8  C   UNL     1       0.854   2.853  19.501  0.00  0.00    +0.000 A 
ATOM      9  C   UNL     1       1.312   4.155  19.582  0.00  0.00    +0.000 A 
ATOM     10  C   UNL     1       1.696   5.085  18.488  0.00  0.00    +0.000 C 
ATOM     11  O   UNL     1       1.645   4.833  17.311  0.00  0.00    +0.000 OA
ENDBRANCH   1   2
BRANCH   1  15
ATOM     12  C   UNL     1       6.457   5.536  16.255  0.00  0.00    +0.000 A 
ATOM     13  C   UNL     1       5.399   6.183  15.603  0.00  0.00    +0.000 A 
ATOM     14  C   UNL     1       4.329   6.712  16.323  0.00  0.00    +0.000 A 
ATOM     15  C   UNL     1       4.272   6.582  17.715  0.00  0.00    +0.000 A 
ATOM     16  C   UNL     1       5.322   5.902  18.362  0.00  0.00    +0.000 A 
ATOM     17  C   UNL     1       6.396   5.357  17.645  0.00  0.00    +0.000 A 
BRANCH  12  19
ATOM     18  C   UNL     1       7.358   4.783  14.200  0.00  0.00    +0.000 C 
ATOM     19  O   UNL     1       7.550   5.068  15.581  0.00  0.00    +0.000 OA
ENDBRANCH  12  19
BRANCH  17  20
ATOM     20  O   UNL     1       7.335   4.756  18.445  0.00  0.00    +0.000 OA
ATOM     21  C   UNL     1       7.911   5.563  19.467  0.00  0.00    +0.000 C 
ENDBRANCH  17  20
ENDBRANCH   1  15
BRANCH   1  22
ATOM     22  C   UNL     1       2.238   8.157  17.565  0.00  0.00    +0.000 C 
BRANCH  22  23
ATOM     23  C   UNL     1       1.409   9.078  18.449  0.00  0.00    +0.000 C 
ATOM     24  O   UNL     1       1.607   9.171  19.660  0.00  0.00    +0.000 OA
ATOM     25  N   UNL     1       0.436   9.790  17.784  0.00  0.00    +0.000 N 
ATOM     26  C   UNL     1      -0.407  10.699  18.435  0.00  0.00    +0.000 A 
ATOM     27  C   UNL     1       0.044  11.535  19.454  0.00  0.00    +0.000 A 
ATOM     28  C   UNL     1      -0.867  12.362  20.103  0.00  0.00    +0.000 A 
ATOM     29  C   UNL     1      -2.203  12.316  19.730  0.00  0.00    +0.000 A 
ATOM     30  C   UNL     1      -2.557  11.478  18.684  0.00  0.00    +0.000 A 
ATOM     31  N   UNL     1      -1.685  10.699  18.003  0.00  0.00    +0.000 NA
ATOM     32  H   UNL     1       0.015   9.379  16.961  0.00  0.00    +0.000 HD
ENDBRANCH  22  23
ENDBRANCH   1  22
TORSDOF 6
ENDMDL
MODEL 2
REMARK VINA RESULT:      -8.5      1.234      1.454
REMARK  Name = 
REMARK  8 active torsions:
REMARK  status: ('A' for Active; 'I' for Inactive)
REMARK    1  A    between atoms: C_1  and  O_2
REMARK    2  A    between atoms: O_2  and  C_3
REMARK    3  A    between atoms: C_6  and  C_7
REMARK    4  A    between atoms: C_7  and  C_8
REMARK    5  A    between atoms: C_7  and  N_18
REMARK    6  A    between atoms: C_8  and  C_9
REMARK    7  A    between atoms: C_29  and  O_30
REMARK    8  A    between atoms: O_30  and  C_31
REMARK                            x       y       z     vdW  Elec       q    Type
REMARK                         _______ _______ _______ _____ _____    ______ ____
ROOT
ATOM      1  C   UNL     1       2.929   7.313  18.583  0.00  0.00    +0.000 C 
ENDROOT
BRANCH   1   2
ATOM      2  N   UNL     1       2.186   6.225  19.222  0.00  0.00    +0.000 N 
ATOM      3  C   UNL     1       2.039   6.112  20.659  0.00  0.00    +0.000 C 
ATOM      4  C   UNL     1       1.855   4.650  20.810  0.00  0.00    +0.000 A 
ATOM      5  C   UNL     1       2.289   3.800  21.805  0.00  0.00    +0.000 A 
ATOM      6  C   UNL     1       2.034   2.437  21.649  0.00  0.00    +0.000 A 
ATOM      7  C   UNL     1       1.275   1.961  20.561  0.00  0.00    +0.000 A 
ATOM      8  C   UNL     1       0.913   2.819  19.521  0.00  0.00    +0.000 A 
ATOM      9  C   UNL     1       1.308   4.139  19.636  0.00  0.00    +0.000 A 
ATOM     10  C   UNL     1       1.637   5.118  18.567  0.00  0.00    +0.000 C 
ATOM     11  O   UNL     1       1.586   4.899  17.384  0.00  0.00    +0.000 OA
ENDBRANCH   1   2
BRANCH   1  15
ATOM     12  C   UNL     1       6.326   5.865  16.274  0.00  0.00    +0.000 A 
ATOM     13  C   UNL     1       5.287   6.594  15.680  0.00  0.00    +0.000 A 
ATOM     14  C   UNL     1       4.207   7.047  16.435  0.00  0.00    +0.000 A 
ATOM     15  C   UNL     1       4.119   6.757  17.801  0.00  0.00    +0.000 A 
ATOM     16  C   UNL     1       5.149   5.996  18.386  0.00  0.00    +0.000 A 
ATOM     17  C   UNL     1       6.234   5.527  17.632  0.00  0.00    +0.000 A 
BRANCH  12  19
ATOM     18  C   UNL     1       7.181   4.715  14.389  0.00  0.00    +0.000 C 
ATOM     19  O   UNL     1       7.429   5.467  15.572  0.00  0.00    +0.000 OA
ENDBRANCH  12  19
BRANCH  17  20
ATOM     20  O   UNL     1       7.151   4.827  18.375  0.00  0.00    +0.000 OA
ATOM     21  C   UNL     1       7.907   5.575  19.322  0.00  0.00    +0.000 C 
ENDBRANCH  17  20
ENDBRANCH   1  15
BRANCH   1  22
ATOM     22  C   UNL     1       2.018   8.249  17.746  0.00  0.00    +0.000 C 
BRANCH  22  23
ATOM     23  C   UNL     1       1.519   9.391  18.621  0.00  0.00    +0.000 C 
ATOM     24  O   UNL     1       1.861  10.557  18.428  0.00  0.00    +0.000 OA
ATOM     25  N   UNL     1       0.663   9.009  19.630  0.00  0.00    +0.000 N 
ATOM     26  C   UNL     1       0.092   9.928  20.518  0.00  0.00    +0.000 A 
ATOM     27  C   UNL     1      -0.340  11.188  20.111  0.00  0.00    +0.000 A 
ATOM     28  C   UNL     1      -0.832  12.074  21.064  0.00  0.00    +0.000 A 
ATOM     29  C   UNL     1      -0.860  11.684  22.396  0.00  0.00    +0.000 A 
ATOM     30  C   UNL     1      -0.440  10.401  22.706  0.00  0.00    +0.000 A 
ATOM     31  N   UNL     1      -0.003   9.501  21.794  0.00  0.00    +0.000 NA
ATOM     32  H   UNL     1       0.768   8.085  20.028  0.00  0.00    +0.000 HD
ENDBRANCH  22  23
ENDBRANCH   1  22
TORSDOF 6
ENDMDL
MODEL 3
REMARK VINA RESULT:      -8.3      2.441      7.172
REMARK  Name = 
REMARK  8 active torsions:
REMARK  status: ('A' for Active; 'I' for Inactive)
REMARK    1  A    between atoms: C_1  and  O_2
REMARK    2  A    between atoms: O_2  and  C_3
REMARK    3  A    between atoms: C_6  and  C_7
REMARK    4  A    between atoms: C_7  and  C_8
REMARK    5  A    between atoms: C_7  and  N_18
REMARK    6  A    between atoms: C_8  and  C_9
REMARK    7  A    between atoms: C_29  and  O_30
REMARK    8  A    between atoms: O_30  and  C_31
REMARK                            x       y       z     vdW  Elec       q    Type
REMARK                         _______ _______ _______ _____ _____    ______ ____
ROOT
ATOM      1  C   UNL     1       3.568   6.240  17.656  0.00  0.00    +0.000 C 
ENDROOT
BRANCH   1   2
ATOM      2  N   UNL     1       3.219   4.978  18.314  0.00  0.00    +0.000 N 
ATOM      3  C   UNL     1       1.884   4.416  18.276  0.00  0.00    +0.000 C 
ATOM      4  C   UNL     1       1.877   3.624  19.528  0.00  0.00    +0.000 A 
ATOM      5  C   UNL     1       0.853   3.391  20.423  0.00  0.00    +0.000 A 
ATOM      6  C   UNL     1       1.154   2.661  21.573  0.00  0.00    +0.000 A 
ATOM      7  C   UNL     1       2.432   2.100  21.764  0.00  0.00    +0.000 A 
ATOM      8  C   UNL     1       3.479   2.410  20.892  0.00  0.00    +0.000 A 
ATOM      9  C   UNL     1       3.183   3.257  19.840  0.00  0.00    +0.000 A 
ATOM     10  C   UNL     1       4.063   4.229  19.139  0.00  0.00    +0.000 C 
ATOM     11  O   UNL     1       5.227   4.416  19.386  0.00  0.00    +0.000 OA
ENDBRANCH   1   2
BRANCH   1  15
ATOM     12  C   UNL     1       1.186   9.538  19.212  0.00  0.00    +0.000 A 
ATOM     13  C   UNL     1       1.752   9.577  17.931  0.00  0.00    +0.000 A 
ATOM     14  C   UNL     1       2.513   8.513  17.451  0.00  0.00    +0.000 A 
ATOM     15  C   UNL     1       2.757   7.391  18.252  0.00  0.00    +0.000 A 
ATOM     16  C   UNL     1       2.213   7.372  19.551  0.00  0.00    +0.000 A 
ATOM     17  C   UNL     1       1.456   8.442  20.046  0.00  0.00    +0.000 A 
BRANCH  12  19
ATOM     18  C   UNL     1       0.643  11.842  19.180  0.00  0.00    +0.000 C 
ATOM     19  O   UNL     1       0.380  10.536  19.682  0.00  0.00    +0.000 OA
ENDBRANCH  12  19
BRANCH  17  20
ATOM     20  O   UNL     1       0.987   8.234  21.318  0.00  0.00    +0.000 OA
ATOM     21  C   UNL     1       1.442   9.138  22.320  0.00  0.00    +0.000 C 
ENDBRANCH  17  20
ENDBRANCH   1  15
BRANCH   1  22
ATOM     22  C   UNL     1       5.096   6.502  17.636  0.00  0.00    +0.000 C 
BRANCH  22  23
ATOM     23  C   UNL     1       5.624   6.330  16.218  0.00  0.00    +0.000 C 
ATOM     24  O   UNL     1       5.886   7.293  15.499  0.00  0.00    +0.000 OA
ATOM     25  N   UNL     1       5.782   5.021  15.820  0.00  0.00    +0.000 N 
ATOM     26  C   UNL     1       6.274   4.676  14.556  0.00  0.00    +0.000 A 
ATOM     27  C   UNL     1       7.298   5.387  13.935  0.00  0.00    +0.000 A 
ATOM     28  C   UNL     1       7.687   5.029  12.648  0.00  0.00    +0.000 A 
ATOM     29  C   UNL     1       7.030   3.984  12.013  0.00  0.00    +0.000 A 
ATOM     30  C   UNL     1       6.045   3.311  12.718  0.00  0.00    +0.000 A 
ATOM     31  N   UNL     1       5.680   3.607  13.987  0.00  0.00    +0.000 NA
ATOM     32  H   UNL     1       5.167   4.320  16.211  0.00  0.00    +0.000 HD
ENDBRANCH  22  23
ENDBRANCH   1  22
TORSDOF 6
ENDMDL
MODEL 4
REMARK VINA RESULT:      -8.2      0.972      1.019
REMARK  Name = 
REMARK  8 active torsions:
REMARK  status: ('A' for Active; 'I' for Inactive)
REMARK    1  A    between atoms: C_1  and  O_2
REMARK    2  A    between atoms: O_2  and  C_3
REMARK    3  A    between atoms: C_6  and  C_7
REMARK    4  A    between atoms: C_7  and  C_8
REMARK    5  A    between atoms: C_7  and  N_18
REMARK    6  A    between atoms: C_8  and  C_9
REMARK    7  A    between atoms: C_29  and  O_30
REMARK    8  A    between atoms: O_30  and  C_31
REMARK                            x       y       z     vdW  Elec       q    Type
REMARK                         _______ _______ _______ _____ _____    ______ ____
ROOT
ATOM      1  C   UNL     1       2.941   7.277  18.619  0.00  0.00    +0.000 C 
ENDROOT
BRANCH   1   2
ATOM      2  N   UNL     1       2.183   6.178  19.222  0.00  0.00    +0.000 N 
ATOM      3  C   UNL     1       2.000   6.044  20.653  0.00  0.00    +0.000 C 
ATOM      4  C   UNL     1       1.814   4.579  20.777  0.00  0.00    +0.000 A 
ATOM      5  C   UNL     1       2.223   3.715  21.771  0.00  0.00    +0.000 A 
ATOM      6  C   UNL     1       1.975   2.354  21.588  0.00  0.00    +0.000 A 
ATOM      7  C   UNL     1       1.246   1.893  20.474  0.00  0.00    +0.000 A 
ATOM      8  C   UNL     1       0.909   2.766  19.437  0.00  0.00    +0.000 A 
ATOM      9  C   UNL     1       1.299   4.085  19.582  0.00  0.00    +0.000 A 
ATOM     10  C   UNL     1       1.653   5.080  18.537  0.00  0.00    +0.000 C 
ATOM     11  O   UNL     1       1.633   4.878  17.349  0.00  0.00    +0.000 OA
ENDBRANCH   1   2
BRANCH   1  15
ATOM     12  C   UNL     1       6.327   5.859  16.276  0.00  0.00    +0.000 A 
ATOM     13  C   UNL     1       5.279   6.583  15.693  0.00  0.00    +0.000 A 
ATOM     14  C   UNL     1       4.202   7.026  16.459  0.00  0.00    +0.000 A 
ATOM     15  C   UNL     1       4.128   6.731  17.825  0.00  0.00    +0.000 A 
ATOM     16  C   UNL     1       5.168   5.975  18.398  0.00  0.00    +0.000 A 
ATOM     17  C   UNL     1       6.249   5.515  17.634  0.00  0.00    +0.000 A 
BRANCH  12  19
ATOM     18  C   UNL     1       7.172   4.808  14.330  0.00  0.00    +0.000 C 
ATOM     19  O   UNL     1       7.427   5.471  15.564  0.00  0.00    +0.000 OA
ENDBRANCH  12  19
BRANCH  17  20
ATOM     20  O   UNL     1       7.177   4.820  18.367  0.00  0.00    +0.000 OA
ATOM     21  C   UNL     1       7.921   5.566  19.325  0.00  0.00    +0.000 C 
ENDBRANCH  17  20
ENDBRANCH   1  15
BRANCH   1  22
ATOM     22  C   UNL     1       2.044   8.247  17.807  0.00  0.00    +0.000 C 
BRANCH  22  23
ATOM     23  C   UNL     1       1.495   9.326  18.731  0.00  0.00    +0.000 C 
ATOM     24  O   UNL     1       1.208   9.095  19.905  0.00  0.00    +0.000 OA
ATOM     25  N   UNL     1       1.353  10.565  18.146  0.00  0.00    +0.000 N 
ATOM     26  C   UNL     1       0.881  11.678  18.850  0.00  0.00    +0.000 A 
ATOM     27  C   UNL     1       1.230  11.923  20.177  0.00  0.00    +0.000 A 
ATOM     28  C   UNL     1       0.665  13.012  20.834  0.00  0.00    +0.000 A 
ATOM     29  C   UNL     1      -0.244  13.811  20.155  0.00  0.00    +0.000 A 
ATOM     30  C   UNL     1      -0.507  13.513  18.828  0.00  0.00    +0.000 A 
ATOM     31  N   UNL     1       0.063  12.490  18.149  0.00  0.00    +0.000 NA
ATOM     32  H   UNL     1       1.157  10.611  17.154  0.00  0.00    +0.000 HD
ENDBRANCH  22  23
ENDBRANCH   1  22
TORSDOF 6
ENDMDL
MODEL 5
REMARK VINA RESULT:      -8.1      3.120      9.347
REMARK  Name = 
REMARK  8 active torsions:
REMARK  status: ('A' for Active; 'I' for Inactive)
REMARK    1  A    between atoms: C_1  and  O_2
REMARK    2  A    between atoms: O_2  and  C_3
REMARK    3  A    between atoms: C_6  and  C_7
REMARK    4  A    between atoms: C_7  and  C_8
REMARK    5  A    between atoms: C_7  and  N_18
REMARK    6  A    between atoms: C_8  and  C_9
REMARK    7  A    between atoms: C_29  and  O_30
REMARK    8  A    between atoms: O_30  and  C_31
REMARK                            x       y       z     vdW  Elec       q    Type
REMARK                         _______ _______ _______ _____ _____    ______ ____
ROOT
ATOM      1  C   UNL     1       0.384  10.552  18.894  0.00  0.00    +0.000 C 
ENDROOT
BRANCH   1   2
ATOM      2  N   UNL     1       0.962  11.855  19.235  0.00  0.00    +0.000 N 
ATOM      3  C   UNL     1       1.255  12.867  18.241  0.00  0.00    +0.000 C 
ATOM      4  C   UNL     1       2.351  13.608  18.908  0.00  0.00    +0.000 A 
ATOM      5  C   UNL     1       3.475  14.201  18.372  0.00  0.00    +0.000 A 
ATOM      6  C   UNL     1       4.390  14.771  19.257  0.00  0.00    +0.000 A 
ATOM      7  C   UNL     1       4.127  14.824  20.640  0.00  0.00    +0.000 A 
ATOM      8  C   UNL     1       3.028  14.150  21.178  0.00  0.00    +0.000 A 
ATOM      9  C   UNL     1       2.218  13.470  20.287  0.00  0.00    +0.000 A 
ATOM     10  C   UNL     1       1.407  12.243  20.502  0.00  0.00    +0.000 C 
ATOM     11  O   UNL     1       1.319  11.642  21.543  0.00  0.00    +0.000 OA
ENDBRANCH   1   2
BRANCH   1  15
ATOM     12  C   UNL     1      -3.747  11.176  17.663  0.00  0.00    +0.000 A 
ATOM     13  C   UNL     1      -3.213  11.801  18.797  0.00  0.00    +0.000 A 
ATOM     14  C   UNL     1      -1.889  11.588  19.177  0.00  0.00    +0.000 A 
ATOM     15  C   UNL     1      -1.070  10.717  18.451  0.00  0.00    +0.000 A 
ATOM     16  C   UNL     1      -1.621  10.065  17.331  0.00  0.00    +0.000 A 
ATOM     17  C   UNL     1      -2.955  10.265  16.948  0.00  0.00    +0.000 A 
BRANCH  12  19
ATOM     18  C   UNL     1      -6.066  11.059  18.126  0.00  0.00    +0.000 C 
ATOM     19  O   UNL     1      -5.020  11.419  17.229  0.00  0.00    +0.000 OA
ENDBRANCH  12  19
BRANCH  17  20
ATOM     20  O   UNL     1      -3.307   9.569  15.819  0.00  0.00    +0.000 OA
ATOM     21  C   UNL     1      -3.003  10.183  14.571  0.00  0.00    +0.000 C 
ENDBRANCH  17  20
ENDBRANCH   1  15
BRANCH   1  22
ATOM     22  C   UNL     1       1.255   9.756  17.888  0.00  0.00    +0.000 C 
BRANCH  22  23
ATOM     23  C   UNL     1       1.874   8.555  18.589  0.00  0.00    +0.000 C 
ATOM     24  O   UNL     1       1.663   8.314  19.777  0.00  0.00    +0.000 OA
ATOM     25  N   UNL     1       2.676   7.773  17.788  0.00  0.00    +0.000 N 
ATOM     26  C   UNL     1       3.311   6.618  18.260  0.00  0.00    +0.000 A 
ATOM     27  C   UNL     1       2.697   5.742  19.152  0.00  0.00    +0.000 A 
ATOM     28  C   UNL     1       3.417   4.653  19.633  0.00  0.00    +0.000 A 
ATOM     29  C   UNL     1       4.732   4.481  19.224  0.00  0.00    +0.000 A 
ATOM     30  C   UNL     1       5.251   5.383  18.309  0.00  0.00    +0.000 A 
ATOM     31  N   UNL     1       4.560   6.423  17.788  0.00  0.00    +0.000 NA
ATOM     32  H   UNL     1       3.171   8.214  17.024  0.00  0.00    +0.000 HD
ENDBRANCH  22  23
ENDBRANCH   1  22
TORSDOF 6
ENDMDL
MODEL 6
REMARK VINA RESULT:      -7.8      2.375      7.308
REMARK  Name = 
REMARK  8 active torsions:
REMARK  status: ('A' for Active; 'I' for Inactive)
REMARK    1  A    between atoms: C_1  and  O_2
REMARK    2  A    between atoms: O_2  and  C_3
REMARK    3  A    between atoms: C_6  and  C_7
REMARK    4  A    between atoms: C_7  and  C_8
REMARK    5  A    between atoms: C_7  and  N_18
REMARK    6  A    between atoms: C_8  and  C_9
REMARK    7  A    between atoms: C_29  and  O_30
REMARK    8  A    between atoms: O_30  and  C_31
REMARK                            x       y       z     vdW  Elec       q    Type
REMARK                         _______ _______ _______ _____ _____    ______ ____
ROOT
ATOM      1  C   UNL     1       3.249   6.198  17.532  0.00  0.00    +0.000 C 
ENDROOT
BRANCH   1   2
ATOM      2  N   UNL     1       3.033   4.963  18.289  0.00  0.00    +0.000 N 
ATOM      3  C   UNL     1       1.829   4.166  18.164  0.00  0.00    +0.000 C 
ATOM      4  C   UNL     1       1.786   3.510  19.491  0.00  0.00    +0.000 A 
ATOM      5  C   UNL     1       0.705   3.181  20.283  0.00  0.00    +0.000 A 
ATOM      6  C   UNL     1       0.966   2.632  21.539  0.00  0.00    +0.000 A 
ATOM      7  C   UNL     1       2.283   2.334  21.941  0.00  0.00    +0.000 A 
ATOM      8  C   UNL     1       3.371   2.745  21.166  0.00  0.00    +0.000 A 
ATOM      9  C   UNL     1       3.081   3.419  19.994  0.00  0.00    +0.000 A 
ATOM     10  C   UNL     1       3.871   4.462  19.290  0.00  0.00    +0.000 C 
ATOM     11  O   UNL     1       4.943   4.881  19.646  0.00  0.00    +0.000 OA
ENDBRANCH   1   2
BRANCH   1  15
ATOM     12  C   UNL     1       1.315   9.605  19.435  0.00  0.00    +0.000 A 
ATOM     13  C   UNL     1       1.819   9.677  18.130  0.00  0.00    +0.000 A 
ATOM     14  C   UNL     1       2.438   8.577  17.538  0.00  0.00    +0.000 A 
ATOM     15  C   UNL     1       2.597   7.381  18.248  0.00  0.00    +0.000 A 
ATOM     16  C   UNL     1       2.117   7.324  19.570  0.00  0.00    +0.000 A 
ATOM     17  C   UNL     1       1.504   8.429  20.177  0.00  0.00    +0.000 A 
BRANCH  12  19
ATOM     18  C   UNL     1      -0.569  11.038  19.381  0.00  0.00    +0.000 C 
ATOM     19  O   UNL     1       0.645  10.645  20.015  0.00  0.00    +0.000 OA
ENDBRANCH  12  19
BRANCH  17  20
ATOM     20  O   UNL     1       1.077   8.180  21.457  0.00  0.00    +0.000 OA
ATOM     21  C   UNL     1       1.460   9.124  22.451  0.00  0.00    +0.000 C 
ENDBRANCH  17  20
ENDBRANCH   1  15
BRANCH   1  22
ATOM     22  C   UNL     1       4.742   6.430  17.181  0.00  0.00    +0.000 C 
BRANCH  22  23
ATOM     23  C   UNL     1       5.184   5.415  16.136  0.00  0.00    +0.000 C 
ATOM     24  O   UNL     1       5.024   4.205  16.295  0.00  0.00    +0.000 OA
ATOM     25  N   UNL     1       5.765   5.961  15.014  0.00  0.00    +0.000 N 
ATOM     26  C   UNL     1       6.213   5.178  13.943  0.00  0.00    +0.000 A 
ATOM     27  C   UNL     1       5.520   4.054  13.502  0.00  0.00    +0.000 A 
ATOM     28  C   UNL     1       6.063   3.284  12.478  0.00  0.00    +0.000 A 
ATOM     29  C   UNL     1       7.289   3.647  11.940  0.00  0.00    +0.000 A 
ATOM     30  C   UNL     1       7.893   4.799  12.418  0.00  0.00    +0.000 A 
ATOM     31  N   UNL     1       7.365   5.593  13.378  0.00  0.00    +0.000 NA
ATOM     32  H   UNL     1       6.273   6.831  15.109  0.00  0.00    +0.000 HD
ENDBRANCH  22  23
ENDBRANCH   1  22
TORSDOF 6
ENDMDL
MODEL 7
REMARK VINA RESULT:      -7.8      0.933      1.001
REMARK  Name = 
REMARK  8 active torsions:
REMARK  status: ('A' for Active; 'I' for Inactive)
REMARK    1  A    between atoms: C_1  and  O_2
REMARK    2  A    between atoms: O_2  and  C_3
REMARK    3  A    between atoms: C_6  and  C_7
REMARK    4  A    between atoms: C_7  and  C_8
REMARK    5  A    between atoms: C_7  and  N_18
REMARK    6  A    between atoms: C_8  and  C_9
REMARK    7  A    between atoms: C_29  and  O_30
REMARK    8  A    between atoms: O_30  and  C_31
REMARK                            x       y       z     vdW  Elec       q    Type
REMARK                         _______ _______ _______ _____ _____    ______ ____
ROOT
ATOM      1  C   UNL     1       3.137   7.174  18.403  0.00  0.00    +0.000 C 
ENDROOT
BRANCH   1   2
ATOM      2  N   UNL     1       2.351   6.173  19.127  0.00  0.00    +0.000 N 
ATOM      3  C   UNL     1       2.347   6.074  20.572  0.00  0.00    +0.000 C 
ATOM      4  C   UNL     1       2.019   4.641  20.755  0.00  0.00    +0.000 A 
ATOM      5  C   UNL     1       2.460   3.744  21.707  0.00  0.00    +0.000 A 
ATOM      6  C   UNL     1       2.041   2.419  21.591  0.00  0.00    +0.000 A 
ATOM      7  C   UNL     1       1.122   2.032  20.594  0.00  0.00    +0.000 A 
ATOM      8  C   UNL     1       0.748   2.929  19.590  0.00  0.00    +0.000 A 
ATOM      9  C   UNL     1       1.297   4.196  19.651  0.00  0.00    +0.000 A 
ATOM     10  C   UNL     1       1.615   5.136  18.544  0.00  0.00    +0.000 C 
ATOM     11  O   UNL     1       1.415   4.927  17.375  0.00  0.00    +0.000 OA
ENDBRANCH   1   2
BRANCH   1  15
ATOM     12  C   UNL     1       6.376   5.227  16.238  0.00  0.00    +0.000 A 
ATOM     13  C   UNL     1       5.128   4.613  16.406  0.00  0.00    +0.000 A 
ATOM     14  C   UNL     1       4.104   5.251  17.105  0.00  0.00    +0.000 A 
ATOM     15  C   UNL     1       4.310   6.509  17.682  0.00  0.00    +0.000 A 
ATOM     16  C   UNL     1       5.576   7.107  17.537  0.00  0.00    +0.000 A 
ATOM     17  C   UNL     1       6.615   6.468  16.846  0.00  0.00    +0.000 A 
BRANCH  12  19
ATOM     18  C   UNL     1       7.274   4.804  14.089  0.00  0.00    +0.000 C 
ATOM     19  O   UNL     1       7.374   4.655  15.501  0.00  0.00    +0.000 OA
ENDBRANCH  12  19
BRANCH  17  20
ATOM     20  O   UNL     1       7.766   7.212  16.785  0.00  0.00    +0.000 OA
ATOM     21  C   UNL     1       7.847   8.333  17.659  0.00  0.00    +0.000 C 
ENDBRANCH  17  20
ENDBRANCH   1  15
BRANCH   1  22
ATOM     22  C   UNL     1       2.266   8.067  17.480  0.00  0.00    +0.000 C 
BRANCH  22  23
ATOM     23  C   UNL     1       1.433   9.017  18.329  0.00  0.00    +0.000 C 
ATOM     24  O   UNL     1       1.655   9.185  19.528  0.00  0.00    +0.000 OA
ATOM     25  N   UNL     1       0.427   9.664  17.647  0.00  0.00    +0.000 N 
ATOM     26  C   UNL     1      -0.425  10.588  18.264  0.00  0.00    +0.000 A 
ATOM     27  C   UNL     1       0.026  11.492  19.222  0.00  0.00    +0.000 A 
ATOM     28  C   UNL     1      -0.893  12.332  19.844  0.00  0.00    +0.000 A 
ATOM     29  C   UNL     1      -2.235  12.231  19.505  0.00  0.00    +0.000 A 
ATOM     30  C   UNL     1      -2.589  11.326  18.518  0.00  0.00    +0.000 A 
ATOM     31  N   UNL     1      -1.712  10.531  17.863  0.00  0.00    +0.000 NA
ATOM     32  H   UNL     1      -0.001   9.195  16.859  0.00  0.00    +0.000 HD
ENDBRANCH  22  23
ENDBRANCH   1  22
TORSDOF 6
ENDMDL
MODEL 8
REMARK VINA RESULT:      -7.6      4.272      7.617
REMARK  Name = 
REMARK  8 active torsions:
REMARK  status: ('A' for Active; 'I' for Inactive)
REMARK    1  A    between atoms: C_1  and  O_2
REMARK    2  A    between atoms: O_2  and  C_3
REMARK    3  A    between atoms: C_6  and  C_7
REMARK    4  A    between atoms: C_7  and  C_8
REMARK    5  A    between atoms: C_7  and  N_18
REMARK    6  A    between atoms: C_8  and  C_9
REMARK    7  A    between atoms: C_29  and  O_30
REMARK    8  A    between atoms: O_30  and  C_31
REMARK                            x       y       z     vdW  Elec       q    Type
REMARK                         _______ _______ _______ _____ _____    ______ ____
ROOT
ATOM      1  C   UNL     1       6.130   6.094  17.565  0.00  0.00    +0.000 C 
ENDROOT
BRANCH   1   2
ATOM      2  N   UNL     1       6.347   5.212  16.416  0.00  0.00    +0.000 N 
ATOM      3  C   UNL     1       7.646   5.031  15.800  0.00  0.00    +0.000 C 
ATOM      4  C   UNL     1       7.253   4.664  14.419  0.00  0.00    +0.000 A 
ATOM      5  C   UNL     1       7.851   4.974  13.215  0.00  0.00    +0.000 A 
ATOM      6  C   UNL     1       7.213   4.554  12.048  0.00  0.00    +0.000 A 
ATOM      7  C   UNL     1       6.051   3.758  12.103  0.00  0.00    +0.000 A 
ATOM      8  C   UNL     1       5.412   3.521  13.322  0.00  0.00    +0.000 A 
ATOM      9  C   UNL     1       5.992   4.075  14.448  0.00  0.00    +0.000 A 
ATOM     10  C   UNL     1       5.349   4.539  15.705  0.00  0.00    +0.000 C 
ATOM     11  O   UNL     1       4.170   4.479  15.946  0.00  0.00    +0.000 OA
ENDBRANCH   1   2
BRANCH   1  15
ATOM     12  C   UNL     1       2.947   4.525  20.090  0.00  0.00    +0.000 A 
ATOM     13  C   UNL     1       2.941   5.849  19.633  0.00  0.00    +0.000 A 
ATOM     14  C   UNL     1       3.970   6.335  18.828  0.00  0.00    +0.000 A 
ATOM     15  C   UNL     1       5.052   5.517  18.482  0.00  0.00    +0.000 A 
ATOM     16  C   UNL     1       5.069   4.197  18.971  0.00  0.00    +0.000 A 
ATOM     17  C   UNL     1       4.045   3.703  19.790  0.00  0.00    +0.000 A 
BRANCH  12  19
ATOM     18  C   UNL     1       0.860   3.408  20.082  0.00  0.00    +0.000 C 
ATOM     19  O   UNL     1       1.919   4.003  20.824  0.00  0.00    +0.000 OA
ENDBRANCH  12  19
BRANCH  17  20
ATOM     20  O   UNL     1       4.218   2.390  20.147  0.00  0.00    +0.000 OA
ATOM     21  C   UNL     1       3.921   1.415  19.153  0.00  0.00    +0.000 C 
ENDBRANCH  17  20
ENDBRANCH   1  15
BRANCH   1  22
ATOM     22  C   UNL     1       7.447   6.451  18.303  0.00  0.00    +0.000 C 
BRANCH  22  23
ATOM     23  C   UNL     1       7.884   7.857  17.914  0.00  0.00    +0.000 C 
ATOM     24  O   UNL     1       7.716   8.301  16.779  0.00  0.00    +0.000 OA
ATOM     25  N   UNL     1       8.472   8.577  18.930  0.00  0.00    +0.000 N 
ATOM     26  C   UNL     1       8.917   9.893  18.758  0.00  0.00    +0.000 A 
ATOM     27  C   UNL     1       8.217  10.821  17.991  0.00  0.00    +0.000 A 
ATOM     28  C   UNL     1       8.757  12.090  17.807  0.00  0.00    +0.000 A 
ATOM     29  C   UNL     1       9.987  12.388  18.377  0.00  0.00    +0.000 A 
ATOM     30  C   UNL     1      10.597  11.414  19.150  0.00  0.00    +0.000 A 
ATOM     31  N   UNL     1      10.073  10.189  19.387  0.00  0.00    +0.000 NA
ATOM     32  H   UNL     1       8.985   8.075  19.643  0.00  0.00    +0.000 HD
ENDBRANCH  22  23
ENDBRANCH   1  22
TORSDOF 6
ENDMDL
MODEL 9
REMARK VINA RESULT:      -7.6      3.113      9.579
REMARK  Name = 
REMARK  8 active torsions:
REMARK  status: ('A' for Active; 'I' for Inactive)
REMARK    1  A    between atoms: C_1  and  O_2
REMARK    2  A    between atoms: O_2  and  C_3
REMARK    3  A    between atoms: C_6  and  C_7
REMARK    4  A    between atoms: C_7  and  C_8
REMARK    5  A    between atoms: C_7  and  N_18
REMARK    6  A    between atoms: C_8  and  C_9
REMARK    7  A    between atoms: C_29  and  O_30
REMARK    8  A    between atoms: O_30  and  C_31
REMARK                            x       y       z     vdW  Elec       q    Type
REMARK                         _______ _______ _______ _____ _____    ______ ____
ROOT
ATOM      1  C   UNL     1       0.074  10.664  19.021  0.00  0.00    +0.000 C 
ENDROOT
BRANCH   1   2
ATOM      2  N   UNL     1       0.745  11.934  19.309  0.00  0.00    +0.000 N 
ATOM      3  C   UNL     1       1.055  12.908  18.283  0.00  0.00    +0.000 C 
ATOM      4  C   UNL     1       2.223  13.591  18.887  0.00  0.00    +0.000 A 
ATOM      5  C   UNL     1       3.356  14.104  18.291  0.00  0.00    +0.000 A 
ATOM      6  C   UNL     1       4.342  14.632  19.124  0.00  0.00    +0.000 A 
ATOM      7  C   UNL     1       4.143  14.727  20.515  0.00  0.00    +0.000 A 
ATOM      8  C   UNL     1       3.030  14.133  21.113  0.00  0.00    +0.000 A 
ATOM      9  C   UNL     1       2.142  13.487  20.273  0.00  0.00    +0.000 A 
ATOM     10  C   UNL     1       1.267  12.317  20.548  0.00  0.00    +0.000 C 
ATOM     11  O   UNL     1       1.188  11.742  21.604  0.00  0.00    +0.000 OA
ENDBRANCH   1   2
BRANCH   1  15
ATOM     12  C   UNL     1      -4.166  11.180  18.172  0.00  0.00    +0.000 A 
ATOM     13  C   UNL     1      -3.380  10.260  17.466  0.00  0.00    +0.000 A 
ATOM     14  C   UNL     1      -2.023  10.111  17.750  0.00  0.00    +0.000 A 
ATOM     15  C   UNL     1      -1.408  10.900  18.728  0.00  0.00    +0.000 A 
ATOM     16  C   UNL     1      -2.196  11.846  19.412  0.00  0.00    +0.000 A 
ATOM     17  C   UNL     1      -3.558  12.011  19.125  0.00  0.00    +0.000 A 
BRANCH  12  19
ATOM     18  C   UNL     1      -5.920  12.375  17.122  0.00  0.00    +0.000 C 
ATOM     19  O   UNL     1      -5.511  11.300  17.961  0.00  0.00    +0.000 OA
ENDBRANCH  12  19
BRANCH  17  20
ATOM     20  O   UNL     1      -4.168  12.958  19.908  0.00  0.00    +0.000 OA
ATOM     21  C   UNL     1      -4.464  12.582  21.249  0.00  0.00    +0.000 C 
ENDBRANCH  17  20
ENDBRANCH   1  15
BRANCH   1  22
ATOM     22  C   UNL     1       0.800   9.838  17.927  0.00  0.00    +0.000 C 
BRANCH  22  23
ATOM     23  C   UNL     1       1.661   8.768  18.583  0.00  0.00    +0.000 C 
ATOM     24  O   UNL     1       1.662   8.588  19.801  0.00  0.00    +0.000 OA
ATOM     25  N   UNL     1       2.425   8.029  17.708  0.00  0.00    +0.000 N 
ATOM     26  C   UNL     1       3.262   6.991  18.133  0.00  0.00    +0.000 A 
ATOM     27  C   UNL     1       2.901   6.115  19.154  0.00  0.00    +0.000 A 
ATOM     28  C   UNL     1       3.815   5.152  19.572  0.00  0.00    +0.000 A 
ATOM     29  C   UNL     1       5.065   5.104  18.971  0.00  0.00    +0.000 A 
ATOM     30  C   UNL     1       5.325   5.993  17.941  0.00  0.00    +0.000 A 
ATOM     31  N   UNL     1       4.440   6.908  17.482  0.00  0.00    +0.000 NA
ATOM     32  H   UNL     1       2.742   8.469  16.854  0.00  0.00    +0.000 HD
ENDBRANCH  22  23
ENDBRANCH   1  22
TORSDOF 6
ENDMDL
