MODEL 1
REMARK VINA RESULT:      -9.7      0.000      0.000
REMARK  Name = 
REMARK  4 active torsions:
REMARK  status: ('A' for Active; 'I' for Inactive)
REMARK    1  A    between atoms: C_3  and  C_4
REMARK    2  A    between atoms: N_7  and  C_8
REMARK    3  A    between atoms: C_8  and  C_9
REMARK    4  A    between atoms: C_9  and  N_10
REMARK                            x       y       z     vdW  Elec       q    Type
REMARK                         _______ _______ _______ _____ _____    ______ ____
ROOT
ATOM      1  C   UNL     1       1.970   7.255  20.228  0.00  0.00    +0.000 A 
ATOM      2  N   UNL     1       2.570   7.351  19.044  0.00  0.00    +0.000 NA
ATOM      3  C   UNL     1       2.741   6.188  18.415  0.00  0.00    +0.000 A 
ATOM      4  N   UNL     1       3.805   6.152  17.553  0.00  0.00    +0.000 N 
ATOM      5  C   UNL     1       2.014   5.053  18.810  0.00  0.00    +0.000 A 
ATOM      6  C   UNL     1       1.478   4.019  17.999  0.00  0.00    +0.000 A 
ATOM      7  C   UNL     1       1.053   2.829  18.586  0.00  0.00    +0.000 A 
ATOM      8  C   UNL     1       1.307   2.634  19.935  0.00  0.00    +0.000 A 
ATOM      9  C   UNL     1       1.697   3.726  20.726  0.00  0.00    +0.000 A 
ATOM     10  C   UNL     1       1.863   4.994  20.175  0.00  0.00    +0.000 A 
ATOM     11  N   UNL     1       1.824   6.117  20.915  0.00  0.00    +0.000 NA
ATOM     12  H   UNL     1       4.352   7.002  17.557  0.00  0.00    +0.000 HD
ENDROOT
BRANCH   1  15
ATOM     13  F   UNL     1       1.316   9.890  18.763  0.00  0.00    +0.000 F 
ATOM     14  C   UNL     1       0.877   9.569  19.948  0.00  0.00    +0.000 A 
ATOM     15  C   UNL     1       1.125   8.380  20.589  0.00  0.00    +0.000 A 
ATOM     16  N   UNL     1       0.528   8.503  21.833  0.00  0.00    +0.000 N 
ATOM     17  C   UNL     1      -0.079   9.738  21.976  0.00  0.00    +0.000 A 
ATOM     18  C   UNL     1      -0.776  10.297  23.054  0.00  0.00    +0.000 A 
ATOM     19  C   UNL     1      -1.257  11.609  22.905  0.00  0.00    +0.000 A 
ATOM     20  C   UNL     1      -1.038  12.326  21.730  0.00  0.00    +0.000 A 
ATOM     21  C   UNL     1      -0.348  11.751  20.659  0.00  0.00    +0.000 A 
ATOM     22  C   UNL     1       0.136  10.430  20.783  0.00  0.00    +0.000 A 
ATOM     23  H   UNL     1       0.595   7.801  22.558  0.00  0.00    +0.000 HD
ENDBRANCH   1  15
BRANCH   4  24
ATOM     24  C   UNL     1       4.352   4.936  16.976  0.00  0.00    +0.000 C 
BRANCH  24  25
ATOM     25  C   UNL     1       5.488   4.341  17.839  0.00  0.00    +0.000 C 
BRANCH  25  26
ATOM     26  N   UNL     1       6.825   4.690  17.324  0.00  0.00    +0.000 NA
ATOM     27  C   UNL     1       7.847   4.851  18.365  0.00  0.00    +0.000 C 
ATOM     28  C   UNL     1       7.818   6.319  18.733  0.00  0.00    +0.000 C 
ATOM     29  C   UNL     1       7.516   7.004  17.416  0.00  0.00    +0.000 C 
ATOM     30  C   UNL     1       6.802   5.955  16.572  0.00  0.00    +0.000 C 
ENDBRANCH  25  26
ENDBRANCH  24  25
ENDBRANCH   4  24
TORSDOF 4
ENDMDL
MODEL 2
REMARK VINA RESULT:      -9.4      1.107      1.462
REMARK  Name = 
REMARK  4 active torsions:
REMARK  status: ('A' for Active; 'I' for Inactive)
REMARK    1  A    between atoms: C_3  and  C_4
REMARK    2  A    between atoms: N_7  and  C_8
REMARK    3  A    between atoms: C_8  and  C_9
REMARK    4  A    between atoms: C_9  and  N_10
REMARK                            x       y       z     vdW  Elec       q    Type
REMARK                         _______ _______ _______ _____ _____    ______ ____
ROOT
ATOM      1  C   UNL     1       2.078   7.450  19.984  0.00  0.00    +0.000 A 
ATOM      2  N   UNL     1       2.698   7.438  18.807  0.00  0.00    +0.000 NA
ATOM      3  C   UNL     1       2.815   6.228  18.256  0.00  0.00    +0.000 A 
ATOM      4  N   UNL     1       3.887   6.080  17.416  0.00  0.00    +0.000 N 
ATOM      5  C   UNL     1       2.023   5.162  18.710  0.00  0.00    +0.000 A 
ATOM      6  C   UNL     1       1.442   4.107  17.959  0.00  0.00    +0.000 A 
ATOM      7  C   UNL     1       0.946   2.982  18.614  0.00  0.00    +0.000 A 
ATOM      8  C   UNL     1       1.171   2.861  19.976  0.00  0.00    +0.000 A 
ATOM      9  C   UNL     1       1.609   3.980  20.702  0.00  0.00    +0.000 A 
ATOM     10  C   UNL     1       1.850   5.199  20.074  0.00  0.00    +0.000 A 
ATOM     11  N   UNL     1       1.861   6.368  20.740  0.00  0.00    +0.000 NA
ATOM     12  H   UNL     1       4.479   6.899  17.375  0.00  0.00    +0.000 HD
ENDROOT
BRANCH   1  15
ATOM     13  F   UNL     1       1.194   8.768  22.630  0.00  0.00    +0.000 F 
ATOM     14  C   UNL     1       0.864   9.191  21.442  0.00  0.00    +0.000 A 
ATOM     15  C   UNL     1       1.289   8.639  20.258  0.00  0.00    +0.000 A 
ATOM     16  N   UNL     1       0.643   9.357  19.265  0.00  0.00    +0.000 N 
ATOM     17  C   UNL     1      -0.171  10.337  19.806  0.00  0.00    +0.000 A 
ATOM     18  C   UNL     1      -1.012  11.273  19.191  0.00  0.00    +0.000 A 
ATOM     19  C   UNL     1      -1.749  12.130  20.026  0.00  0.00    +0.000 A 
ATOM     20  C   UNL     1      -1.651  12.041  21.414  0.00  0.00    +0.000 A 
ATOM     21  C   UNL     1      -0.800  11.107  22.013  0.00  0.00    +0.000 A 
ATOM     22  C   UNL     1      -0.043  10.242  21.193  0.00  0.00    +0.000 A 
ATOM     23  H   UNL     1       0.712   9.139  18.280  0.00  0.00    +0.000 HD
ENDBRANCH   1  15
BRANCH   4  24
ATOM     24  C   UNL     1       4.375   4.803  16.928  0.00  0.00    +0.000 C 
BRANCH  24  25
ATOM     25  C   UNL     1       5.520   4.243  17.802  0.00  0.00    +0.000 C 
BRANCH  25  26
ATOM     26  N   UNL     1       6.850   4.625  17.295  0.00  0.00    +0.000 NA
ATOM     27  C   UNL     1       7.860   4.820  18.344  0.00  0.00    +0.000 C 
ATOM     28  C   UNL     1       7.788   6.289  18.701  0.00  0.00    +0.000 C 
ATOM     29  C   UNL     1       7.478   6.958  17.378  0.00  0.00    +0.000 C 
ATOM     30  C   UNL     1       6.800   5.884  16.535  0.00  0.00    +0.000 C 
ENDBRANCH  25  26
ENDBRANCH  24  25
ENDBRANCH   4  24
TORSDOF 4
ENDMDL
MODEL 3
REMARK VINA RESULT:      -9.0      2.099      2.723
REMARK  Name = 
REMARK  4 active torsions:
REMARK  status: ('A' for Active; 'I' for Inactive)
REMARK    1  A    between atoms: C_3  and  C_4
REMARK    2  A    between atoms: N_7  and  C_8
REMARK    3  A    between atoms: C_8  and  C_9
REMARK    4  A    between atoms: C_9  and  N_10
REMARK                            x       y       z     vdW  Elec       q    Type
REMARK                         _______ _______ _______ _____ _____    ______ ____
ROOT
ATOM      1  C   UNL     1       3.048   6.532  19.362  0.00  0.00    +0.000 A 
ATOM      2  N   UNL     1       3.822   6.632  18.284  0.00  0.00    +0.000 NA
ATOM      3  C   UNL     1       4.114   5.467  17.704  0.00  0.00    +0.000 A 
ATOM      4  N   UNL     1       5.299   5.448  17.017  0.00  0.00    +0.000 N 
ATOM      5  C   UNL     1       3.359   4.319  17.996  0.00  0.00    +0.000 A 
ATOM      6  C   UNL     1       2.977   3.265  17.125  0.00  0.00    +0.000 A 
ATOM      7  C   UNL     1       2.492   2.071  17.654  0.00  0.00    +0.000 A 
ATOM      8  C   UNL     1       2.538   1.895  19.029  0.00  0.00    +0.000 A 
ATOM      9  C   UNL     1       2.777   3.002  19.857  0.00  0.00    +0.000 A 
ATOM     10  C   UNL     1       2.999   4.269  19.322  0.00  0.00    +0.000 A 
ATOM     11  N   UNL     1       2.821   5.397  20.033  0.00  0.00    +0.000 NA
ATOM     12  H   UNL     1       5.820   6.311  17.096  0.00  0.00    +0.000 HD
ENDROOT
BRANCH   1  15
ATOM     13  F   UNL     1       1.940   8.680  17.444  0.00  0.00    +0.000 F 
ATOM     14  C   UNL     1       1.682   8.618  18.721  0.00  0.00    +0.000 A 
ATOM     15  C   UNL     1       2.132   7.640  19.574  0.00  0.00    +0.000 A 
ATOM     16  N   UNL     1       1.677   8.010  20.828  0.00  0.00    +0.000 N 
ATOM     17  C   UNL     1       0.959   9.191  20.771  0.00  0.00    +0.000 A 
ATOM     18  C   UNL     1       0.337   9.936  21.782  0.00  0.00    +0.000 A 
ATOM     19  C   UNL     1      -0.299  11.131  21.408  0.00  0.00    +0.000 A 
ATOM     20  C   UNL     1      -0.300  11.562  20.082  0.00  0.00    +0.000 A 
ATOM     21  C   UNL     1       0.318  10.803  19.084  0.00  0.00    +0.000 A 
ATOM     22  C   UNL     1       0.955   9.593  19.435  0.00  0.00    +0.000 A 
ATOM     23  H   UNL     1       1.906   7.510  21.677  0.00  0.00    +0.000 HD
ENDBRANCH   1  15
BRANCH   4  24
ATOM     24  C   UNL     1       5.955   4.240  16.548  0.00  0.00    +0.000 C 
BRANCH  24  25
ATOM     25  C   UNL     1       7.075   4.543  15.528  0.00  0.00    +0.000 C 
BRANCH  25  26
ATOM     26  N   UNL     1       6.552   5.115  14.274  0.00  0.00    +0.000 NA
ATOM     27  C   UNL     1       5.408   4.387  13.713  0.00  0.00    +0.000 C 
ATOM     28  C   UNL     1       6.006   3.365  12.770  0.00  0.00    +0.000 C 
ATOM     29  C   UNL     1       7.205   4.084  12.188  0.00  0.00    +0.000 C 
ATOM     30  C   UNL     1       7.579   5.141  13.221  0.00  0.00    +0.000 C 
ENDBRANCH  25  26
ENDBRANCH  24  25
ENDBRANCH   4  24
TORSDOF 4
ENDMDL
MODEL 4
REMARK VINA RESULT:      -8.9      1.768      2.515
REMARK  Name = 
REMARK  4 active torsions:
REMARK  status: ('A' for Active; 'I' for Inactive)
REMARK    1  A    between atoms: C_3  and  C_4
REMARK    2  A    between atoms: N_7  and  C_8
REMARK    3  A    between atoms: C_8  and  C_9
REMARK    4  A    between atoms: C_9  and  N_10
REMARK                            x       y       z     vdW  Elec       q    Type
REMARK                         _______ _______ _______ _____ _____    ______ ____
ROOT
ATOM      1  C   UNL     1       2.267   7.097  19.826  0.00  0.00    +0.000 A 
ATOM      2  N   UNL     1       2.892   6.921  18.664  0.00  0.00    +0.000 NA
ATOM      3  C   UNL     1       2.920   5.658  18.238  0.00  0.00    +0.000 A 
ATOM      4  N   UNL     1       3.982   5.347  17.431  0.00  0.00    +0.000 N 
ATOM      5  C   UNL     1       2.046   4.705  18.784  0.00  0.00    +0.000 A 
ATOM      6  C   UNL     1       1.391   3.627  18.132  0.00  0.00    +0.000 A 
ATOM      7  C   UNL     1       0.807   2.612  18.888  0.00  0.00    +0.000 A 
ATOM      8  C   UNL     1       1.013   2.612  20.258  0.00  0.00    +0.000 A 
ATOM      9  C   UNL     1       1.531   3.761  20.877  0.00  0.00    +0.000 A 
ATOM     10  C   UNL     1       1.868   4.890  20.135  0.00  0.00    +0.000 A 
ATOM     11  N   UNL     1       1.965   6.115  20.682  0.00  0.00    +0.000 NA
ATOM     12  H   UNL     1       4.635   6.111  17.317  0.00  0.00    +0.000 HD
ENDROOT
BRANCH   1  15
ATOM     13  F   UNL     1       1.175   8.573  22.305  0.00  0.00    +0.000 F 
ATOM     14  C   UNL     1       1.047   8.989  21.077  0.00  0.00    +0.000 A 
ATOM     15  C   UNL     1       1.570   8.363  19.970  0.00  0.00    +0.000 A 
ATOM     16  N   UNL     1       1.134   9.109  18.888  0.00  0.00    +0.000 N 
ATOM     17  C   UNL     1       0.356  10.177  19.297  0.00  0.00    +0.000 A 
ATOM     18  C   UNL     1      -0.301  11.170  18.558  0.00  0.00    +0.000 A 
ATOM     19  C   UNL     1      -1.054  12.118  19.271  0.00  0.00    +0.000 A 
ATOM     20  C   UNL     1      -1.149  12.062  20.662  0.00  0.00    +0.000 A 
ATOM     21  C   UNL     1      -0.481  11.070  21.385  0.00  0.00    +0.000 A 
ATOM     22  C   UNL     1       0.289  10.113  20.690  0.00  0.00    +0.000 A 
ATOM     23  H   UNL     1       1.311   8.855  17.925  0.00  0.00    +0.000 HD
ENDBRANCH   1  15
BRANCH   4  24
ATOM     24  C   UNL     1       4.375   3.994  17.078  0.00  0.00    +0.000 C 
BRANCH  24  25
ATOM     25  C   UNL     1       5.693   3.960  16.272  0.00  0.00    +0.000 C 
BRANCH  25  26
ATOM     26  N   UNL     1       5.664   4.870  15.112  0.00  0.00    +0.000 NA
ATOM     27  C   UNL     1       5.072   4.284  13.903  0.00  0.00    +0.000 C 
ATOM     28  C   UNL     1       6.230   3.670  13.147  0.00  0.00    +0.000 C 
ATOM     29  C   UNL     1       7.375   4.623  13.422  0.00  0.00    +0.000 C 
ATOM     30  C   UNL     1       7.017   5.311  14.735  0.00  0.00    +0.000 C 
ENDBRANCH  25  26
ENDBRANCH  24  25
ENDBRANCH   4  24
TORSDOF 4
ENDMDL
MODEL 5
REMARK VINA RESULT:      -8.9      1.031      1.558
REMARK  Name = 
REMARK  4 active torsions:
REMARK  status: ('A' for Active; 'I' for Inactive)
REMARK    1  A    between atoms: C_3  and  C_4
REMARK    2  A    between atoms: N_7  and  C_8
REMARK    3  A    between atoms: C_8  and  C_9
REMARK    4  A    between atoms: C_9  and  N_10
REMARK                            x       y       z     vdW  Elec       q    Type
REMARK                         _______ _______ _______ _____ _____    ______ ____
ROOT
ATOM      1  C   UNL     1       1.758   7.379  20.415  0.00  0.00    +0.000 A 
ATOM      2  N   UNL     1       2.471   7.530  19.302  0.00  0.00    +0.000 NA
ATOM      3  C   UNL     1       2.731   6.393  18.654  0.00  0.00    +0.000 A 
ATOM      4  N   UNL     1       3.876   6.409  17.902  0.00  0.00    +0.000 N 
ATOM      5  C   UNL     1       1.995   5.231  18.935  0.00  0.00    +0.000 A 
ATOM      6  C   UNL     1       1.566   4.216  18.040  0.00  0.00    +0.000 A 
ATOM      7  C   UNL     1       1.113   2.997  18.541  0.00  0.00    +0.000 A 
ATOM      8  C   UNL     1       1.235   2.759  19.901  0.00  0.00    +0.000 A 
ATOM      9  C   UNL     1       1.520   3.829  20.764  0.00  0.00    +0.000 A 
ATOM     10  C   UNL     1       1.710   5.119  20.276  0.00  0.00    +0.000 A 
ATOM     11  N   UNL     1       1.571   6.214  21.045  0.00  0.00    +0.000 NA
ATOM     12  H   UNL     1       4.400   7.270  17.989  0.00  0.00    +0.000 HD
ENDROOT
BRANCH   1  15
ATOM     13  F   UNL     1       0.771   9.773  18.739  0.00  0.00    +0.000 F 
ATOM     14  C   UNL     1       0.459   9.560  19.987  0.00  0.00    +0.000 A 
ATOM     15  C   UNL     1       0.855   8.473  20.727  0.00  0.00    +0.000 A 
ATOM     16  N   UNL     1       0.355   8.695  22.000  0.00  0.00    +0.000 N 
ATOM     17  C   UNL     1      -0.339   9.890  22.063  0.00  0.00    +0.000 A 
ATOM     18  C   UNL     1      -0.989  10.518  23.133  0.00  0.00    +0.000 A 
ATOM     19  C   UNL     1      -1.588  11.764  22.888  0.00  0.00    +0.000 A 
ATOM     20  C   UNL     1      -1.525  12.356  21.626  0.00  0.00    +0.000 A 
ATOM     21  C   UNL     1      -0.880  11.713  20.566  0.00  0.00    +0.000 A 
ATOM     22  C   UNL     1      -0.280  10.454  20.788  0.00  0.00    +0.000 A 
ATOM     23  H   UNL     1       0.539   8.088  22.787  0.00  0.00    +0.000 HD
ENDBRANCH   1  15
BRANCH   4  24
ATOM     24  C   UNL     1       4.506   5.226  17.342  0.00  0.00    +0.000 C 
BRANCH  24  25
ATOM     25  C   UNL     1       6.047   5.338  17.325  0.00  0.00    +0.000 C 
BRANCH  25  26
ATOM     26  N   UNL     1       6.673   4.325  16.456  0.00  0.00    +0.000 NA
ATOM     27  C   UNL     1       7.546   4.883  15.415  0.00  0.00    +0.000 C 
ATOM     28  C   UNL     1       6.653   5.085  14.210  0.00  0.00    +0.000 C 
ATOM     29  C   UNL     1       5.691   3.918  14.285  0.00  0.00    +0.000 C 
ATOM     30  C   UNL     1       5.664   3.515  15.755  0.00  0.00    +0.000 C 
ENDBRANCH  25  26
ENDBRANCH  24  25
ENDBRANCH   4  24
TORSDOF 4
ENDMDL
MODEL 6
REMARK VINA RESULT:      -8.8      1.609      2.196
REMARK  Name = 
REMARK  4 active torsions:
REMARK  status: ('A' for Active; 'I' for Inactive)
REMARK    1  A    between atoms: C_3  and  C_4
REMARK    2  A    between atoms: N_7  and  C_8
REMARK    3  A    between atoms: C_8  and  C_9
REMARK    4  A    between atoms: C_9  and  N_10
REMARK                            x       y       z     vdW  Elec       q    Type
REMARK                         _______ _______ _______ _____ _____    ______ ____
ROOT
ATOM      1  C   UNL     1       2.271   7.146  19.667  0.00  0.00    +0.000 A 
ATOM      2  N   UNL     1       2.918   6.931  18.524  0.00  0.00    +0.000 NA
ATOM      3  C   UNL     1       2.962   5.652  18.146  0.00  0.00    +0.000 A 
ATOM      4  N   UNL     1       4.041   5.319  17.371  0.00  0.00    +0.000 N 
ATOM      5  C   UNL     1       2.085   4.714  18.713  0.00  0.00    +0.000 A 
ATOM      6  C   UNL     1       1.450   3.607  18.091  0.00  0.00    +0.000 A 
ATOM      7  C   UNL     1       0.859   2.618  18.874  0.00  0.00    +0.000 A 
ATOM      8  C   UNL     1       1.041   2.671  20.248  0.00  0.00    +0.000 A 
ATOM      9  C   UNL     1       1.539   3.846  20.830  0.00  0.00    +0.000 A 
ATOM     10  C   UNL     1       1.882   4.949  20.052  0.00  0.00    +0.000 A 
ATOM     11  N   UNL     1       1.960   6.195  20.554  0.00  0.00    +0.000 NA
ATOM     12  H   UNL     1       4.691   6.083  17.240  0.00  0.00    +0.000 HD
ENDROOT
BRANCH   1  15
ATOM     13  F   UNL     1       1.737   9.347  17.572  0.00  0.00    +0.000 F 
ATOM     14  C   UNL     1       1.370   9.405  18.821  0.00  0.00    +0.000 A 
ATOM     15  C   UNL     1       1.562   8.411  19.750  0.00  0.00    +0.000 A 
ATOM     16  N   UNL     1       1.084   8.928  20.943  0.00  0.00    +0.000 N 
ATOM     17  C   UNL     1       0.603  10.214  20.774  0.00  0.00    +0.000 A 
ATOM     18  C   UNL     1       0.051  11.114  21.694  0.00  0.00    +0.000 A 
ATOM     19  C   UNL     1      -0.322  12.382  21.217  0.00  0.00    +0.000 A 
ATOM     20  C   UNL     1      -0.137  12.730  19.879  0.00  0.00    +0.000 A 
ATOM     21  C   UNL     1       0.409  11.817  18.972  0.00  0.00    +0.000 A 
ATOM     22  C   UNL     1       0.781  10.533  19.427  0.00  0.00    +0.000 A 
ATOM     23  H   UNL     1       1.147   8.443  21.828  0.00  0.00    +0.000 HD
ENDBRANCH   1  15
BRANCH   4  24
ATOM     24  C   UNL     1       4.450   3.957  17.077  0.00  0.00    +0.000 C 
BRANCH  24  25
ATOM     25  C   UNL     1       5.748   3.904  16.240  0.00  0.00    +0.000 C 
BRANCH  25  26
ATOM     26  N   UNL     1       5.708   4.822  15.086  0.00  0.00    +0.000 NA
ATOM     27  C   UNL     1       5.069   4.257  13.891  0.00  0.00    +0.000 C 
ATOM     28  C   UNL     1       6.192   3.621  13.099  0.00  0.00    +0.000 C 
ATOM     29  C   UNL     1       7.365   4.546  13.349  0.00  0.00    +0.000 C 
ATOM     30  C   UNL     1       7.059   5.234  14.674  0.00  0.00    +0.000 C 
ENDBRANCH  25  26
ENDBRANCH  24  25
ENDBRANCH   4  24
TORSDOF 4
ENDMDL
MODEL 7
REMARK VINA RESULT:      -8.8      2.089      2.534
REMARK  Name = 
REMARK  4 active torsions:
REMARK  status: ('A' for Active; 'I' for Inactive)
REMARK    1  A    between atoms: C_3  and  C_4
REMARK    2  A    between atoms: N_7  and  C_8
REMARK    3  A    between atoms: C_8  and  C_9
REMARK    4  A    between atoms: C_9  and  N_10
REMARK                            x       y       z     vdW  Elec       q    Type
REMARK                         _______ _______ _______ _____ _____    ______ ____
ROOT
ATOM      1  C   UNL     1       2.824   6.581  19.574  0.00  0.00    +0.000 A 
ATOM      2  N   UNL     1       3.360   6.752  18.368  0.00  0.00    +0.000 NA
ATOM      3  C   UNL     1       3.594   5.620  17.702  0.00  0.00    +0.000 A 
ATOM      4  N   UNL     1       4.616   5.689  16.793  0.00  0.00    +0.000 N 
ATOM      5  C   UNL     1       2.977   4.423  18.098  0.00  0.00    +0.000 A 
ATOM      6  C   UNL     1       2.488   3.367  17.285  0.00  0.00    +0.000 A 
ATOM      7  C   UNL     1       2.186   2.134  17.859  0.00  0.00    +0.000 A 
ATOM      8  C   UNL     1       2.515   1.930  19.190  0.00  0.00    +0.000 A 
ATOM      9  C   UNL     1       2.854   3.031  19.991  0.00  0.00    +0.000 A 
ATOM     10  C   UNL     1       2.894   4.320  19.467  0.00  0.00    +0.000 A 
ATOM     11  N   UNL     1       2.800   5.420  20.237  0.00  0.00    +0.000 NA
ATOM     12  H   UNL     1       5.094   6.580  16.795  0.00  0.00    +0.000 HD
ENDROOT
BRANCH   1  15
ATOM     13  F   UNL     1       1.665   9.030  18.097  0.00  0.00    +0.000 F 
ATOM     14  C   UNL     1       1.436   8.738  19.347  0.00  0.00    +0.000 A 
ATOM     15  C   UNL     1       1.909   7.626  20.001  0.00  0.00    +0.000 A 
ATOM     16  N   UNL     1       1.481   7.761  21.311  0.00  0.00    +0.000 N 
ATOM     17  C   UNL     1       0.757   8.928  21.483  0.00  0.00    +0.000 A 
ATOM     18  C   UNL     1       0.156   9.474  22.624  0.00  0.00    +0.000 A 
ATOM     19  C   UNL     1      -0.493  10.712  22.485  0.00  0.00    +0.000 A 
ATOM     20  C   UNL     1      -0.526  11.373  21.258  0.00  0.00    +0.000 A 
ATOM     21  C   UNL     1       0.072  10.811  20.126  0.00  0.00    +0.000 A 
ATOM     22  C   UNL     1       0.722   9.563  20.240  0.00  0.00    +0.000 A 
ATOM     23  H   UNL     1       1.731   7.118  22.051  0.00  0.00    +0.000 HD
ENDBRANCH   1  15
BRANCH   4  24
ATOM     24  C   UNL     1       5.231   4.535  16.162  0.00  0.00    +0.000 C 
BRANCH  24  25
ATOM     25  C   UNL     1       5.368   4.709  14.633  0.00  0.00    +0.000 C 
BRANCH  25  26
ATOM     26  N   UNL     1       6.528   3.981  14.087  0.00  0.00    +0.000 NA
ATOM     27  C   UNL     1       7.733   4.805  13.927  0.00  0.00    +0.000 C 
ATOM     28  C   UNL     1       7.660   5.352  12.517  0.00  0.00    +0.000 C 
ATOM     29  C   UNL     1       7.025   4.222  11.734  0.00  0.00    +0.000 C 
ATOM     30  C   UNL     1       6.238   3.415  12.760  0.00  0.00    +0.000 C 
ENDBRANCH  25  26
ENDBRANCH  24  25
ENDBRANCH   4  24
TORSDOF 4
ENDMDL
MODEL 8
REMARK VINA RESULT:      -8.7      1.238      1.600
REMARK  Name = 
REMARK  4 active torsions:
REMARK  status: ('A' for Active; 'I' for Inactive)
REMARK    1  A    between atoms: C_3  and  C_4
REMARK    2  A    between atoms: N_7  and  C_8
REMARK    3  A    between atoms: C_8  and  C_9
REMARK    4  A    between atoms: C_9  and  N_10
REMARK                            x       y       z     vdW  Elec       q    Type
REMARK                         _______ _______ _______ _____ _____    ______ ____
ROOT
ATOM      1  C   UNL     1       2.078   7.289  19.994  0.00  0.00    +0.000 A 
ATOM      2  N   UNL     1       2.849   7.153  18.918  0.00  0.00    +0.000 NA
ATOM      3  C   UNL     1       2.987   5.896  18.493  0.00  0.00    +0.000 A 
ATOM      4  N   UNL     1       4.154   5.641  17.822  0.00  0.00    +0.000 N 
ATOM      5  C   UNL     1       2.096   4.900  18.922  0.00  0.00    +0.000 A 
ATOM      6  C   UNL     1       1.577   3.800  18.189  0.00  0.00    +0.000 A 
ATOM      7  C   UNL     1       0.950   2.753  18.863  0.00  0.00    +0.000 A 
ATOM      8  C   UNL     1       0.985   2.748  20.249  0.00  0.00    +0.000 A 
ATOM      9  C   UNL     1       1.370   3.913  20.931  0.00  0.00    +0.000 A 
ATOM     10  C   UNL     1       1.744   5.063  20.242  0.00  0.00    +0.000 A 
ATOM     11  N   UNL     1       1.717   6.286  20.802  0.00  0.00    +0.000 NA
ATOM     12  H   UNL     1       4.780   6.434  17.794  0.00  0.00    +0.000 HD
ENDROOT
BRANCH   1  15
ATOM     13  F   UNL     1       1.516   9.471  17.887  0.00  0.00    +0.000 F 
ATOM     14  C   UNL     1       1.106   9.509  19.124  0.00  0.00    +0.000 A 
ATOM     15  C   UNL     1       1.311   8.522  20.057  0.00  0.00    +0.000 A 
ATOM     16  N   UNL     1       0.772   9.012  21.235  0.00  0.00    +0.000 N 
ATOM     17  C   UNL     1       0.240  10.276  21.052  0.00  0.00    +0.000 A 
ATOM     18  C   UNL     1      -0.381  11.148  21.955  0.00  0.00    +0.000 A 
ATOM     19  C   UNL     1      -0.794  12.400  21.468  0.00  0.00    +0.000 A 
ATOM     20  C   UNL     1      -0.581  12.760  20.138  0.00  0.00    +0.000 A 
ATOM     21  C   UNL     1       0.033  11.875  19.248  0.00  0.00    +0.000 A 
ATOM     22  C   UNL     1       0.448  10.608  19.713  0.00  0.00    +0.000 A 
ATOM     23  H   UNL     1       0.828   8.528  22.121  0.00  0.00    +0.000 HD
ENDBRANCH   1  15
BRANCH   4  24
ATOM     24  C   UNL     1       4.648   4.311  17.515  0.00  0.00    +0.000 C 
BRANCH  24  25
ATOM     25  C   UNL     1       4.665   4.031  15.995  0.00  0.00    +0.000 C 
BRANCH  25  26
ATOM     26  N   UNL     1       5.996   3.611  15.518  0.00  0.00    +0.000 NA
ATOM     27  C   UNL     1       7.115   4.277  16.195  0.00  0.00    +0.000 C 
ATOM     28  C   UNL     1       7.417   5.503  15.359  0.00  0.00    +0.000 C 
ATOM     29  C   UNL     1       7.148   5.037  13.943  0.00  0.00    +0.000 C 
ATOM     30  C   UNL     1       6.166   3.879  14.081  0.00  0.00    +0.000 C 
ENDBRANCH  25  26
ENDBRANCH  24  25
ENDBRANCH   4  24
TORSDOF 4
ENDMDL
MODEL 9
REMARK VINA RESULT:      -8.6      1.513      2.126
REMARK  Name = 
REMARK  4 active torsions:
REMARK  status: ('A' for Active; 'I' for Inactive)
REMARK    1  A    between atoms: C_3  and  C_4
REMARK    2  A    between atoms: N_7  and  C_8
REMARK    3  A    between atoms: C_8  and  C_9
REMARK    4  A    between atoms: C_9  and  N_10
REMARK                            x       y       z     vdW  Elec       q    Type
REMARK                         _______ _______ _______ _____ _____    ______ ____
ROOT
ATOM      1  C   UNL     1       1.968   7.679  20.073  0.00  0.00    +0.000 A 
ATOM      2  N   UNL     1       2.607   7.677  18.906  0.00  0.00    +0.000 NA
ATOM      3  C   UNL     1       2.772   6.468  18.368  0.00  0.00    +0.000 A 
ATOM      4  N   UNL     1       3.862   6.348  17.546  0.00  0.00    +0.000 N 
ATOM      5  C   UNL     1       2.008   5.380  18.819  0.00  0.00    +0.000 A 
ATOM      6  C   UNL     1       1.474   4.300  18.067  0.00  0.00    +0.000 A 
ATOM      7  C   UNL     1       1.005   3.165  18.724  0.00  0.00    +0.000 A 
ATOM      8  C   UNL     1       1.211   3.063  20.091  0.00  0.00    +0.000 A 
ATOM      9  C   UNL     1       1.601   4.201  20.814  0.00  0.00    +0.000 A 
ATOM     10  C   UNL     1       1.812   5.422  20.179  0.00  0.00    +0.000 A 
ATOM     11  N   UNL     1       1.775   6.597  20.835  0.00  0.00    +0.000 NA
ATOM     12  H   UNL     1       4.427   7.186  17.507  0.00  0.00    +0.000 HD
ENDROOT
BRANCH   1  15
ATOM     13  F   UNL     1       0.999   8.988  22.693  0.00  0.00    +0.000 F 
ATOM     14  C   UNL     1       0.674   9.390  21.496  0.00  0.00    +0.000 A 
ATOM     15  C   UNL     1       1.137   8.843  20.324  0.00  0.00    +0.000 A 
ATOM     16  N   UNL     1       0.483   9.532  19.315  0.00  0.00    +0.000 N 
ATOM     17  C   UNL     1      -0.371  10.489  19.835  0.00  0.00    +0.000 A 
ATOM     18  C   UNL     1      -1.232  11.392  19.199  0.00  0.00    +0.000 A 
ATOM     19  C   UNL     1      -2.009  12.231  20.015  0.00  0.00    +0.000 A 
ATOM     20  C   UNL     1      -1.931  12.157  21.405  0.00  0.00    +0.000 A 
ATOM     21  C   UNL     1      -1.060  11.255  22.025  0.00  0.00    +0.000 A 
ATOM     22  C   UNL     1      -0.262  10.409  21.224  0.00  0.00    +0.000 A 
ATOM     23  H   UNL     1       0.576   9.308  18.334  0.00  0.00    +0.000 HD
ENDBRANCH   1  15
BRANCH   4  24
ATOM     24  C   UNL     1       4.399   5.083  17.077  0.00  0.00    +0.000 C 
BRANCH  24  25
ATOM     25  C   UNL     1       5.912   4.949  17.364  0.00  0.00    +0.000 C 
BRANCH  25  26
ATOM     26  N   UNL     1       6.593   4.083  16.385  0.00  0.00    +0.000 NA
ATOM     27  C   UNL     1       7.552   4.787  15.524  0.00  0.00    +0.000 C 
ATOM     28  C   UNL     1       6.759   5.211  14.306  0.00  0.00    +0.000 C 
ATOM     29  C   UNL     1       5.782   4.071  14.109  0.00  0.00    +0.000 C 
ATOM     30  C   UNL     1       5.635   3.426  15.482  0.00  0.00    +0.000 C 
ENDBRANCH  25  26
ENDBRANCH  24  25
ENDBRANCH   4  24
TORSDOF 4
ENDMDL
