MODEL 1
REMARK VINA RESULT:      -8.2      0.000      0.000
REMARK  Name = 
REMARK  9 active torsions:
REMARK  status: ('A' for Active; 'I' for Inactive)
REMARK    1  A    between atoms: C_1  and  O_2
REMARK    2  A    between atoms: O_2  and  C_3
REMARK    3  A    between atoms: C_8  and  C_9
REMARK    4  A    between atoms: N_11  and  C_12
REMARK    5  A    between atoms: C_15  and  C_16
REMARK    6  A    between atoms: C_16  and  O_18
REMARK    7  A    between atoms: O_18  and  C_19
REMARK    8  A    between atoms: C_19  and  C_20
REMARK    9  A    between atoms: C_26  and  C_27
REMARK                            x       y       z     vdW  Elec       q    Type
REMARK                         _______ _______ _______ _____ _____    ______ ____
ROOT
ATOM      1  C   UNL     1       1.556   8.803  19.841  0.00  0.00    +0.000 A 
ATOM      2  C   UNL     1       1.411   7.785  20.789  0.00  0.00    +0.000 A 
ATOM      3  C   UNL     1       1.717   6.460  20.480  0.00  0.00    +0.000 A 
ATOM      4  C   UNL     1       2.177   6.117  19.208  0.00  0.00    +0.000 A 
ATOM      5  C   UNL     1       2.383   7.132  18.265  0.00  0.00    +0.000 A 
ATOM      6  C   UNL     1       2.059   8.467  18.578  0.00  0.00    +0.000 A 
ENDROOT
BRANCH   1   9
ATOM      7  C   UNL     1       0.141  10.816  19.485  0.00  0.00    +0.000 C 
ATOM      8  O   UNL     1      -0.637  10.291  18.689  0.00  0.00    +0.000 OA
ATOM      9  N   UNL     1       1.183  10.144  20.107  0.00  0.00    +0.000 N 
ATOM     10  H   UNL     1       1.673  10.640  20.846  0.00  0.00    +0.000 HD
BRANCH   7  16
ATOM     11  C   UNL     1      -0.189  12.813  21.111  0.00  0.00    +0.000 A 
ATOM     12  C   UNL     1      -0.436  14.193  21.239  0.00  0.00    +0.000 A 
ATOM     13  C   UNL     1      -0.563  15.020  20.121  0.00  0.00    +0.000 A 
ATOM     14  C   UNL     1      -0.455  14.481  18.849  0.00  0.00    +0.000 A 
ATOM     15  C   UNL     1      -0.229  13.115  18.705  0.00  0.00    +0.000 A 
ATOM     16  C   UNL     1      -0.099  12.258  19.822  0.00  0.00    +0.000 A 
BRANCH  11  18
ATOM     17  C   UNL     1      -1.271  11.709  22.908  0.00  0.00    +0.000 C 
ATOM     18  O   UNL     1      -0.058  11.989  22.205  0.00  0.00    +0.000 OA
ENDBRANCH  11  18
ENDBRANCH   7  16
ENDBRANCH   1   9
BRANCH   4  19
ATOM     19  C   UNL     1       2.356   4.666  18.925  0.00  0.00    +0.000 C 
ATOM     20  O   UNL     1       1.674   4.061  18.110  0.00  0.00    +0.000 OA
BRANCH  19  21
ATOM     21  O   UNL     1       3.384   4.148  19.631  0.00  0.00    +0.000 OA
BRANCH  21  22
ATOM     22  C   UNL     1       4.194   3.184  18.933  0.00  0.00    +0.000 C 
BRANCH  22  23
ATOM     23  C   UNL     1       5.155   3.914  18.017  0.00  0.00    +0.000 A 
ATOM     24  C   UNL     1       6.018   4.825  18.499  0.00  0.00    +0.000 A 
ATOM     25  C   UNL     1       6.944   5.525  17.573  0.00  0.00    +0.000 A 
ATOM     26  O   UNL     1       7.719   6.369  18.020  0.00  0.00    +0.000 OA
ATOM     27  N   UNL     1       6.820   5.123  16.265  0.00  0.00    +0.000 N 
ATOM     28  N   UNL     1       7.608   5.643  15.253  0.00  0.00    +0.000 NA
ATOM     29  C   UNL     1       7.260   5.085  14.139  0.00  0.00    +0.000 A 
ATOM     30  C   UNL     1       7.890   5.369  12.817  0.00  0.00    +0.000 C 
ATOM     31  S   UNL     1       5.961   3.920  14.187  0.00  0.00    +0.000 S 
ATOM     32  C   UNL     1       5.889   4.194  15.895  0.00  0.00    +0.000 A 
ATOM     33  N   UNL     1       5.063   3.591  16.679  0.00  0.00    +0.000 NA
ENDBRANCH  22  23
ENDBRANCH  21  22
ENDBRANCH  19  21
ENDBRANCH   4  19
TORSDOF 7
ENDMDL
MODEL 2
REMARK VINA RESULT:      -8.2      4.553      7.790
REMARK  Name = 
REMARK  9 active torsions:
REMARK  status: ('A' for Active; 'I' for Inactive)
REMARK    1  A    between atoms: C_1  and  O_2
REMARK    2  A    between atoms: O_2  and  C_3
REMARK    3  A    between atoms: C_8  and  C_9
REMARK    4  A    between atoms: N_11  and  C_12
REMARK    5  A    between atoms: C_15  and  C_16
REMARK    6  A    between atoms: C_16  and  O_18
REMARK    7  A    between atoms: O_18  and  C_19
REMARK    8  A    between atoms: C_19  and  C_20
REMARK    9  A    between atoms: C_26  and  C_27
REMARK                            x       y       z     vdW  Elec       q    Type
REMARK                         _______ _______ _______ _____ _____    ______ ____
ROOT
ATOM      1  C   UNL     1       8.045   7.565  18.250  0.00  0.00    +0.000 A 
ATOM      2  C   UNL     1       7.245   7.782  17.123  0.00  0.00    +0.000 A 
ATOM      3  C   UNL     1       6.539   6.738  16.524  0.00  0.00    +0.000 A 
ATOM      4  C   UNL     1       6.618   5.443  17.038  0.00  0.00    +0.000 A 
ATOM      5  C   UNL     1       7.368   5.219  18.200  0.00  0.00    +0.000 A 
ATOM      6  C   UNL     1       8.090   6.274  18.792  0.00  0.00    +0.000 A 
ENDROOT
BRANCH   1   9
ATOM      7  C   UNL     1       8.806   9.923  18.442  0.00  0.00    +0.000 C 
ATOM      8  O   UNL     1       8.033  10.380  17.600  0.00  0.00    +0.000 OA
ATOM      9  N   UNL     1       8.828   8.592  18.831  0.00  0.00    +0.000 N 
ATOM     10  H   UNL     1       9.411   8.357  19.629  0.00  0.00    +0.000 HD
BRANCH   7  16
ATOM     11  C   UNL     1       9.743  11.252  20.466  0.00  0.00    +0.000 A 
ATOM     12  C   UNL     1      10.687  12.195  20.915  0.00  0.00    +0.000 A 
ATOM     13  C   UNL     1      11.632  12.752  20.049  0.00  0.00    +0.000 A 
ATOM     14  C   UNL     1      11.645  12.384  18.714  0.00  0.00    +0.000 A 
ATOM     15  C   UNL     1      10.706  11.467  18.251  0.00  0.00    +0.000 A 
ATOM     16  C   UNL     1       9.739  10.891  19.107  0.00  0.00    +0.000 A 
BRANCH  11  18
ATOM     17  C   UNL     1       8.287  11.572  22.309  0.00  0.00    +0.000 C 
ATOM     18  O   UNL     1       8.810  10.694  21.309  0.00  0.00    +0.000 OA
ENDBRANCH  11  18
ENDBRANCH   7  16
ENDBRANCH   1   9
BRANCH   4  19
ATOM     19  C   UNL     1       5.938   4.368  16.263  0.00  0.00    +0.000 C 
ATOM     20  O   UNL     1       6.548   3.466  15.707  0.00  0.00    +0.000 OA
BRANCH  19  21
ATOM     21  O   UNL     1       4.595   4.497  16.314  0.00  0.00    +0.000 OA
BRANCH  21  22
ATOM     22  C   UNL     1       3.924   3.642  17.257  0.00  0.00    +0.000 C 
BRANCH  22  23
ATOM     23  C   UNL     1       3.270   4.497  18.323  0.00  0.00    +0.000 A 
ATOM     24  C   UNL     1       2.963   3.988  19.530  0.00  0.00    +0.000 A 
ATOM     25  C   UNL     1       2.321   4.851  20.552  0.00  0.00    +0.000 A 
ATOM     26  O   UNL     1       2.028   4.373  21.647  0.00  0.00    +0.000 OA
ATOM     27  N   UNL     1       2.122   6.145  20.132  0.00  0.00    +0.000 N 
ATOM     28  N   UNL     1       1.554   7.108  20.946  0.00  0.00    +0.000 NA
ATOM     29  C   UNL     1       1.490   8.217  20.281  0.00  0.00    +0.000 A 
ATOM     30  C   UNL     1       0.952   9.499  20.823  0.00  0.00    +0.000 C 
ATOM     31  S   UNL     1       2.070   8.208  18.635  0.00  0.00    +0.000 S 
ATOM     32  C   UNL     1       2.465   6.540  18.869  0.00  0.00    +0.000 A 
ATOM     33  N   UNL     1       3.004   5.801  17.961  0.00  0.00    +0.000 NA
ENDBRANCH  22  23
ENDBRANCH  21  22
ENDBRANCH  19  21
ENDBRANCH   4  19
TORSDOF 7
ENDMDL
MODEL 3
REMARK VINA RESULT:      -7.8      3.918      9.898
REMARK  Name = 
REMARK  9 active torsions:
REMARK  status: ('A' for Active; 'I' for Inactive)
REMARK    1  A    between atoms: C_1  and  O_2
REMARK    2  A    between atoms: O_2  and  C_3
REMARK    3  A    between atoms: C_8  and  C_9
REMARK    4  A    between atoms: N_11  and  C_12
REMARK    5  A    between atoms: C_15  and  C_16
REMARK    6  A    between atoms: C_16  and  O_18
REMARK    7  A    between atoms: O_18  and  C_19
REMARK    8  A    between atoms: C_19  and  C_20
REMARK    9  A    between atoms: C_26  and  C_27
REMARK                            x       y       z     vdW  Elec       q    Type
REMARK                         _______ _______ _______ _____ _____    ______ ____
ROOT
ATOM      1  C   UNL     1       1.007   8.851  21.242  0.00  0.00    +0.000 A 
ATOM      2  C   UNL     1       0.662   9.959  20.463  0.00  0.00    +0.000 A 
ATOM      3  C   UNL     1      -0.221  10.930  20.935  0.00  0.00    +0.000 A 
ATOM      4  C   UNL     1      -0.786  10.815  22.206  0.00  0.00    +0.000 A 
ATOM      5  C   UNL     1      -0.407   9.742  23.022  0.00  0.00    +0.000 A 
ATOM      6  C   UNL     1       0.474   8.757  22.534  0.00  0.00    +0.000 A 
ENDROOT
BRANCH   1   9
ATOM      7  C   UNL     1       2.151   7.604  19.421  0.00  0.00    +0.000 C 
ATOM      8  O   UNL     1       1.801   8.353  18.509  0.00  0.00    +0.000 OA
ATOM      9  N   UNL     1       1.843   7.815  20.757  0.00  0.00    +0.000 N 
ATOM     10  H   UNL     1       2.298   7.210  21.434  0.00  0.00    +0.000 HD
BRANCH   7  16
ATOM     11  C   UNL     1       3.099   5.209  19.746  0.00  0.00    +0.000 A 
ATOM     12  C   UNL     1       3.966   4.213  19.254  0.00  0.00    +0.000 A 
ATOM     13  C   UNL     1       4.700   4.398  18.080  0.00  0.00    +0.000 A 
ATOM     14  C   UNL     1       4.590   5.587  17.378  0.00  0.00    +0.000 A 
ATOM     15  C   UNL     1       3.753   6.589  17.861  0.00  0.00    +0.000 A 
ATOM     16  C   UNL     1       3.001   6.426  19.048  0.00  0.00    +0.000 A 
BRANCH  11  18
ATOM     17  C   UNL     1       1.613   3.825  20.968  0.00  0.00    +0.000 C 
ATOM     18  O   UNL     1       2.368   5.038  20.898  0.00  0.00    +0.000 OA
ENDBRANCH  11  18
ENDBRANCH   7  16
ENDBRANCH   1   9
BRANCH   4  19
ATOM     19  C   UNL     1      -1.816  11.825  22.579  0.00  0.00    +0.000 C 
ATOM     20  O   UNL     1      -2.399  11.810  23.653  0.00  0.00    +0.000 OA
BRANCH  19  21
ATOM     21  O   UNL     1      -1.960  12.761  21.617  0.00  0.00    +0.000 OA
BRANCH  21  22
ATOM     22  C   UNL     1      -3.310  13.195  21.369  0.00  0.00    +0.000 C 
BRANCH  22  23
ATOM     23  C   UNL     1      -3.769  12.646  20.033  0.00  0.00    +0.000 A 
ATOM     24  C   UNL     1      -5.067  12.674  19.679  0.00  0.00    +0.000 A 
ATOM     25  C   UNL     1      -5.483  12.126  18.364  0.00  0.00    +0.000 A 
ATOM     26  O   UNL     1      -6.674  12.140  18.056  0.00  0.00    +0.000 OA
ATOM     27  N   UNL     1      -4.438  11.646  17.613  0.00  0.00    +0.000 N 
ATOM     28  N   UNL     1      -4.618  11.112  16.349  0.00  0.00    +0.000 NA
ATOM     29  C   UNL     1      -3.465  10.741  15.895  0.00  0.00    +0.000 A 
ATOM     30  C   UNL     1      -3.240  10.131  14.553  0.00  0.00    +0.000 C 
ATOM     31  S   UNL     1      -2.077  10.969  16.928  0.00  0.00    +0.000 S 
ATOM     32  C   UNL     1      -3.158  11.659  18.091  0.00  0.00    +0.000 A 
ATOM     33  N   UNL     1      -2.778  12.111  19.236  0.00  0.00    +0.000 NA
ENDBRANCH  22  23
ENDBRANCH  21  22
ENDBRANCH  19  21
ENDBRANCH   4  19
TORSDOF 7
ENDMDL
MODEL 4
REMARK VINA RESULT:      -7.8      4.610      7.905
REMARK  Name = 
REMARK  9 active torsions:
REMARK  status: ('A' for Active; 'I' for Inactive)
REMARK    1  A    between atoms: C_1  and  O_2
REMARK    2  A    between atoms: O_2  and  C_3
REMARK    3  A    between atoms: C_8  and  C_9
REMARK    4  A    between atoms: N_11  and  C_12
REMARK    5  A    between atoms: C_15  and  C_16
REMARK    6  A    between atoms: C_16  and  O_18
REMARK    7  A    between atoms: O_18  and  C_19
REMARK    8  A    between atoms: C_19  and  C_20
REMARK    9  A    between atoms: C_26  and  C_27
REMARK                            x       y       z     vdW  Elec       q    Type
REMARK                         _______ _______ _______ _____ _____    ______ ____
ROOT
ATOM      1  C   UNL     1       8.221   7.508  18.423  0.00  0.00    +0.000 A 
ATOM      2  C   UNL     1       8.124   6.239  19.001  0.00  0.00    +0.000 A 
ATOM      3  C   UNL     1       7.492   5.187  18.337  0.00  0.00    +0.000 A 
ATOM      4  C   UNL     1       6.938   5.380  17.071  0.00  0.00    +0.000 A 
ATOM      5  C   UNL     1       7.077   6.629  16.453  0.00  0.00    +0.000 A 
ATOM      6  C   UNL     1       7.703   7.691  17.134  0.00  0.00    +0.000 A 
ENDROOT
BRANCH   1   9
ATOM      7  C   UNL     1       8.752   9.924  18.666  0.00  0.00    +0.000 C 
ATOM      8  O   UNL     1       8.135  10.296  17.669  0.00  0.00    +0.000 OA
ATOM      9  N   UNL     1       8.792   8.609  19.107  0.00  0.00    +0.000 N 
ATOM     10  H   UNL     1       9.217   8.442  20.014  0.00  0.00    +0.000 HD
BRANCH   7  16
ATOM     11  C   UNL     1      10.523  11.788  19.030  0.00  0.00    +0.000 A 
ATOM     12  C   UNL     1      11.075  12.723  19.926  0.00  0.00    +0.000 A 
ATOM     13  C   UNL     1      10.569  12.883  21.218  0.00  0.00    +0.000 A 
ATOM     14  C   UNL     1       9.506  12.105  21.644  0.00  0.00    +0.000 A 
ATOM     15  C   UNL     1       8.961  11.163  20.776  0.00  0.00    +0.000 A 
ATOM     16  C   UNL     1       9.457  10.981  19.465  0.00  0.00    +0.000 A 
BRANCH  11  18
ATOM     17  C   UNL     1      11.129  12.824  16.985  0.00  0.00    +0.000 C 
ATOM     18  O   UNL     1      11.009  11.623  17.754  0.00  0.00    +0.000 OA
ENDBRANCH  11  18
ENDBRANCH   7  16
ENDBRANCH   1   9
BRANCH   4  19
ATOM     19  C   UNL     1       6.171   4.242  16.491  0.00  0.00    +0.000 C 
ATOM     20  O   UNL     1       6.238   3.932  15.310  0.00  0.00    +0.000 OA
BRANCH  19  21
ATOM     21  O   UNL     1       5.464   3.589  17.438  0.00  0.00    +0.000 OA
BRANCH  21  22
ATOM     22  C   UNL     1       4.039   3.556  17.238  0.00  0.00    +0.000 C 
BRANCH  22  23
ATOM     23  C   UNL     1       3.374   4.462  18.254  0.00  0.00    +0.000 A 
ATOM     24  C   UNL     1       3.056   4.014  19.482  0.00  0.00    +0.000 A 
ATOM     25  C   UNL     1       2.403   4.927  20.452  0.00  0.00    +0.000 A 
ATOM     26  O   UNL     1       2.100   4.504  21.567  0.00  0.00    +0.000 OA
ATOM     27  N   UNL     1       2.206   6.197  19.966  0.00  0.00    +0.000 N 
ATOM     28  N   UNL     1       1.630   7.200  20.725  0.00  0.00    +0.000 NA
ATOM     29  C   UNL     1       1.570   8.273  20.004  0.00  0.00    +0.000 A 
ATOM     30  C   UNL     1       1.026   9.579  20.475  0.00  0.00    +0.000 C 
ATOM     31  S   UNL     1       2.166   8.183  18.366  0.00  0.00    +0.000 S 
ATOM     32  C   UNL     1       2.561   6.528  18.688  0.00  0.00    +0.000 A 
ATOM     33  N   UNL     1       3.110   5.746  17.824  0.00  0.00    +0.000 NA
ENDBRANCH  22  23
ENDBRANCH  21  22
ENDBRANCH  19  21
ENDBRANCH   4  19
TORSDOF 7
ENDMDL
MODEL 5
REMARK VINA RESULT:      -7.8      2.071      2.671
REMARK  Name = 
REMARK  9 active torsions:
REMARK  status: ('A' for Active; 'I' for Inactive)
REMARK    1  A    between atoms: C_1  and  O_2
REMARK    2  A    between atoms: O_2  and  C_3
REMARK    3  A    between atoms: C_8  and  C_9
REMARK    4  A    between atoms: N_11  and  C_12
REMARK    5  A    between atoms: C_15  and  C_16
REMARK    6  A    between atoms: C_16  and  O_18
REMARK    7  A    between atoms: O_18  and  C_19
REMARK    8  A    between atoms: C_19  and  C_20
REMARK    9  A    between atoms: C_26  and  C_27
REMARK                            x       y       z     vdW  Elec       q    Type
REMARK                         _______ _______ _______ _____ _____    ______ ____
ROOT
ATOM      1  C   UNL     1       1.825   7.311  19.597  0.00  0.00    +0.000 A 
ATOM      2  C   UNL     1       2.046   6.768  18.328  0.00  0.00    +0.000 A 
ATOM      3  C   UNL     1       2.063   5.388  18.123  0.00  0.00    +0.000 A 
ATOM      4  C   UNL     1       1.859   4.511  19.190  0.00  0.00    +0.000 A 
ATOM      5  C   UNL     1       1.579   5.039  20.457  0.00  0.00    +0.000 A 
ATOM      6  C   UNL     1       1.577   6.433  20.660  0.00  0.00    +0.000 A 
ENDROOT
BRANCH   1   9
ATOM      7  C   UNL     1       1.193   9.666  19.111  0.00  0.00    +0.000 C 
ATOM      8  O   UNL     1       0.390   9.405  18.216  0.00  0.00    +0.000 OA
ATOM      9  N   UNL     1       1.876   8.705  19.843  0.00  0.00    +0.000 N 
ATOM     10  H   UNL     1       2.407   9.031  20.645  0.00  0.00    +0.000 HD
BRANCH   7  16
ATOM     11  C   UNL     1       1.142  11.730  20.686  0.00  0.00    +0.000 A 
ATOM     12  C   UNL     1       1.374  13.113  20.815  0.00  0.00    +0.000 A 
ATOM     13  C   UNL     1       1.873  13.873  19.754  0.00  0.00    +0.000 A 
ATOM     14  C   UNL     1       2.141  13.266  18.538  0.00  0.00    +0.000 A 
ATOM     15  C   UNL     1       1.900  11.903  18.388  0.00  0.00    +0.000 A 
ATOM     16  C   UNL     1       1.393  11.114  19.446  0.00  0.00    +0.000 A 
BRANCH  11  18
ATOM     17  C   UNL     1      -0.747  11.105  21.974  0.00  0.00    +0.000 C 
ATOM     18  O   UNL     1       0.655  10.970  21.723  0.00  0.00    +0.000 OA
ENDBRANCH  11  18
ENDBRANCH   7  16
ENDBRANCH   1   9
BRANCH   4  19
ATOM     19  C   UNL     1       2.021   3.058  18.908  0.00  0.00    +0.000 C 
ATOM     20  O   UNL     1       1.106   2.355  18.505  0.00  0.00    +0.000 OA
BRANCH  19  21
ATOM     21  O   UNL     1       3.297   2.658  19.097  0.00  0.00    +0.000 OA
BRANCH  21  22
ATOM     22  C   UNL     1       4.049   2.390  17.900  0.00  0.00    +0.000 C 
BRANCH  22  23
ATOM     23  C   UNL     1       4.841   3.625  17.524  0.00  0.00    +0.000 A 
ATOM     24  C   UNL     1       4.771   4.147  16.286  0.00  0.00    +0.000 A 
ATOM     25  C   UNL     1       5.563   5.356  15.950  0.00  0.00    +0.000 A 
ATOM     26  O   UNL     1       5.506   5.816  14.811  0.00  0.00    +0.000 OA
ATOM     27  N   UNL     1       6.299   5.842  17.005  0.00  0.00    +0.000 N 
ATOM     28  N   UNL     1       7.087   6.974  16.898  0.00  0.00    +0.000 NA
ATOM     29  C   UNL     1       7.660   7.180  18.040  0.00  0.00    +0.000 A 
ATOM     30  C   UNL     1       8.579   8.318  18.333  0.00  0.00    +0.000 C 
ATOM     31  S   UNL     1       7.336   6.044  19.325  0.00  0.00    +0.000 S 
ATOM     32  C   UNL     1       6.299   5.211  18.217  0.00  0.00    +0.000 A 
ATOM     33  N   UNL     1       5.636   4.150  18.523  0.00  0.00    +0.000 NA
ENDBRANCH  22  23
ENDBRANCH  21  22
ENDBRANCH  19  21
ENDBRANCH   4  19
TORSDOF 7
ENDMDL
MODEL 6
REMARK VINA RESULT:      -7.8      1.071      1.766
REMARK  Name = 
REMARK  9 active torsions:
REMARK  status: ('A' for Active; 'I' for Inactive)
REMARK    1  A    between atoms: C_1  and  O_2
REMARK    2  A    between atoms: O_2  and  C_3
REMARK    3  A    between atoms: C_8  and  C_9
REMARK    4  A    between atoms: N_11  and  C_12
REMARK    5  A    between atoms: C_15  and  C_16
REMARK    6  A    between atoms: C_16  and  O_18
REMARK    7  A    between atoms: O_18  and  C_19
REMARK    8  A    between atoms: C_19  and  C_20
REMARK    9  A    between atoms: C_26  and  C_27
REMARK                            x       y       z     vdW  Elec       q    Type
REMARK                         _______ _______ _______ _____ _____    ______ ____
ROOT
ATOM      1  C   UNL     1       1.315   8.755  19.857  0.00  0.00    +0.000 A 
ATOM      2  C   UNL     1       1.203   7.711  20.781  0.00  0.00    +0.000 A 
ATOM      3  C   UNL     1       1.670   6.430  20.487  0.00  0.00    +0.000 A 
ATOM      4  C   UNL     1       2.262   6.158  19.253  0.00  0.00    +0.000 A 
ATOM      5  C   UNL     1       2.434   7.205  18.338  0.00  0.00    +0.000 A 
ATOM      6  C   UNL     1       1.948   8.494  18.636  0.00  0.00    +0.000 A 
ENDROOT
BRANCH   1   9
ATOM      7  C   UNL     1       0.734  10.658  21.347  0.00  0.00    +0.000 C 
ATOM      8  O   UNL     1       1.231  10.182  22.368  0.00  0.00    +0.000 OA
ATOM      9  N   UNL     1       0.783  10.044  20.104  0.00  0.00    +0.000 N 
ATOM     10  H   UNL     1       0.461  10.590  19.310  0.00  0.00    +0.000 HD
BRANCH   7  16
ATOM     11  C   UNL     1       0.391  13.155  20.723  0.00  0.00    +0.000 A 
ATOM     12  C   UNL     1      -0.317  14.343  20.986  0.00  0.00    +0.000 A 
ATOM     13  C   UNL     1      -1.331  14.393  21.945  0.00  0.00    +0.000 A 
ATOM     14  C   UNL     1      -1.652  13.256  22.668  0.00  0.00    +0.000 A 
ATOM     15  C   UNL     1      -0.949  12.078  22.434  0.00  0.00    +0.000 A 
ATOM     16  C   UNL     1       0.083  12.003  21.470  0.00  0.00    +0.000 A 
BRANCH  11  18
ATOM     17  C   UNL     1       2.547  13.883  20.060  0.00  0.00    +0.000 C 
ATOM     18  O   UNL     1       1.390  13.092  19.779  0.00  0.00    +0.000 OA
ENDBRANCH  11  18
ENDBRANCH   7  16
ENDBRANCH   1   9
BRANCH   4  19
ATOM     19  C   UNL     1       2.613   4.738  18.972  0.00  0.00    +0.000 C 
ATOM     20  O   UNL     1       2.032   4.065  18.134  0.00  0.00    +0.000 OA
BRANCH  19  21
ATOM     21  O   UNL     1       3.670   4.337  19.711  0.00  0.00    +0.000 OA
BRANCH  21  22
ATOM     22  C   UNL     1       4.524   3.356  19.093  0.00  0.00    +0.000 C 
BRANCH  22  23
ATOM     23  C   UNL     1       5.411   4.043  18.075  0.00  0.00    +0.000 A 
ATOM     24  C   UNL     1       6.301   4.981  18.449  0.00  0.00    +0.000 A 
ATOM     25  C   UNL     1       7.154   5.637  17.426  0.00  0.00    +0.000 A 
ATOM     26  O   UNL     1       7.952   6.505  17.775  0.00  0.00    +0.000 OA
ATOM     27  N   UNL     1       6.938   5.172  16.151  0.00  0.00    +0.000 N 
ATOM     28  N   UNL     1       7.648   5.644  15.062  0.00  0.00    +0.000 NA
ATOM     29  C   UNL     1       7.225   5.031  14.003  0.00  0.00    +0.000 A 
ATOM     30  C   UNL     1       7.757   5.252  12.628  0.00  0.00    +0.000 C 
ATOM     31  S   UNL     1       5.941   3.866  14.202  0.00  0.00    +0.000 S 
ATOM     32  C   UNL     1       5.990   4.222  15.895  0.00  0.00    +0.000 A 
ATOM     33  N   UNL     1       5.226   3.656  16.764  0.00  0.00    +0.000 NA
ENDBRANCH  22  23
ENDBRANCH  21  22
ENDBRANCH  19  21
ENDBRANCH   4  19
TORSDOF 7
ENDMDL
MODEL 7
REMARK VINA RESULT:      -7.8      4.033     10.987
REMARK  Name = 
REMARK  9 active torsions:
REMARK  status: ('A' for Active; 'I' for Inactive)
REMARK    1  A    between atoms: C_1  and  O_2
REMARK    2  A    between atoms: O_2  and  C_3
REMARK    3  A    between atoms: C_8  and  C_9
REMARK    4  A    between atoms: N_11  and  C_12
REMARK    5  A    between atoms: C_15  and  C_16
REMARK    6  A    between atoms: C_16  and  O_18
REMARK    7  A    between atoms: O_18  and  C_19
REMARK    8  A    between atoms: C_19  and  C_20
REMARK    9  A    between atoms: C_26  and  C_27
REMARK                            x       y       z     vdW  Elec       q    Type
REMARK                         _______ _______ _______ _____ _____    ______ ____
ROOT
ATOM      1  C   UNL     1       2.333   7.354  18.720  0.00  0.00    +0.000 A 
ATOM      2  C   UNL     1       2.090   7.126  20.078  0.00  0.00    +0.000 A 
ATOM      3  C   UNL     1       1.479   8.093  20.877  0.00  0.00    +0.000 A 
ATOM      4  C   UNL     1       1.096   9.321  20.335  0.00  0.00    +0.000 A 
ATOM      5  C   UNL     1       1.279   9.543  18.964  0.00  0.00    +0.000 A 
ATOM      6  C   UNL     1       1.909   8.568  18.165  0.00  0.00    +0.000 A 
ENDROOT
BRANCH   1   9
ATOM      7  C   UNL     1       4.332   6.543  17.486  0.00  0.00    +0.000 C 
ATOM      8  O   UNL     1       5.086   7.444  17.850  0.00  0.00    +0.000 OA
ATOM      9  N   UNL     1       3.016   6.417  17.906  0.00  0.00    +0.000 N 
ATOM     10  H   UNL     1       2.532   5.562  17.650  0.00  0.00    +0.000 HD
BRANCH   7  16
ATOM     11  C   UNL     1       4.919   4.112  16.787  0.00  0.00    +0.000 A 
ATOM     12  C   UNL     1       5.520   3.282  15.821  0.00  0.00    +0.000 A 
ATOM     13  C   UNL     1       6.072   3.804  14.649  0.00  0.00    +0.000 A 
ATOM     14  C   UNL     1       6.043   5.170  14.423  0.00  0.00    +0.000 A 
ATOM     15  C   UNL     1       5.470   6.007  15.377  0.00  0.00    +0.000 A 
ATOM     16  C   UNL     1       4.907   5.502  16.571  0.00  0.00    +0.000 A 
BRANCH  11  18
ATOM     17  C   UNL     1       3.264   2.720  17.758  0.00  0.00    +0.000 C 
ATOM     18  O   UNL     1       4.369   3.609  17.943  0.00  0.00    +0.000 OA
ENDBRANCH  11  18
ENDBRANCH   7  16
ENDBRANCH   1   9
BRANCH   4  19
ATOM     19  C   UNL     1       0.571  10.342  21.284  0.00  0.00    +0.000 C 
ATOM     20  O   UNL     1       0.590  10.190  22.496  0.00  0.00    +0.000 OA
BRANCH  19  21
ATOM     21  O   UNL     1       0.143  11.445  20.634  0.00  0.00    +0.000 OA
BRANCH  21  22
ATOM     22  C   UNL     1      -0.168  12.576  21.468  0.00  0.00    +0.000 C 
BRANCH  22  23
ATOM     23  C   UNL     1      -1.646  12.557  21.799  0.00  0.00    +0.000 A 
ATOM     24  C   UNL     1      -2.072  12.483  23.073  0.00  0.00    +0.000 A 
ATOM     25  C   UNL     1      -3.528  12.463  23.363  0.00  0.00    +0.000 A 
ATOM     26  O   UNL     1      -3.908  12.379  24.530  0.00  0.00    +0.000 OA
ATOM     27  N   UNL     1      -4.313  12.547  22.239  0.00  0.00    +0.000 N 
ATOM     28  N   UNL     1      -5.695  12.564  22.301  0.00  0.00    +0.000 NA
ATOM     29  C   UNL     1      -6.156  12.641  21.094  0.00  0.00    +0.000 A 
ATOM     30  C   UNL     1      -7.605  12.700  20.744  0.00  0.00    +0.000 C 
ATOM     31  S   UNL     1      -5.000  12.677  19.787  0.00  0.00    +0.000 S 
ATOM     32  C   UNL     1      -3.759  12.603  20.991  0.00  0.00    +0.000 A 
ATOM     33  N   UNL     1      -2.500  12.600  20.717  0.00  0.00    +0.000 NA
ENDBRANCH  22  23
ENDBRANCH  21  22
ENDBRANCH  19  21
ENDBRANCH   4  19
TORSDOF 7
ENDMDL
MODEL 8
REMARK VINA RESULT:      -7.8      1.285      1.955
REMARK  Name = 
REMARK  9 active torsions:
REMARK  status: ('A' for Active; 'I' for Inactive)
REMARK    1  A    between atoms: C_1  and  O_2
REMARK    2  A    between atoms: O_2  and  C_3
REMARK    3  A    between atoms: C_8  and  C_9
REMARK    4  A    between atoms: N_11  and  C_12
REMARK    5  A    between atoms: C_15  and  C_16
REMARK    6  A    between atoms: C_16  and  O_18
REMARK    7  A    between atoms: O_18  and  C_19
REMARK    8  A    between atoms: C_19  and  C_20
REMARK    9  A    between atoms: C_26  and  C_27
REMARK                            x       y       z     vdW  Elec       q    Type
REMARK                         _______ _______ _______ _____ _____    ______ ____
ROOT
ATOM      1  C   UNL     1       1.701   7.846  20.082  0.00  0.00    +0.000 A 
ATOM      2  C   UNL     1       1.578   6.688  20.856  0.00  0.00    +0.000 A 
ATOM      3  C   UNL     1       1.839   5.427  20.320  0.00  0.00    +0.000 A 
ATOM      4  C   UNL     1       2.231   5.291  18.988  0.00  0.00    +0.000 A 
ATOM      5  C   UNL     1       2.416   6.444  18.215  0.00  0.00    +0.000 A 
ATOM      6  C   UNL     1       2.137   7.714  18.757  0.00  0.00    +0.000 A 
ENDROOT
BRANCH   1   9
ATOM      7  C   UNL     1       0.151   9.471  21.145  0.00  0.00    +0.000 C 
ATOM      8  O   UNL     1      -0.757   8.668  21.357  0.00  0.00    +0.000 OA
ATOM      9  N   UNL     1       1.371   9.129  20.581  0.00  0.00    +0.000 N 
ATOM     10  H   UNL     1       2.092   9.844  20.580  0.00  0.00    +0.000 HD
BRANCH   7  16
ATOM     11  C   UNL     1       0.521  12.039  21.030  0.00  0.00    +0.000 A 
ATOM     12  C   UNL     1       0.195  13.297  21.573  0.00  0.00    +0.000 A 
ATOM     13  C   UNL     1      -0.730  13.427  22.611  0.00  0.00    +0.000 A 
ATOM     14  C   UNL     1      -1.340  12.301  23.137  0.00  0.00    +0.000 A 
ATOM     15  C   UNL     1      -1.015  11.048  22.624  0.00  0.00    +0.000 A 
ATOM     16  C   UNL     1      -0.081  10.890  21.575  0.00  0.00    +0.000 A 
BRANCH  11  18
ATOM     17  C   UNL     1       0.963  12.314  18.718  0.00  0.00    +0.000 C 
ATOM     18  O   UNL     1       1.427  11.897  20.005  0.00  0.00    +0.000 OA
ENDBRANCH  11  18
ENDBRANCH   7  16
ENDBRANCH   1   9
BRANCH   4  19
ATOM     19  C   UNL     1       2.364   3.903  18.464  0.00  0.00    +0.000 C 
ATOM     20  O   UNL     1       1.471   3.340  17.847  0.00  0.00    +0.000 OA
BRANCH  19  21
ATOM     21  O   UNL     1       3.593   3.399  18.707  0.00  0.00    +0.000 OA
BRANCH  21  22
ATOM     22  C   UNL     1       4.578   4.350  19.151  0.00  0.00    +0.000 C 
BRANCH  22  23
ATOM     23  C   UNL     1       5.425   4.775  17.969  0.00  0.00    +0.000 A 
ATOM     24  C   UNL     1       6.319   5.774  18.078  0.00  0.00    +0.000 A 
ATOM     25  C   UNL     1       7.131   6.168  16.899  0.00  0.00    +0.000 A 
ATOM     26  O   UNL     1       7.934   7.094  17.003  0.00  0.00    +0.000 OA
ATOM     27  N   UNL     1       6.876   5.413  15.780  0.00  0.00    +0.000 N 
ATOM     28  N   UNL     1       7.545   5.613  14.585  0.00  0.00    +0.000 NA
ATOM     29  C   UNL     1       7.091   4.765  13.718  0.00  0.00    +0.000 A 
ATOM     30  C   UNL     1       7.574   4.653  12.311  0.00  0.00    +0.000 C 
ATOM     31  S   UNL     1       5.824   3.681  14.233  0.00  0.00    +0.000 S 
ATOM     32  C   UNL     1       5.927   4.430  15.790  0.00  0.00    +0.000 A 
ATOM     33  N   UNL     1       5.198   4.087  16.795  0.00  0.00    +0.000 NA
ENDBRANCH  22  23
ENDBRANCH  21  22
ENDBRANCH  19  21
ENDBRANCH   4  19
TORSDOF 7
ENDMDL
MODEL 9
REMARK VINA RESULT:      -7.7      1.362      1.708
REMARK  Name = 
REMARK  9 active torsions:
REMARK  status: ('A' for Active; 'I' for Inactive)
REMARK    1  A    between atoms: C_1  and  O_2
REMARK    2  A    between atoms: O_2  and  C_3
REMARK    3  A    between atoms: C_8  and  C_9
REMARK    4  A    between atoms: N_11  and  C_12
REMARK    5  A    between atoms: C_15  and  C_16
REMARK    6  A    between atoms: C_16  and  O_18
REMARK    7  A    between atoms: O_18  and  C_19
REMARK    8  A    between atoms: C_19  and  C_20
REMARK    9  A    between atoms: C_26  and  C_27
REMARK                            x       y       z     vdW  Elec       q    Type
REMARK                         _______ _______ _______ _____ _____    ______ ____
ROOT
ATOM      1  C   UNL     1       1.673   8.098  19.577  0.00  0.00    +0.000 A 
ATOM      2  C   UNL     1       1.541   7.340  20.744  0.00  0.00    +0.000 A 
ATOM      3  C   UNL     1       1.805   5.970  20.752  0.00  0.00    +0.000 A 
ATOM      4  C   UNL     1       2.208   5.320  19.585  0.00  0.00    +0.000 A 
ATOM      5  C   UNL     1       2.401   6.074  18.421  0.00  0.00    +0.000 A 
ATOM      6  C   UNL     1       2.119   7.454  18.415  0.00  0.00    +0.000 A 
ENDROOT
BRANCH   1   9
ATOM      7  C   UNL     1       1.740  10.351  18.529  0.00  0.00    +0.000 C 
ATOM      8  O   UNL     1       2.360  10.009  17.522  0.00  0.00    +0.000 OA
ATOM      9  N   UNL     1       1.340   9.474  19.526  0.00  0.00    +0.000 N 
ATOM     10  H   UNL     1       0.718   9.843  20.240  0.00  0.00    +0.000 HD
BRANCH   7  16
ATOM     11  C   UNL     1       0.099  12.314  18.969  0.00  0.00    +0.000 A 
ATOM     12  C   UNL     1      -0.076  13.710  19.011  0.00  0.00    +0.000 A 
ATOM     13  C   UNL     1       0.983  14.587  18.764  0.00  0.00    +0.000 A 
ATOM     14  C   UNL     1       2.237  14.084  18.460  0.00  0.00    +0.000 A 
ATOM     15  C   UNL     1       2.422  12.706  18.396  0.00  0.00    +0.000 A 
ATOM     16  C   UNL     1       1.365  11.799  18.640  0.00  0.00    +0.000 A 
BRANCH  11  18
ATOM     17  C   UNL     1      -1.959  11.410  18.216  0.00  0.00    +0.000 C 
ATOM     18  O   UNL     1      -0.935  11.440  19.214  0.00  0.00    +0.000 OA
ENDBRANCH  11  18
ENDBRANCH   7  16
ENDBRANCH   1   9
BRANCH   4  19
ATOM     19  C   UNL     1       2.343   3.838  19.652  0.00  0.00    +0.000 C 
ATOM     20  O   UNL     1       1.385   3.091  19.785  0.00  0.00    +0.000 OA
BRANCH  19  21
ATOM     21  O   UNL     1       3.627   3.452  19.488  0.00  0.00    +0.000 OA
BRANCH  21  22
ATOM     22  C   UNL     1       3.926   2.800  18.240  0.00  0.00    +0.000 C 
BRANCH  22  23
ATOM     23  C   UNL     1       4.939   3.630  17.478  0.00  0.00    +0.000 A 
ATOM     24  C   UNL     1       5.690   4.555  18.103  0.00  0.00    +0.000 A 
ATOM     25  C   UNL     1       6.672   5.353  17.327  0.00  0.00    +0.000 A 
ATOM     26  O   UNL     1       7.343   6.209  17.903  0.00  0.00    +0.000 OA
ATOM     27  N   UNL     1       6.717   5.024  15.994  0.00  0.00    +0.000 N 
ATOM     28  N   UNL     1       7.581   5.641  15.107  0.00  0.00    +0.000 NA
ATOM     29  C   UNL     1       7.392   5.132  13.932  0.00  0.00    +0.000 A 
ATOM     30  C   UNL     1       8.148   5.524  12.708  0.00  0.00    +0.000 C 
ATOM     31  S   UNL     1       6.164   3.902  13.772  0.00  0.00    +0.000 S 
ATOM     32  C   UNL     1       5.887   4.071  15.472  0.00  0.00    +0.000 A 
ATOM     33  N   UNL     1       5.015   3.382  16.123  0.00  0.00    +0.000 NA
ENDBRANCH  22  23
ENDBRANCH  21  22
ENDBRANCH  19  21
ENDBRANCH   4  19
TORSDOF 7
ENDMDL
