MODEL 1
REMARK VINA RESULT:      -7.6      0.000      0.000
REMARK  Name = 
REMARK  6 active torsions:
REMARK  status: ('A' for Active; 'I' for Inactive)
REMARK    1  A    between atoms: C_2  and  C_3
REMARK    2  A    between atoms: C_4  and  C_5
REMARK    3  A    between atoms: C_8  and  O_9
REMARK    4  A    between atoms: O_9  and  C_10
REMARK    5  A    between atoms: C_22  and  C_23
REMARK    6  A    between atoms: C_23  and  C_24
REMARK                            x       y       z     vdW  Elec       q    Type
REMARK                         _______ _______ _______ _____ _____    ______ ____
ROOT
ATOM      1  C   UNL     1       2.831   5.516  18.480  0.00  0.00    +0.000 A 
ATOM      2  C   UNL     1       2.947   6.862  18.320  0.00  0.00    +0.000 A 
ATOM      3  C   UNL     1       4.002   7.425  17.473  0.00  0.00    +0.000 A 
ATOM      4  C   UNL     1       4.873   6.610  16.862  0.00  0.00    +0.000 A 
ATOM      5  N   UNL     1       4.766   5.236  17.045  0.00  0.00    +0.000 N 
ATOM      6  C   UNL     1       5.548   4.206  16.547  0.00  0.00    +0.000 A 
ATOM      7  C   UNL     1       4.995   3.058  17.072  0.00  0.00    +0.000 A 
ATOM      8  N   UNL     1       3.908   3.338  17.857  0.00  0.00    +0.000 NA
ATOM      9  C   UNL     1       3.774   4.647  17.836  0.00  0.00    +0.000 A 
ENDROOT
BRANCH   2  10
ATOM     10  C   UNL     1       2.042   7.750  19.067  0.00  0.00    +0.000 A 
ATOM     11  C   UNL     1       1.986   7.724  20.459  0.00  0.00    +0.000 A 
ATOM     12  C   UNL     1       1.137   8.611  21.125  0.00  0.00    +0.000 A 
ATOM     13  C   UNL     1       0.343   9.534  20.421  0.00  0.00    +0.000 A 
ATOM     14  C   UNL     1       0.388   9.537  19.024  0.00  0.00    +0.000 A 
ATOM     15 CL   UNL     1      -0.593  10.516  17.996  0.00  0.00    +0.000 Cl
ATOM     16  C   UNL     1       1.237   8.648  18.358  0.00  0.00    +0.000 A 
BRANCH  13  17
ATOM     17  O   UNL     1      -0.455  10.273  21.245  0.00  0.00    +0.000 OA
BRANCH  17  18
ATOM     18  C   UNL     1      -0.474  11.704  21.175  0.00  0.00    +0.000 C 
ATOM     19  C   UNL     1       0.914  12.303  20.933  0.00  0.00    +0.000 C 
ATOM     20  C   UNL     1       0.942  13.791  21.244  0.00  0.00    +0.000 C 
ATOM     21  O   UNL     1       0.466  14.037  22.566  0.00  0.00    +0.000 OA
ATOM     22  C   UNL     1      -0.900  13.662  22.713  0.00  0.00    +0.000 C 
ATOM     23  C   UNL     1      -1.065  12.169  22.509  0.00  0.00    +0.000 C 
ENDBRANCH  17  18
ENDBRANCH  13  17
ENDBRANCH   2  10
BRANCH   1  25
ATOM     24  N   UNL     1       0.831   4.459  20.098  0.00  0.00    +0.000 NA
ATOM     25  C   UNL     1       1.738   4.937  19.364  0.00  0.00    +0.000 C 
ENDBRANCH   1  25
BRANCH   6  26
ATOM     26  C   UNL     1       6.700   4.367  15.598  0.00  0.00    +0.000 C 
BRANCH  26  27
ATOM     27  C   UNL     1       6.362   4.391  14.109  0.00  0.00    +0.000 C 
ATOM     28  F   UNL     1       7.259   5.078  13.370  0.00  0.00    +0.000 F 
ATOM     29  F   UNL     1       6.285   3.139  13.605  0.00  0.00    +0.000 F 
ATOM     30  F   UNL     1       5.157   4.978  13.917  0.00  0.00    +0.000 F 
ENDBRANCH  26  27
ENDBRANCH   6  26
TORSDOF 6
ENDMDL
MODEL 2
REMARK VINA RESULT:      -7.4      0.517      1.026
REMARK  Name = 
REMARK  6 active torsions:
REMARK  status: ('A' for Active; 'I' for Inactive)
REMARK    1  A    between atoms: C_2  and  C_3
REMARK    2  A    between atoms: C_4  and  C_5
REMARK    3  A    between atoms: C_8  and  O_9
REMARK    4  A    between atoms: O_9  and  C_10
REMARK    5  A    between atoms: C_22  and  C_23
REMARK    6  A    between atoms: C_23  and  C_24
REMARK                            x       y       z     vdW  Elec       q    Type
REMARK                         _______ _______ _______ _____ _____    ______ ____
ROOT
ATOM      1  C   UNL     1       2.865   5.825  18.750  0.00  0.00    +0.000 A 
ATOM      2  C   UNL     1       2.853   7.153  18.457  0.00  0.00    +0.000 A 
ATOM      3  C   UNL     1       3.839   7.724  17.535  0.00  0.00    +0.000 A 
ATOM      4  C   UNL     1       4.774   6.936  16.987  0.00  0.00    +0.000 A 
ATOM      5  N   UNL     1       4.798   5.582  17.305  0.00  0.00    +0.000 N 
ATOM      6  C   UNL     1       5.666   4.584  16.892  0.00  0.00    +0.000 A 
ATOM      7  C   UNL     1       5.230   3.448  17.539  0.00  0.00    +0.000 A 
ATOM      8  N   UNL     1       4.133   3.703  18.317  0.00  0.00    +0.000 NA
ATOM      9  C   UNL     1       3.877   4.987  18.172  0.00  0.00    +0.000 A 
ENDROOT
BRANCH   2  10
ATOM     10  C   UNL     1       1.879   8.024  19.134  0.00  0.00    +0.000 A 
ATOM     11  C   UNL     1       1.796   8.077  20.524  0.00  0.00    +0.000 A 
ATOM     12  C   UNL     1       0.880   8.946  21.121  0.00  0.00    +0.000 A 
ATOM     13  C   UNL     1       0.044   9.773  20.350  0.00  0.00    +0.000 A 
ATOM     14  C   UNL     1       0.117   9.696  18.956  0.00  0.00    +0.000 A 
ATOM     15 CL   UNL     1      -0.902  10.548  17.856  0.00  0.00    +0.000 Cl
ATOM     16  C   UNL     1       1.034   8.826  18.359  0.00  0.00    +0.000 A 
BRANCH  13  17
ATOM     17  O   UNL     1      -0.815  10.507  21.115  0.00  0.00    +0.000 OA
BRANCH  17  18
ATOM     18  C   UNL     1      -0.348  11.592  21.924  0.00  0.00    +0.000 C 
ATOM     19  C   UNL     1      -1.456  12.215  22.778  0.00  0.00    +0.000 C 
ATOM     20  C   UNL     1      -1.048  13.576  23.318  0.00  0.00    +0.000 C 
ATOM     21  O   UNL     1      -0.632  14.434  22.257  0.00  0.00    +0.000 OA
ATOM     22  C   UNL     1       0.533  13.938  21.605  0.00  0.00    +0.000 C 
ATOM     23  C   UNL     1       0.244  12.607  20.940  0.00  0.00    +0.000 C 
ENDBRANCH  17  18
ENDBRANCH  13  17
ENDBRANCH   2  10
BRANCH   1  25
ATOM     24  N   UNL     1       0.995   4.754  20.508  0.00  0.00    +0.000 NA
ATOM     25  C   UNL     1       1.844   5.239  19.711  0.00  0.00    +0.000 C 
ENDBRANCH   1  25
BRANCH   6  26
ATOM     26  C   UNL     1       6.786   4.755  15.906  0.00  0.00    +0.000 C 
BRANCH  26  27
ATOM     27  C   UNL     1       6.432   4.572  14.432  0.00  0.00    +0.000 C 
ATOM     28  F   UNL     1       7.321   5.148  13.595  0.00  0.00    +0.000 F 
ATOM     29  F   UNL     1       6.350   3.263  14.107  0.00  0.00    +0.000 F 
ATOM     30  F   UNL     1       5.225   5.130  14.172  0.00  0.00    +0.000 F 
ENDBRANCH  26  27
ENDBRANCH   6  26
TORSDOF 6
ENDMDL
MODEL 3
REMARK VINA RESULT:      -7.4      6.355     10.228
REMARK  Name = 
REMARK  6 active torsions:
REMARK  status: ('A' for Active; 'I' for Inactive)
REMARK    1  A    between atoms: C_2  and  C_3
REMARK    2  A    between atoms: C_4  and  C_5
REMARK    3  A    between atoms: C_8  and  O_9
REMARK    4  A    between atoms: O_9  and  C_10
REMARK    5  A    between atoms: C_22  and  C_23
REMARK    6  A    between atoms: C_23  and  C_24
REMARK                            x       y       z     vdW  Elec       q    Type
REMARK                         _______ _______ _______ _____ _____    ______ ____
ROOT
ATOM      1  C   UNL     1      -0.947  10.708  19.535  0.00  0.00    +0.000 A 
ATOM      2  C   UNL     1       0.123  10.218  20.217  0.00  0.00    +0.000 A 
ATOM      3  C   UNL     1       0.464  10.736  21.544  0.00  0.00    +0.000 A 
ATOM      4  C   UNL     1      -0.273  11.715  22.088  0.00  0.00    +0.000 A 
ATOM      5  N   UNL     1      -1.354  12.230  21.379  0.00  0.00    +0.000 N 
ATOM      6  C   UNL     1      -2.238  13.243  21.713  0.00  0.00    +0.000 A 
ATOM      7  C   UNL     1      -3.085  13.342  20.629  0.00  0.00    +0.000 A 
ATOM      8  N   UNL     1      -2.765  12.432  19.658  0.00  0.00    +0.000 NA
ATOM      9  C   UNL     1      -1.725  11.765  20.114  0.00  0.00    +0.000 A 
ENDROOT
BRANCH   2  10
ATOM     10  C   UNL     1       0.979   9.208  19.573  0.00  0.00    +0.000 A 
ATOM     11  C   UNL     1       1.579   9.447  18.339  0.00  0.00    +0.000 A 
ATOM     12  C   UNL     1       2.411   8.471  17.784  0.00  0.00    +0.000 A 
ATOM     13  C   UNL     1       2.661   7.257  18.447  0.00  0.00    +0.000 A 
ATOM     14  C   UNL     1       2.034   7.016  19.674  0.00  0.00    +0.000 A 
ATOM     15 CL   UNL     1       2.133   5.546  20.572  0.00  0.00    +0.000 Cl
ATOM     16  C   UNL     1       1.201   7.992  20.228  0.00  0.00    +0.000 A 
BRANCH  13  17
ATOM     17  O   UNL     1       3.453   6.417  17.720  0.00  0.00    +0.000 OA
BRANCH  17  18
ATOM     18  C   UNL     1       4.881   6.516  17.768  0.00  0.00    +0.000 C 
ATOM     19  C   UNL     1       5.542   6.187  16.426  0.00  0.00    +0.000 C 
ATOM     20  C   UNL     1       7.030   5.919  16.587  0.00  0.00    +0.000 C 
ATOM     21  O   UNL     1       7.255   4.907  17.567  0.00  0.00    +0.000 OA
ATOM     22  C   UNL     1       6.819   5.319  18.859  0.00  0.00    +0.000 C 
ATOM     23  C   UNL     1       5.320   5.543  18.867  0.00  0.00    +0.000 C 
ENDBRANCH  17  18
ENDBRANCH  13  17
ENDBRANCH   2  10
BRANCH   1  25
ATOM     24  N   UNL     1      -1.581   9.725  17.012  0.00  0.00    +0.000 NA
ATOM     25  C   UNL     1      -1.293  10.170  18.156  0.00  0.00    +0.000 C 
ENDBRANCH   1  25
BRANCH   6  26
ATOM     26  C   UNL     1      -2.254  13.993  23.013  0.00  0.00    +0.000 C 
BRANCH  26  27
ATOM     27  C   UNL     1      -3.358  13.623  24.002  0.00  0.00    +0.000 C 
ATOM     28  F   UNL     1      -4.581  14.043  23.617  0.00  0.00    +0.000 F 
ATOM     29  F   UNL     1      -3.421  12.286  24.188  0.00  0.00    +0.000 F 
ATOM     30  F   UNL     1      -3.107  14.186  25.209  0.00  0.00    +0.000 F 
ENDBRANCH  26  27
ENDBRANCH   6  26
TORSDOF 6
ENDMDL
MODEL 4
REMARK VINA RESULT:      -7.4      2.762      4.202
REMARK  Name = 
REMARK  6 active torsions:
REMARK  status: ('A' for Active; 'I' for Inactive)
REMARK    1  A    between atoms: C_2  and  C_3
REMARK    2  A    between atoms: C_4  and  C_5
REMARK    3  A    between atoms: C_8  and  O_9
REMARK    4  A    between atoms: O_9  and  C_10
REMARK    5  A    between atoms: C_22  and  C_23
REMARK    6  A    between atoms: C_23  and  C_24
REMARK                            x       y       z     vdW  Elec       q    Type
REMARK                         _______ _______ _______ _____ _____    ______ ____
ROOT
ATOM      1  C   UNL     1       1.066   8.599  20.108  0.00  0.00    +0.000 A 
ATOM      2  C   UNL     1       0.975   9.629  19.225  0.00  0.00    +0.000 A 
ATOM      3  C   UNL     1       1.709   9.593  17.957  0.00  0.00    +0.000 A 
ATOM      4  C   UNL     1       2.492   8.545  17.669  0.00  0.00    +0.000 A 
ATOM      5  N   UNL     1       2.602   7.503  18.585  0.00  0.00    +0.000 N 
ATOM      6  C   UNL     1       3.354   6.341  18.527  0.00  0.00    +0.000 A 
ATOM      7  C   UNL     1       3.092   5.693  19.715  0.00  0.00    +0.000 A 
ATOM      8  N   UNL     1       2.209   6.399  20.488  0.00  0.00    +0.000 NA
ATOM      9  C   UNL     1       1.917   7.485  19.803  0.00  0.00    +0.000 A 
ENDROOT
BRANCH   2  10
ATOM     10  C   UNL     1       0.183  10.816  19.590  0.00  0.00    +0.000 A 
ATOM     11  C   UNL     1      -1.148  10.947  19.201  0.00  0.00    +0.000 A 
ATOM     12  C   UNL     1      -1.868  12.075  19.602  0.00  0.00    +0.000 A 
ATOM     13  C   UNL     1      -1.281  13.076  20.396  0.00  0.00    +0.000 A 
ATOM     14  C   UNL     1       0.063  12.948  20.760  0.00  0.00    +0.000 A 
ATOM     15 CL   UNL     1       0.977  14.124  21.631  0.00  0.00    +0.000 Cl
ATOM     16  C   UNL     1       0.783  11.819  20.359  0.00  0.00    +0.000 A 
BRANCH  13  17
ATOM     17  O   UNL     1      -2.128  14.118  20.635  0.00  0.00    +0.000 OA
BRANCH  17  18
ATOM     18  C   UNL     1      -3.037  14.098  21.742  0.00  0.00    +0.000 C 
ATOM     19  C   UNL     1      -2.678  13.033  22.783  0.00  0.00    +0.000 C 
ATOM     20  C   UNL     1      -3.837  12.763  23.728  0.00  0.00    +0.000 C 
ATOM     21  O   UNL     1      -5.016  12.432  22.997  0.00  0.00    +0.000 OA
ATOM     22  C   UNL     1      -5.455  13.518  22.187  0.00  0.00    +0.000 C 
ATOM     23  C   UNL     1      -4.418  13.845  21.130  0.00  0.00    +0.000 C 
ENDBRANCH  17  18
ENDBRANCH  13  17
ENDBRANCH   2  10
BRANCH   1  25
ATOM     24  N   UNL     1      -0.323   8.680  22.516  0.00  0.00    +0.000 NA
ATOM     25  C   UNL     1       0.306   8.644  21.424  0.00  0.00    +0.000 C 
ENDBRANCH   1  25
BRANCH   6  26
ATOM     26  C   UNL     1       4.205   5.910  17.368  0.00  0.00    +0.000 C 
BRANCH  26  27
ATOM     27  C   UNL     1       4.196   4.420  17.029  0.00  0.00    +0.000 C 
ATOM     28  F   UNL     1       4.915   3.673  17.894  0.00  0.00    +0.000 F 
ATOM     29  F   UNL     1       2.937   3.930  17.010  0.00  0.00    +0.000 F 
ATOM     30  F   UNL     1       4.726   4.222  15.799  0.00  0.00    +0.000 F 
ENDBRANCH  26  27
ENDBRANCH   6  26
TORSDOF 6
ENDMDL
MODEL 5
REMARK VINA RESULT:      -7.3      1.242      1.804
REMARK  Name = 
REMARK  6 active torsions:
REMARK  status: ('A' for Active; 'I' for Inactive)
REMARK    1  A    between atoms: C_2  and  C_3
REMARK    2  A    between atoms: C_4  and  C_5
REMARK    3  A    between atoms: C_8  and  O_9
REMARK    4  A    between atoms: O_9  and  C_10
REMARK    5  A    between atoms: C_22  and  C_23
REMARK    6  A    between atoms: C_23  and  C_24
REMARK                            x       y       z     vdW  Elec       q    Type
REMARK                         _______ _______ _______ _____ _____    ______ ____
ROOT
ATOM      1  C   UNL     1       2.907   5.950  18.642  0.00  0.00    +0.000 A 
ATOM      2  C   UNL     1       2.908   7.247  18.233  0.00  0.00    +0.000 A 
ATOM      3  C   UNL     1       3.902   7.726  17.269  0.00  0.00    +0.000 A 
ATOM      4  C   UNL     1       4.832   6.885  16.796  0.00  0.00    +0.000 A 
ATOM      5  N   UNL     1       4.843   5.565  17.232  0.00  0.00    +0.000 N 
ATOM      6  C   UNL     1       5.703   4.527  16.912  0.00  0.00    +0.000 A 
ATOM      7  C   UNL     1       5.254   3.455  17.654  0.00  0.00    +0.000 A 
ATOM      8  N   UNL     1       4.157   3.788  18.402  0.00  0.00    +0.000 NA
ATOM      9  C   UNL     1       3.913   5.056  18.144  0.00  0.00    +0.000 A 
ENDROOT
BRANCH   2  10
ATOM     10  C   UNL     1       1.940   8.184  18.827  0.00  0.00    +0.000 A 
ATOM     11  C   UNL     1       1.128   8.988  18.032  0.00  0.00    +0.000 A 
ATOM     12  C   UNL     1       0.199   9.835  18.641  0.00  0.00    +0.000 A 
ATOM     13  C   UNL     1       0.062   9.889  20.040  0.00  0.00    +0.000 A 
ATOM     14  C   UNL     1       0.899   9.096  20.831  0.00  0.00    +0.000 A 
ATOM     15 CL   UNL     1       0.950   9.112  22.555  0.00  0.00    +0.000 Cl
ATOM     16  C   UNL     1       1.828   8.248  20.221  0.00  0.00    +0.000 A 
BRANCH  13  17
ATOM     17  O   UNL     1      -0.857  10.814  20.440  0.00  0.00    +0.000 OA
BRANCH  17  18
ATOM     18  C   UNL     1      -0.455  12.108  20.906  0.00  0.00    +0.000 C 
ATOM     19  C   UNL     1      -0.814  12.346  22.375  0.00  0.00    +0.000 C 
ATOM     20  C   UNL     1      -0.739  13.821  22.736  0.00  0.00    +0.000 C 
ATOM     21  O   UNL     1      -1.541  14.597  21.848  0.00  0.00    +0.000 OA
ATOM     22  C   UNL     1      -1.062  14.527  20.508  0.00  0.00    +0.000 C 
ATOM     23  C   UNL     1      -1.158  13.108  19.983  0.00  0.00    +0.000 C 
ENDBRANCH  17  18
ENDBRANCH  13  17
ENDBRANCH   2  10
BRANCH   1  25
ATOM     24  N   UNL     1       1.023   5.052  20.479  0.00  0.00    +0.000 NA
ATOM     25  C   UNL     1       1.877   5.460  19.646  0.00  0.00    +0.000 C 
ENDBRANCH   1  25
BRANCH   6  26
ATOM     26  C   UNL     1       6.827   4.601  15.919  0.00  0.00    +0.000 C 
BRANCH  26  27
ATOM     27  C   UNL     1       6.450   4.455  14.446  0.00  0.00    +0.000 C 
ATOM     28  F   UNL     1       6.414   3.171  14.030  0.00  0.00    +0.000 F 
ATOM     29  F   UNL     1       5.241   5.003  14.194  0.00  0.00    +0.000 F 
ATOM     30  F   UNL     1       7.355   5.098  13.670  0.00  0.00    +0.000 F 
ENDBRANCH  26  27
ENDBRANCH   6  26
TORSDOF 6
ENDMDL
MODEL 6
REMARK VINA RESULT:      -7.3      2.637      4.007
REMARK  Name = 
REMARK  6 active torsions:
REMARK  status: ('A' for Active; 'I' for Inactive)
REMARK    1  A    between atoms: C_2  and  C_3
REMARK    2  A    between atoms: C_4  and  C_5
REMARK    3  A    between atoms: C_8  and  O_9
REMARK    4  A    between atoms: O_9  and  C_10
REMARK    5  A    between atoms: C_22  and  C_23
REMARK    6  A    between atoms: C_23  and  C_24
REMARK                            x       y       z     vdW  Elec       q    Type
REMARK                         _______ _______ _______ _____ _____    ______ ____
ROOT
ATOM      1  C   UNL     1       1.001   8.496  20.090  0.00  0.00    +0.000 A 
ATOM      2  C   UNL     1       0.938   9.552  19.235  0.00  0.00    +0.000 A 
ATOM      3  C   UNL     1       1.738   9.568  18.007  0.00  0.00    +0.000 A 
ATOM      4  C   UNL     1       2.555   8.542  17.730  0.00  0.00    +0.000 A 
ATOM      5  N   UNL     1       2.635   7.474  18.617  0.00  0.00    +0.000 N 
ATOM      6  C   UNL     1       3.409   6.326  18.565  0.00  0.00    +0.000 A 
ATOM      7  C   UNL     1       3.097   5.637  19.717  0.00  0.00    +0.000 A 
ATOM      8  N   UNL     1       2.162   6.304  20.463  0.00  0.00    +0.000 NA
ATOM      9  C   UNL     1       1.887   7.406  19.797  0.00  0.00    +0.000 A 
ENDROOT
BRANCH   2  10
ATOM     10  C   UNL     1       0.107  10.713  19.593  0.00  0.00    +0.000 A 
ATOM     11  C   UNL     1       0.599  11.734  20.403  0.00  0.00    +0.000 A 
ATOM     12  C   UNL     1      -0.215  12.833  20.687  0.00  0.00    +0.000 A 
ATOM     13  C   UNL     1      -1.518  12.934  20.168  0.00  0.00    +0.000 A 
ATOM     14  C   UNL     1      -2.012  11.892  19.376  0.00  0.00    +0.000 A 
ATOM     15 CL   UNL     1      -3.616  11.792  18.748  0.00  0.00    +0.000 Cl
ATOM     16  C   UNL     1      -1.197  10.793  19.093  0.00  0.00    +0.000 A 
BRANCH  13  17
ATOM     17  O   UNL     1      -2.170  14.051  20.603  0.00  0.00    +0.000 OA
BRANCH  17  18
ATOM     18  C   UNL     1      -2.976  14.027  21.787  0.00  0.00    +0.000 C 
ATOM     19  C   UNL     1      -2.692  12.810  22.672  0.00  0.00    +0.000 C 
ATOM     20  C   UNL     1      -3.795  12.594  23.695  0.00  0.00    +0.000 C 
ATOM     21  O   UNL     1      -5.067  12.515  23.054  0.00  0.00    +0.000 OA
ATOM     22  C   UNL     1      -5.408  13.737  22.407  0.00  0.00    +0.000 C 
ATOM     23  C   UNL     1      -4.426  14.039  21.292  0.00  0.00    +0.000 C 
ENDBRANCH  17  18
ENDBRANCH  13  17
ENDBRANCH   2  10
BRANCH   1  25
ATOM     24  N   UNL     1      -0.515   8.480  22.422  0.00  0.00    +0.000 NA
ATOM     25  C   UNL     1       0.172   8.487  21.364  0.00  0.00    +0.000 C 
ENDBRANCH   1  25
BRANCH   6  26
ATOM     26  C   UNL     1       4.328   5.946  17.440  0.00  0.00    +0.000 C 
BRANCH  26  27
ATOM     27  C   UNL     1       4.289   4.488  16.988  0.00  0.00    +0.000 C 
ATOM     28  F   UNL     1       4.776   4.303  15.743  0.00  0.00    +0.000 F 
ATOM     29  F   UNL     1       4.991   3.695  17.827  0.00  0.00    +0.000 F 
ATOM     30  F   UNL     1       3.011   4.038  16.984  0.00  0.00    +0.000 F 
ENDBRANCH  26  27
ENDBRANCH   6  26
TORSDOF 6
ENDMDL
MODEL 7
REMARK VINA RESULT:      -7.3      1.066      1.382
REMARK  Name = 
REMARK  6 active torsions:
REMARK  status: ('A' for Active; 'I' for Inactive)
REMARK    1  A    between atoms: C_2  and  C_3
REMARK    2  A    between atoms: C_4  and  C_5
REMARK    3  A    between atoms: C_8  and  O_9
REMARK    4  A    between atoms: O_9  and  C_10
REMARK    5  A    between atoms: C_22  and  C_23
REMARK    6  A    between atoms: C_23  and  C_24
REMARK                            x       y       z     vdW  Elec       q    Type
REMARK                         _______ _______ _______ _____ _____    ______ ____
ROOT
ATOM      1  C   UNL     1       2.904   5.934  18.610  0.00  0.00    +0.000 A 
ATOM      2  C   UNL     1       2.926   7.237  18.220  0.00  0.00    +0.000 A 
ATOM      3  C   UNL     1       3.927   7.713  17.262  0.00  0.00    +0.000 A 
ATOM      4  C   UNL     1       4.842   6.862  16.775  0.00  0.00    +0.000 A 
ATOM      5  N   UNL     1       4.831   5.536  17.193  0.00  0.00    +0.000 N 
ATOM      6  C   UNL     1       5.673   4.488  16.857  0.00  0.00    +0.000 A 
ATOM      7  C   UNL     1       5.207   3.414  17.585  0.00  0.00    +0.000 A 
ATOM      8  N   UNL     1       4.116   3.755  18.339  0.00  0.00    +0.000 NA
ATOM      9  C   UNL     1       3.894   5.030  18.099  0.00  0.00    +0.000 A 
ENDROOT
BRANCH   2  10
ATOM     10  C   UNL     1       1.975   8.181  18.829  0.00  0.00    +0.000 A 
ATOM     11  C   UNL     1       1.157   8.992  18.045  0.00  0.00    +0.000 A 
ATOM     12  C   UNL     1       0.244   9.847  18.668  0.00  0.00    +0.000 A 
ATOM     13  C   UNL     1       0.130   9.901  20.069  0.00  0.00    +0.000 A 
ATOM     14  C   UNL     1       0.972   9.102  20.848  0.00  0.00    +0.000 A 
ATOM     15 CL   UNL     1       1.050   9.119  22.571  0.00  0.00    +0.000 Cl
ATOM     16  C   UNL     1       1.885   8.247  20.223  0.00  0.00    +0.000 A 
BRANCH  13  17
ATOM     17  O   UNL     1      -0.776  10.834  20.483  0.00  0.00    +0.000 OA
BRANCH  17  18
ATOM     18  C   UNL     1      -0.424  12.219  20.581  0.00  0.00    +0.000 C 
ATOM     19  C   UNL     1       1.089  12.450  20.540  0.00  0.00    +0.000 C 
ATOM     20  C   UNL     1       1.455  13.843  21.026  0.00  0.00    +0.000 C 
ATOM     21  O   UNL     1       0.903  14.085  22.319  0.00  0.00    +0.000 OA
ATOM     22  C   UNL     1      -0.521  14.073  22.295  0.00  0.00    +0.000 C 
ATOM     23  C   UNL     1      -1.033  12.701  21.902  0.00  0.00    +0.000 C 
ENDBRANCH  17  18
ENDBRANCH  13  17
ENDBRANCH   2  10
BRANCH   1  25
ATOM     24  N   UNL     1       1.007   5.042  20.438  0.00  0.00    +0.000 NA
ATOM     25  C   UNL     1       1.867   5.447  19.609  0.00  0.00    +0.000 C 
ENDBRANCH   1  25
BRANCH   6  26
ATOM     26  C   UNL     1       6.797   4.557  15.864  0.00  0.00    +0.000 C 
BRANCH  26  27
ATOM     27  C   UNL     1       6.417   4.431  14.390  0.00  0.00    +0.000 C 
ATOM     28  F   UNL     1       7.282   5.054  13.562  0.00  0.00    +0.000 F 
ATOM     29  F   UNL     1       6.345   3.135  14.012  0.00  0.00    +0.000 F 
ATOM     30  F   UNL     1       5.198   4.982  14.178  0.00  0.00    +0.000 F 
ENDBRANCH  26  27
ENDBRANCH   6  26
TORSDOF 6
ENDMDL
MODEL 8
REMARK VINA RESULT:      -7.3      2.967      4.124
REMARK  Name = 
REMARK  6 active torsions:
REMARK  status: ('A' for Active; 'I' for Inactive)
REMARK    1  A    between atoms: C_2  and  C_3
REMARK    2  A    between atoms: C_4  and  C_5
REMARK    3  A    between atoms: C_8  and  O_9
REMARK    4  A    between atoms: O_9  and  C_10
REMARK    5  A    between atoms: C_22  and  C_23
REMARK    6  A    between atoms: C_23  and  C_24
REMARK                            x       y       z     vdW  Elec       q    Type
REMARK                         _______ _______ _______ _____ _____    ______ ____
ROOT
ATOM      1  C   UNL     1       2.225   8.072  18.954  0.00  0.00    +0.000 A 
ATOM      2  C   UNL     1       1.454   7.971  20.070  0.00  0.00    +0.000 A 
ATOM      3  C   UNL     1       1.375   6.710  20.812  0.00  0.00    +0.000 A 
ATOM      4  C   UNL     1       2.054   5.638  20.379  0.00  0.00    +0.000 A 
ATOM      5  N   UNL     1       2.824   5.738  19.225  0.00  0.00    +0.000 N 
ATOM      6  C   UNL     1       3.586   4.780  18.576  0.00  0.00    +0.000 A 
ATOM      7  C   UNL     1       4.108   5.430  17.478  0.00  0.00    +0.000 A 
ATOM      8  N   UNL     1       3.710   6.739  17.434  0.00  0.00    +0.000 NA
ATOM      9  C   UNL     1       2.940   6.919  18.487  0.00  0.00    +0.000 A 
ENDROOT
BRANCH   2  10
ATOM     10  C   UNL     1       0.642   9.127  20.485  0.00  0.00    +0.000 A 
ATOM     11  C   UNL     1       0.764   9.680  21.757  0.00  0.00    +0.000 A 
ATOM     12  C   UNL     1      -0.002  10.799  22.092  0.00  0.00    +0.000 A 
ATOM     13  C   UNL     1      -0.889  11.382  21.170  0.00  0.00    +0.000 A 
ATOM     14  C   UNL     1      -1.024  10.806  19.904  0.00  0.00    +0.000 A 
ATOM     15 CL   UNL     1      -2.138  11.315  18.689  0.00  0.00    +0.000 Cl
ATOM     16  C   UNL     1      -0.256   9.686  19.569  0.00  0.00    +0.000 A 
BRANCH  13  17
ATOM     17  O   UNL     1      -1.584  12.429  21.703  0.00  0.00    +0.000 OA
BRANCH  17  18
ATOM     18  C   UNL     1      -2.910  12.256  22.216  0.00  0.00    +0.000 C 
ATOM     19  C   UNL     1      -3.948  13.101  21.472  0.00  0.00    +0.000 C 
ATOM     20  C   UNL     1      -5.247  13.207  22.253  0.00  0.00    +0.000 C 
ATOM     21  O   UNL     1      -5.001  13.689  23.573  0.00  0.00    +0.000 OA
ATOM     22  C   UNL     1      -4.200  12.781  24.324  0.00  0.00    +0.000 C 
ATOM     23  C   UNL     1      -2.827  12.641  23.697  0.00  0.00    +0.000 C 
ENDBRANCH  17  18
ENDBRANCH  13  17
ENDBRANCH   2  10
BRANCH   1  25
ATOM     24  N   UNL     1       2.360  10.468  17.549  0.00  0.00    +0.000 NA
ATOM     25  C   UNL     1       2.300   9.382  18.186  0.00  0.00    +0.000 C 
ENDBRANCH   1  25
BRANCH   6  26
ATOM     26  C   UNL     1       3.803   3.371  19.048  0.00  0.00    +0.000 C 
BRANCH  26  27
ATOM     27  C   UNL     1       2.905   2.299  18.435  0.00  0.00    +0.000 C 
ATOM     28  F   UNL     1       2.203   2.737  17.369  0.00  0.00    +0.000 F 
ATOM     29  F   UNL     1       3.624   1.225  18.041  0.00  0.00    +0.000 F 
ATOM     30  F   UNL     1       2.006   1.868  19.352  0.00  0.00    +0.000 F 
ENDBRANCH  26  27
ENDBRANCH   6  26
TORSDOF 6
ENDMDL
MODEL 9
REMARK VINA RESULT:      -7.2      2.690      3.931
REMARK  Name = 
REMARK  6 active torsions:
REMARK  status: ('A' for Active; 'I' for Inactive)
REMARK    1  A    between atoms: C_2  and  C_3
REMARK    2  A    between atoms: C_4  and  C_5
REMARK    3  A    between atoms: C_8  and  O_9
REMARK    4  A    between atoms: O_9  and  C_10
REMARK    5  A    between atoms: C_22  and  C_23
REMARK    6  A    between atoms: C_23  and  C_24
REMARK                            x       y       z     vdW  Elec       q    Type
REMARK                         _______ _______ _______ _____ _____    ______ ____
ROOT
ATOM      1  C   UNL     1       1.153   8.365  19.986  0.00  0.00    +0.000 A 
ATOM      2  C   UNL     1       1.127   9.426  19.135  0.00  0.00    +0.000 A 
ATOM      3  C   UNL     1       1.960   9.438  17.930  0.00  0.00    +0.000 A 
ATOM      4  C   UNL     1       2.771   8.403  17.669  0.00  0.00    +0.000 A 
ATOM      5  N   UNL     1       2.814   7.330  18.552  0.00  0.00    +0.000 N 
ATOM      6  C   UNL     1       3.575   6.173  18.514  0.00  0.00    +0.000 A 
ATOM      7  C   UNL     1       3.224   5.482  19.654  0.00  0.00    +0.000 A 
ATOM      8  N   UNL     1       2.277   6.157  20.378  0.00  0.00    +0.000 NA
ATOM      9  C   UNL     1       2.033   7.265  19.711  0.00  0.00    +0.000 A 
ENDROOT
BRANCH   2  10
ATOM     10  C   UNL     1       0.301  10.595  19.477  0.00  0.00    +0.000 A 
ATOM     11  C   UNL     1       0.798  11.626  20.271  0.00  0.00    +0.000 A 
ATOM     12  C   UNL     1      -0.011  12.733  20.539  0.00  0.00    +0.000 A 
ATOM     13  C   UNL     1      -1.315  12.830  20.021  0.00  0.00    +0.000 A 
ATOM     14  C   UNL     1      -1.815  11.779  19.246  0.00  0.00    +0.000 A 
ATOM     15 CL   UNL     1      -3.420  11.675  18.623  0.00  0.00    +0.000 Cl
ATOM     16  C   UNL     1      -1.004  10.672  18.978  0.00  0.00    +0.000 A 
BRANCH  13  17
ATOM     17  O   UNL     1      -1.961  13.957  20.440  0.00  0.00    +0.000 OA
BRANCH  17  18
ATOM     18  C   UNL     1      -2.770  13.952  21.622  0.00  0.00    +0.000 C 
ATOM     19  C   UNL     1      -2.533  12.719  22.498  0.00  0.00    +0.000 C 
ATOM     20  C   UNL     1      -3.645  12.534  23.517  0.00  0.00    +0.000 C 
ATOM     21  O   UNL     1      -4.917  12.506  22.873  0.00  0.00    +0.000 OA
ATOM     22  C   UNL     1      -5.212  13.745  22.235  0.00  0.00    +0.000 C 
ATOM     23  C   UNL     1      -4.218  14.020  21.124  0.00  0.00    +0.000 C 
ENDBRANCH  17  18
ENDBRANCH  13  17
ENDBRANCH   2  10
BRANCH   1  25
ATOM     24  N   UNL     1      -0.426   8.355  22.274  0.00  0.00    +0.000 NA
ATOM     25  C   UNL     1       0.291   8.360  21.237  0.00  0.00    +0.000 C 
ENDBRANCH   1  25
BRANCH   6  26
ATOM     26  C   UNL     1       4.520   5.787  17.413  0.00  0.00    +0.000 C 
BRANCH  26  27
ATOM     27  C   UNL     1       5.976   6.216  17.578  0.00  0.00    +0.000 C 
ATOM     28  F   UNL     1       6.473   5.952  18.806  0.00  0.00    +0.000 F 
ATOM     29  F   UNL     1       6.772   5.606  16.673  0.00  0.00    +0.000 F 
ATOM     30  F   UNL     1       6.091   7.551  17.383  0.00  0.00    +0.000 F 
ENDBRANCH  26  27
ENDBRANCH   6  26
TORSDOF 6
ENDMDL
