MODEL 1
REMARK VINA RESULT:      -7.7      0.000      0.000
REMARK  Name = 
REMARK  9 active torsions:
REMARK  status: ('A' for Active; 'I' for Inactive)
REMARK    1  A    between atoms: C_1  and  C_2
REMARK    2  A    between atoms: C_2  and  C_3
REMARK    3  A    between atoms: C_2  and  C_4
REMARK    4  A    between atoms: C_2  and  N_5
REMARK    5  A    between atoms: C_6  and  C_8
REMARK    6  A    between atoms: C_14  and  C_15
REMARK    7  A    between atoms: C_14  and  C_16
REMARK    8  A    between atoms: C_19  and  C_20
REMARK    9  A    between atoms: C_19  and  C_21
REMARK                            x       y       z     vdW  Elec       q    Type
REMARK                         _______ _______ _______ _____ _____    ______ ____
ROOT
ATOM      1  C   UNL     1       2.678   7.825  18.142  0.00  0.00    +0.000 A 
ATOM      2  C   UNL     1       3.826   7.929  17.369  0.00  0.00    +0.000 A 
ATOM      3  C   UNL     1       4.575   6.787  17.089  0.00  0.00    +0.000 A 
ATOM      4  C   UNL     1       4.194   5.511  17.560  0.00  0.00    +0.000 A 
ATOM      5  C   UNL     1       3.063   5.413  18.398  0.00  0.00    +0.000 A 
ATOM      6  C   UNL     1       2.304   6.583  18.650  0.00  0.00    +0.000 A 
ATOM      7  C   UNL     1       2.592   4.084  18.994  0.00  0.00    +0.000 C 
ATOM      8  C   UNL     1       1.280   3.667  18.293  0.00  0.00    +0.000 C 
ATOM      9  C   UNL     1       2.315   4.229  20.512  0.00  0.00    +0.000 C 
ATOM     10  C   UNL     1       3.654   2.968  18.867  0.00  0.00    +0.000 C 
ATOM     11  C   UNL     1       4.370   2.946  17.529  0.00  0.00    +0.000 C 
ATOM     12  C   UNL     1       5.019   4.292  17.130  0.00  0.00    +0.000 C 
ATOM     13  C   UNL     1       6.435   4.405  17.737  0.00  0.00    +0.000 C 
ATOM     14  C   UNL     1       5.154   4.252  15.586  0.00  0.00    +0.000 C 
ENDROOT
BRANCH   1  16
ATOM     15  N   UNL     1       1.136   9.152  19.506  0.00  0.00    +0.000 N 
ATOM     16  C   UNL     1       1.839   9.045  18.317  0.00  0.00    +0.000 C 
ATOM     17  O   UNL     1       1.821   9.883  17.428  0.00  0.00    +0.000 OA
ATOM     18  H   UNL     1       1.356   8.507  20.249  0.00  0.00    +0.000 HD
BRANCH  15  20
ATOM     19  C   UNL     1      -0.935  10.344  18.856  0.00  0.00    +0.000 C 
ATOM     20  C   UNL     1       0.259  10.292  19.824  0.00  0.00    +0.000 C 
ATOM     21  C   UNL     1       1.040  11.616  19.779  0.00  0.00    +0.000 C 
ATOM     22  C   UNL     1      -0.293  10.106  21.249  0.00  0.00    +0.000 C 
ENDBRANCH  15  20
ENDBRANCH   1  16
TORSDOF 2
ENDMDL
MODEL 2
REMARK VINA RESULT:      -7.1      2.043      6.858
REMARK  Name = 
REMARK  9 active torsions:
REMARK  status: ('A' for Active; 'I' for Inactive)
REMARK    1  A    between atoms: C_1  and  C_2
REMARK    2  A    between atoms: C_2  and  C_3
REMARK    3  A    between atoms: C_2  and  C_4
REMARK    4  A    between atoms: C_2  and  N_5
REMARK    5  A    between atoms: C_6  and  C_8
REMARK    6  A    between atoms: C_14  and  C_15
REMARK    7  A    between atoms: C_14  and  C_16
REMARK    8  A    between atoms: C_19  and  C_20
REMARK    9  A    between atoms: C_19  and  C_21
REMARK                            x       y       z     vdW  Elec       q    Type
REMARK                         _______ _______ _______ _____ _____    ______ ____
ROOT
ATOM      1  C   UNL     1       2.456   7.397  18.861  0.00  0.00    +0.000 A 
ATOM      2  C   UNL     1       2.461   8.277  17.788  0.00  0.00    +0.000 A 
ATOM      3  C   UNL     1       1.836   9.517  17.909  0.00  0.00    +0.000 A 
ATOM      4  C   UNL     1       1.201   9.919  19.106  0.00  0.00    +0.000 A 
ATOM      5  C   UNL     1       1.141   9.002  20.176  0.00  0.00    +0.000 A 
ATOM      6  C   UNL     1       1.802   7.756  20.038  0.00  0.00    +0.000 A 
ATOM      7  C   UNL     1       0.440   9.323  21.499  0.00  0.00    +0.000 C 
ATOM      8  C   UNL     1       1.515   9.508  22.593  0.00  0.00    +0.000 C 
ATOM      9  C   UNL     1      -0.500   8.166  21.921  0.00  0.00    +0.000 C 
ATOM     10  C   UNL     1      -0.458  10.579  21.403  0.00  0.00    +0.000 C 
ATOM     11  C   UNL     1       0.157  11.720  20.615  0.00  0.00    +0.000 C 
ATOM     12  C   UNL     1       0.619  11.335  19.190  0.00  0.00    +0.000 C 
ATOM     13  C   UNL     1      -0.556  11.454  18.195  0.00  0.00    +0.000 C 
ATOM     14  C   UNL     1       1.695  12.382  18.801  0.00  0.00    +0.000 C 
ENDROOT
BRANCH   1  16
ATOM     15  N   UNL     1       3.895   5.927  17.532  0.00  0.00    +0.000 N 
ATOM     16  C   UNL     1       3.238   6.134  18.734  0.00  0.00    +0.000 C 
ATOM     17  O   UNL     1       3.273   5.363  19.681  0.00  0.00    +0.000 OA
ATOM     18  H   UNL     1       3.957   6.696  16.885  0.00  0.00    +0.000 HD
BRANCH  15  20
ATOM     19  C   UNL     1       3.830   3.459  17.328  0.00  0.00    +0.000 C 
ATOM     20  C   UNL     1       4.699   4.726  17.251  0.00  0.00    +0.000 C 
ATOM     21  C   UNL     1       5.885   4.618  18.224  0.00  0.00    +0.000 C 
ATOM     22  C   UNL     1       5.258   4.831  15.820  0.00  0.00    +0.000 C 
ENDBRANCH  15  20
ENDBRANCH   1  16
TORSDOF 2
ENDMDL
MODEL 3
REMARK VINA RESULT:      -7.1      1.475      1.913
REMARK  Name = 
REMARK  9 active torsions:
REMARK  status: ('A' for Active; 'I' for Inactive)
REMARK    1  A    between atoms: C_1  and  C_2
REMARK    2  A    between atoms: C_2  and  C_3
REMARK    3  A    between atoms: C_2  and  C_4
REMARK    4  A    between atoms: C_2  and  N_5
REMARK    5  A    between atoms: C_6  and  C_8
REMARK    6  A    between atoms: C_14  and  C_15
REMARK    7  A    between atoms: C_14  and  C_16
REMARK    8  A    between atoms: C_19  and  C_20
REMARK    9  A    between atoms: C_19  and  C_21
REMARK                            x       y       z     vdW  Elec       q    Type
REMARK                         _______ _______ _______ _____ _____    ______ ____
ROOT
ATOM      1  C   UNL     1       2.031   7.303  19.735  0.00  0.00    +0.000 A 
ATOM      2  C   UNL     1       2.991   7.530  18.758  0.00  0.00    +0.000 A 
ATOM      3  C   UNL     1       3.705   6.456  18.230  0.00  0.00    +0.000 A 
ATOM      4  C   UNL     1       3.473   5.127  18.649  0.00  0.00    +0.000 A 
ATOM      5  C   UNL     1       2.543   4.901  19.685  0.00  0.00    +0.000 A 
ATOM      6  C   UNL     1       1.812   6.005  20.192  0.00  0.00    +0.000 A 
ATOM      7  C   UNL     1       2.249   3.505  20.240  0.00  0.00    +0.000 C 
ATOM      8  C   UNL     1       0.836   3.079  19.783  0.00  0.00    +0.000 C 
ATOM      9  C   UNL     1       2.286   3.508  21.790  0.00  0.00    +0.000 C 
ATOM     10  C   UNL     1       3.300   2.460  19.799  0.00  0.00    +0.000 C 
ATOM     11  C   UNL     1       3.726   2.586  18.348  0.00  0.00    +0.000 C 
ATOM     12  C   UNL     1       4.233   3.992  17.952  0.00  0.00    +0.000 C 
ATOM     13  C   UNL     1       5.738   4.128  18.268  0.00  0.00    +0.000 C 
ATOM     14  C   UNL     1       4.049   4.087  16.415  0.00  0.00    +0.000 C 
ENDROOT
BRANCH   1  16
ATOM     15  N   UNL     1       1.201   9.578  19.369  0.00  0.00    +0.000 N 
ATOM     16  C   UNL     1       1.205   8.459  20.186  0.00  0.00    +0.000 C 
ATOM     17  O   UNL     1       0.573   8.363  21.227  0.00  0.00    +0.000 OA
ATOM     18  H   UNL     1       1.603   9.497  18.449  0.00  0.00    +0.000 HD
BRANCH  15  20
ATOM     19  C   UNL     1       0.646  11.205  21.153  0.00  0.00    +0.000 C 
ATOM     20  C   UNL     1       0.443  10.801  19.682  0.00  0.00    +0.000 C 
ATOM     21  C   UNL     1      -1.054  10.612  19.384  0.00  0.00    +0.000 C 
ATOM     22  C   UNL     1       0.970  11.947  18.799  0.00  0.00    +0.000 C 
ENDBRANCH  15  20
ENDBRANCH   1  16
TORSDOF 2
ENDMDL
MODEL 4
REMARK VINA RESULT:      -7.1      1.948      6.784
REMARK  Name = 
REMARK  9 active torsions:
REMARK  status: ('A' for Active; 'I' for Inactive)
REMARK    1  A    between atoms: C_1  and  C_2
REMARK    2  A    between atoms: C_2  and  C_3
REMARK    3  A    between atoms: C_2  and  C_4
REMARK    4  A    between atoms: C_2  and  N_5
REMARK    5  A    between atoms: C_6  and  C_8
REMARK    6  A    between atoms: C_14  and  C_15
REMARK    7  A    between atoms: C_14  and  C_16
REMARK    8  A    between atoms: C_19  and  C_20
REMARK    9  A    between atoms: C_19  and  C_21
REMARK                            x       y       z     vdW  Elec       q    Type
REMARK                         _______ _______ _______ _____ _____    ______ ____
ROOT
ATOM      1  C   UNL     1       2.407   7.411  18.802  0.00  0.00    +0.000 A 
ATOM      2  C   UNL     1       2.425   8.313  17.748  0.00  0.00    +0.000 A 
ATOM      3  C   UNL     1       1.831   9.565  17.901  0.00  0.00    +0.000 A 
ATOM      4  C   UNL     1       1.215   9.956  19.111  0.00  0.00    +0.000 A 
ATOM      5  C   UNL     1       1.141   9.018  20.161  0.00  0.00    +0.000 A 
ATOM      6  C   UNL     1       1.772   7.760  19.992  0.00  0.00    +0.000 A 
ATOM      7  C   UNL     1       0.459   9.327  21.496  0.00  0.00    +0.000 C 
ATOM      8  C   UNL     1       1.546   9.463  22.586  0.00  0.00    +0.000 C 
ATOM      9  C   UNL     1      -0.505   8.184  21.901  0.00  0.00    +0.000 C 
ATOM     10  C   UNL     1      -0.410  10.605  21.435  0.00  0.00    +0.000 C 
ATOM     11  C   UNL     1       0.226  11.748  20.666  0.00  0.00    +0.000 C 
ATOM     12  C   UNL     1       0.668  11.383  19.230  0.00  0.00    +0.000 C 
ATOM     13  C   UNL     1      -0.512  11.551  18.246  0.00  0.00    +0.000 C 
ATOM     14  C   UNL     1       1.765  12.413  18.854  0.00  0.00    +0.000 C 
ENDROOT
BRANCH   1  16
ATOM     15  N   UNL     1       2.402   4.982  18.483  0.00  0.00    +0.000 N 
ATOM     16  C   UNL     1       3.158   6.133  18.643  0.00  0.00    +0.000 C 
ATOM     17  O   UNL     1       4.379   6.160  18.646  0.00  0.00    +0.000 OA
ATOM     18  H   UNL     1       1.414   5.082  18.311  0.00  0.00    +0.000 HD
BRANCH  15  20
ATOM     19  C   UNL     1       3.812   3.259  19.568  0.00  0.00    +0.000 C 
ATOM     20  C   UNL     1       2.996   3.644  18.322  0.00  0.00    +0.000 C 
ATOM     21  C   UNL     1       3.880   3.582  17.067  0.00  0.00    +0.000 C 
ATOM     22  C   UNL     1       1.859   2.618  18.163  0.00  0.00    +0.000 C 
ENDBRANCH  15  20
ENDBRANCH   1  16
TORSDOF 2
ENDMDL
MODEL 5
REMARK VINA RESULT:      -6.9      0.964      2.893
REMARK  Name = 
REMARK  9 active torsions:
REMARK  status: ('A' for Active; 'I' for Inactive)
REMARK    1  A    between atoms: C_1  and  C_2
REMARK    2  A    between atoms: C_2  and  C_3
REMARK    3  A    between atoms: C_2  and  C_4
REMARK    4  A    between atoms: C_2  and  N_5
REMARK    5  A    between atoms: C_6  and  C_8
REMARK    6  A    between atoms: C_14  and  C_15
REMARK    7  A    between atoms: C_14  and  C_16
REMARK    8  A    between atoms: C_19  and  C_20
REMARK    9  A    between atoms: C_19  and  C_21
REMARK                            x       y       z     vdW  Elec       q    Type
REMARK                         _______ _______ _______ _____ _____    ______ ____
ROOT
ATOM      1  C   UNL     1       2.389   7.760  18.230  0.00  0.00    +0.000 A 
ATOM      2  C   UNL     1       1.813   6.700  18.916  0.00  0.00    +0.000 A 
ATOM      3  C   UNL     1       2.417   5.444  18.877  0.00  0.00    +0.000 A 
ATOM      4  C   UNL     1       3.616   5.214  18.167  0.00  0.00    +0.000 A 
ATOM      5  C   UNL     1       4.168   6.274  17.418  0.00  0.00    +0.000 A 
ATOM      6  C   UNL     1       3.550   7.547  17.490  0.00  0.00    +0.000 A 
ATOM      7  C   UNL     1       5.439   6.118  16.580  0.00  0.00    +0.000 C 
ATOM      8  C   UNL     1       6.583   6.893  17.271  0.00  0.00    +0.000 C 
ATOM      9  C   UNL     1       5.238   6.699  15.158  0.00  0.00    +0.000 C 
ATOM     10  C   UNL     1       5.835   4.636  16.375  0.00  0.00    +0.000 C 
ATOM     11  C   UNL     1       5.676   3.777  17.616  0.00  0.00    +0.000 C 
ATOM     12  C   UNL     1       4.266   3.828  18.251  0.00  0.00    +0.000 C 
ATOM     13  C   UNL     1       3.337   2.795  17.576  0.00  0.00    +0.000 C 
ATOM     14  C   UNL     1       4.459   3.414  19.733  0.00  0.00    +0.000 C 
ENDROOT
BRANCH   1  16
ATOM     15  N   UNL     1       1.004   9.312  19.523  0.00  0.00    +0.000 N 
ATOM     16  C   UNL     1       1.782   9.112  18.394  0.00  0.00    +0.000 C 
ATOM     17  O   UNL     1       2.006   9.967  17.551  0.00  0.00    +0.000 OA
ATOM     18  H   UNL     1       1.027   8.612  20.247  0.00  0.00    +0.000 HD
BRANCH  15  20
ATOM     19  C   UNL     1      -0.815  10.844  18.828  0.00  0.00    +0.000 C 
ATOM     20  C   UNL     1       0.331  10.587  19.822  0.00  0.00    +0.000 C 
ATOM     21  C   UNL     1       1.330  11.755  19.796  0.00  0.00    +0.000 C 
ATOM     22  C   UNL     1      -0.276  10.504  21.234  0.00  0.00    +0.000 C 
ENDBRANCH  15  20
ENDBRANCH   1  16
TORSDOF 2
ENDMDL
MODEL 6
REMARK VINA RESULT:      -6.7      1.026      1.426
REMARK  Name = 
REMARK  9 active torsions:
REMARK  status: ('A' for Active; 'I' for Inactive)
REMARK    1  A    between atoms: C_1  and  C_2
REMARK    2  A    between atoms: C_2  and  C_3
REMARK    3  A    between atoms: C_2  and  C_4
REMARK    4  A    between atoms: C_2  and  N_5
REMARK    5  A    between atoms: C_6  and  C_8
REMARK    6  A    between atoms: C_14  and  C_15
REMARK    7  A    between atoms: C_14  and  C_16
REMARK    8  A    between atoms: C_19  and  C_20
REMARK    9  A    between atoms: C_19  and  C_21
REMARK                            x       y       z     vdW  Elec       q    Type
REMARK                         _______ _______ _______ _____ _____    ______ ____
ROOT
ATOM      1  C   UNL     1       2.442   7.543  18.791  0.00  0.00    +0.000 A 
ATOM      2  C   UNL     1       3.468   7.897  17.926  0.00  0.00    +0.000 A 
ATOM      3  C   UNL     1       4.265   6.905  17.358  0.00  0.00    +0.000 A 
ATOM      4  C   UNL     1       4.053   5.534  17.625  0.00  0.00    +0.000 A 
ATOM      5  C   UNL     1       3.052   5.176  18.552  0.00  0.00    +0.000 A 
ATOM      6  C   UNL     1       2.240   6.200  19.100  0.00  0.00    +0.000 A 
ATOM      7  C   UNL     1       2.771   3.723  18.943  0.00  0.00    +0.000 C 
ATOM      8  C   UNL     1       1.418   3.300  18.328  0.00  0.00    +0.000 C 
ATOM      9  C   UNL     1       2.683   3.572  20.482  0.00  0.00    +0.000 C 
ATOM     10  C   UNL     1       3.895   2.761  18.492  0.00  0.00    +0.000 C 
ATOM     11  C   UNL     1       4.431   3.045  17.101  0.00  0.00    +0.000 C 
ATOM     12  C   UNL     1       4.912   4.499  16.887  0.00  0.00    +0.000 C 
ATOM     13  C   UNL     1       6.380   4.651  17.342  0.00  0.00    +0.000 C 
ATOM     14  C   UNL     1       4.849   4.742  15.357  0.00  0.00    +0.000 C 
ENDROOT
BRANCH   1  16
ATOM     15  N   UNL     1       0.813   9.311  18.322  0.00  0.00    +0.000 N 
ATOM     16  C   UNL     1       1.537   8.621  19.282  0.00  0.00    +0.000 C 
ATOM     17  O   UNL     1       1.466   8.833  20.482  0.00  0.00    +0.000 OA
ATOM     18  H   UNL     1       0.800   8.947  17.383  0.00  0.00    +0.000 HD
BRANCH  15  20
ATOM     19  C   UNL     1       0.611  11.764  18.609  0.00  0.00    +0.000 C 
ATOM     20  C   UNL     1      -0.115  10.407  18.647  0.00  0.00    +0.000 C 
ATOM     21  C   UNL     1      -0.763  10.189  20.024  0.00  0.00    +0.000 C 
ATOM     22  C   UNL     1      -1.232  10.437  17.588  0.00  0.00    +0.000 C 
ENDBRANCH  15  20
ENDBRANCH   1  16
TORSDOF 2
ENDMDL
MODEL 7
REMARK VINA RESULT:      -6.5      1.575      3.430
REMARK  Name = 
REMARK  9 active torsions:
REMARK  status: ('A' for Active; 'I' for Inactive)
REMARK    1  A    between atoms: C_1  and  C_2
REMARK    2  A    between atoms: C_2  and  C_3
REMARK    3  A    between atoms: C_2  and  C_4
REMARK    4  A    between atoms: C_2  and  N_5
REMARK    5  A    between atoms: C_6  and  C_8
REMARK    6  A    between atoms: C_14  and  C_15
REMARK    7  A    between atoms: C_14  and  C_16
REMARK    8  A    between atoms: C_19  and  C_20
REMARK    9  A    between atoms: C_19  and  C_21
REMARK                            x       y       z     vdW  Elec       q    Type
REMARK                         _______ _______ _______ _____ _____    ______ ____
ROOT
ATOM      1  C   UNL     1       1.749   7.139  20.182  0.00  0.00    +0.000 A 
ATOM      2  C   UNL     1       0.975   6.158  20.786  0.00  0.00    +0.000 A 
ATOM      3  C   UNL     1       1.329   4.817  20.648  0.00  0.00    +0.000 A 
ATOM      4  C   UNL     1       2.471   4.418  19.918  0.00  0.00    +0.000 A 
ATOM      5  C   UNL     1       3.223   5.408  19.252  0.00  0.00    +0.000 A 
ATOM      6  C   UNL     1       2.857   6.767  19.424  0.00  0.00    +0.000 A 
ATOM      7  C   UNL     1       4.451   5.078  18.401  0.00  0.00    +0.000 C 
ATOM      8  C   UNL     1       5.714   5.566  19.146  0.00  0.00    +0.000 C 
ATOM      9  C   UNL     1       4.381   5.794  17.028  0.00  0.00    +0.000 C 
ATOM     10  C   UNL     1       4.561   3.568  18.080  0.00  0.00    +0.000 C 
ATOM     11  C   UNL     1       4.227   2.663  19.251  0.00  0.00    +0.000 C 
ATOM     12  C   UNL     1       2.846   2.932  19.893  0.00  0.00    +0.000 C 
ATOM     13  C   UNL     1       1.745   2.150  19.143  0.00  0.00    +0.000 C 
ATOM     14  C   UNL     1       2.939   2.376  21.337  0.00  0.00    +0.000 C 
ENDROOT
BRANCH   1  16
ATOM     15  N   UNL     1       0.703   9.235  19.466  0.00  0.00    +0.000 N 
ATOM     16  C   UNL     1       1.408   8.565  20.453  0.00  0.00    +0.000 C 
ATOM     17  O   UNL     1       1.748   9.063  21.515  0.00  0.00    +0.000 OA
ATOM     18  H   UNL     1       0.311   8.694  18.711  0.00  0.00    +0.000 HD
BRANCH  15  20
ATOM     19  C   UNL     1       1.507  11.575  19.362  0.00  0.00    +0.000 C 
ATOM     20  C   UNL     1       0.300  10.647  19.582  0.00  0.00    +0.000 C 
ATOM     21  C   UNL     1      -0.344  10.925  20.949  0.00  0.00    +0.000 C 
ATOM     22  C   UNL     1      -0.739  10.953  18.487  0.00  0.00    +0.000 C 
ENDBRANCH  15  20
ENDBRANCH   1  16
TORSDOF 2
ENDMDL
