MODEL 1
REMARK VINA RESULT:      -7.5      0.000      0.000
REMARK  Name = 
REMARK  16 active torsions:
REMARK  status: ('A' for Active; 'I' for Inactive)
REMARK    1  A    between atoms: C_1  and  O_2
REMARK    2  A    between atoms: O_2  and  C_3
REMARK    3  A    between atoms: C_6  and  C_7
REMARK    4  A    between atoms: C_7  and  C_8
REMARK    5  A    between atoms: C_8  and  N_9
REMARK    6  A    between atoms: C_10  and  C_12
REMARK    7  A    between atoms: C_12  and  N_13
REMARK    8  A    between atoms: N_13  and  C_14
REMARK    9  A    between atoms: N_13  and  S_24
REMARK   10  A    between atoms: C_17  and  O_18
REMARK   11  A    between atoms: O_18  and  C_19
REMARK   12  A    between atoms: C_20  and  O_21
REMARK   13  A    between atoms: O_21  and  C_22
REMARK   14  A    between atoms: S_24  and  C_25
REMARK   15  A    between atoms: C_29  and  O_30
REMARK   16  A    between atoms: O_30  and  C_31
REMARK                            x       y       z     vdW  Elec       q    Type
REMARK                         _______ _______ _______ _____ _____    ______ ____
ROOT
ATOM      1  N   UNL     1       2.357   6.855  18.441  0.00  0.00    +0.000 N 
ATOM      2  C   UNL     1       2.192   5.790  19.317  0.00  0.00    +0.000 C 
ATOM      3  O   UNL     1       1.859   5.932  20.493  0.00  0.00    +0.000 OA
ATOM      4  H   UNL     1       3.051   6.702  17.709  0.00  0.00    +0.000 HD
ENDROOT
BRANCH   1   5
ATOM      5  C   UNL     1       2.199   8.222  18.925  0.00  0.00    +0.000 C 
BRANCH   5   6
ATOM      6  C   UNL     1       1.676   9.194  17.858  0.00  0.00    +0.000 C 
BRANCH   6  10
ATOM      7  C   UNL     1      -1.345  11.961  19.296  0.00  0.00    +0.000 A 
ATOM      8  C   UNL     1      -0.014  12.051  19.735  0.00  0.00    +0.000 A 
ATOM      9  C   UNL     1       0.957  11.151  19.292  0.00  0.00    +0.000 A 
ATOM     10  C   UNL     1       0.615  10.114  18.421  0.00  0.00    +0.000 A 
ATOM     11  C   UNL     1      -0.726   9.984  18.038  0.00  0.00    +0.000 A 
ATOM     12  C   UNL     1      -1.715  10.889  18.469  0.00  0.00    +0.000 A 
BRANCH   7  14
ATOM     13  C   UNL     1      -2.728  12.766  21.039  0.00  0.00    +0.000 C 
ATOM     14  O   UNL     1      -2.287  12.875  19.688  0.00  0.00    +0.000 OA
ENDBRANCH   7  14
BRANCH  12  15
ATOM     15  O   UNL     1      -2.952  10.578  17.968  0.00  0.00    +0.000 OA
ATOM     16  C   UNL     1      -3.363  11.146  16.734  0.00  0.00    +0.000 C 
ENDBRANCH  12  15
ENDBRANCH   6  10
ENDBRANCH   5   6
ENDBRANCH   1   5
BRANCH   2  17
ATOM     17  C   UNL     1       2.379   4.410  18.704  0.00  0.00    +0.000 C 
BRANCH  17  18
ATOM     18  N   UNL     1       3.726   3.810  18.776  0.00  0.00    +0.000 N 
BRANCH  18  19
ATOM     19  C   UNL     1       4.706   4.219  17.818  0.00  0.00    +0.000 A 
ATOM     20  C   UNL     1       4.690   3.812  16.493  0.00  0.00    +0.000 A 
ATOM     21  C   UNL     1       5.684   4.283  15.630  0.00  0.00    +0.000 A 
ATOM     22  C   UNL     1       6.697   5.156  16.069  0.00  0.00    +0.000 A 
ATOM     23  C   UNL     1       6.707   5.566  17.416  0.00  0.00    +0.000 A 
ATOM     24  C   UNL     1       5.703   5.091  18.268  0.00  0.00    +0.000 A 
BRANCH  22  25
ATOM     25  O   UNL     1       7.568   5.498  15.065  0.00  0.00    +0.000 OA
ATOM     26  C   UNL     1       7.398   4.921  13.776  0.00  0.00    +0.000 C 
ENDBRANCH  22  25
BRANCH  23  27
ATOM     27  O   UNL     1       7.700   6.406  17.840  0.00  0.00    +0.000 OA
ATOM     28  C   UNL     1       7.550   7.800  17.609  0.00  0.00    +0.000 C 
ENDBRANCH  23  27
ENDBRANCH  18  19
BRANCH  18  29
ATOM     29  S   UNL     1       3.909   2.341  19.569  0.00  0.00    +0.000 S 
ATOM     30  C   UNL     1       2.589   2.397  20.774  0.00  0.00    +0.000 C 
ATOM     31  O   UNL     1       3.576   1.303  18.611  0.00  0.00    +0.000 OA
ATOM     32  O   UNL     1       5.171   2.325  20.270  0.00  0.00    +0.000 OA
ENDBRANCH  18  29
ENDBRANCH  17  18
ENDBRANCH   2  17
TORSDOF 11
ENDMDL
MODEL 2
REMARK VINA RESULT:      -7.4      1.720      2.557
REMARK  Name = 
REMARK  16 active torsions:
REMARK  status: ('A' for Active; 'I' for Inactive)
REMARK    1  A    between atoms: C_1  and  O_2
REMARK    2  A    between atoms: O_2  and  C_3
REMARK    3  A    between atoms: C_6  and  C_7
REMARK    4  A    between atoms: C_7  and  C_8
REMARK    5  A    between atoms: C_8  and  N_9
REMARK    6  A    between atoms: C_10  and  C_12
REMARK    7  A    between atoms: C_12  and  N_13
REMARK    8  A    between atoms: N_13  and  C_14
REMARK    9  A    between atoms: N_13  and  S_24
REMARK   10  A    between atoms: C_17  and  O_18
REMARK   11  A    between atoms: O_18  and  C_19
REMARK   12  A    between atoms: C_20  and  O_21
REMARK   13  A    between atoms: O_21  and  C_22
REMARK   14  A    between atoms: S_24  and  C_25
REMARK   15  A    between atoms: C_29  and  O_30
REMARK   16  A    between atoms: O_30  and  C_31
REMARK                            x       y       z     vdW  Elec       q    Type
REMARK                         _______ _______ _______ _____ _____    ______ ____
ROOT
ATOM      1  N   UNL     1       2.003   6.868  20.253  0.00  0.00    +0.000 N 
ATOM      2  C   UNL     1       2.354   7.025  18.918  0.00  0.00    +0.000 C 
ATOM      3  O   UNL     1       2.579   8.121  18.407  0.00  0.00    +0.000 OA
ATOM      4  H   UNL     1       1.405   6.064  20.445  0.00  0.00    +0.000 HD
ENDROOT
BRANCH   1   5
ATOM      5  C   UNL     1       1.820   8.043  21.097  0.00  0.00    +0.000 C 
BRANCH   5   6
ATOM      6  C   UNL     1       0.348   8.425  21.306  0.00  0.00    +0.000 C 
BRANCH   6  10
ATOM      7  C   UNL     1      -0.689  12.394  19.883  0.00  0.00    +0.000 A 
ATOM      8  C   UNL     1      -0.718  11.286  19.021  0.00  0.00    +0.000 A 
ATOM      9  C   UNL     1      -0.365  10.012  19.468  0.00  0.00    +0.000 A 
ATOM     10  C   UNL     1       0.058   9.815  20.785  0.00  0.00    +0.000 A 
ATOM     11  C   UNL     1       0.151  10.932  21.625  0.00  0.00    +0.000 A 
ATOM     12  C   UNL     1      -0.209  12.223  21.191  0.00  0.00    +0.000 A 
BRANCH   7  14
ATOM     13  C   UNL     1      -0.096  14.401  18.778  0.00  0.00    +0.000 C 
ATOM     14  O   UNL     1      -1.086  13.635  19.460  0.00  0.00    +0.000 OA
ENDBRANCH   7  14
BRANCH  12  15
ATOM     15  O   UNL     1      -0.047  13.162  22.177  0.00  0.00    +0.000 OA
ATOM     16  C   UNL     1      -1.153  13.502  22.999  0.00  0.00    +0.000 C 
ENDBRANCH  12  15
ENDBRANCH   6  10
ENDBRANCH   5   6
ENDBRANCH   1   5
BRANCH   2  17
ATOM     17  C   UNL     1       2.519   5.731  18.134  0.00  0.00    +0.000 C 
BRANCH  17  18
ATOM     18  N   UNL     1       3.749   4.949  18.363  0.00  0.00    +0.000 N 
BRANCH  18  19
ATOM     19  C   UNL     1       4.773   4.980  17.363  0.00  0.00    +0.000 A 
ATOM     20  C   UNL     1       4.809   4.111  16.285  0.00  0.00    +0.000 A 
ATOM     21  C   UNL     1       5.843   4.236  15.352  0.00  0.00    +0.000 A 
ATOM     22  C   UNL     1       6.844   5.217  15.478  0.00  0.00    +0.000 A 
ATOM     23  C   UNL     1       6.800   6.098  16.576  0.00  0.00    +0.000 A 
ATOM     24  C   UNL     1       5.757   5.965  17.500  0.00  0.00    +0.000 A 
BRANCH  22  25
ATOM     25  O   UNL     1       7.759   5.169  14.456  0.00  0.00    +0.000 OA
ATOM     26  C   UNL     1       7.308   4.886  13.137  0.00  0.00    +0.000 C 
ENDBRANCH  22  25
BRANCH  23  27
ATOM     27  O   UNL     1       7.782   7.043  16.700  0.00  0.00    +0.000 OA
ATOM     28  C   UNL     1       7.746   7.910  17.825  0.00  0.00    +0.000 C 
ENDBRANCH  23  27
ENDBRANCH  18  19
BRANCH  18  29
ATOM     29  S   UNL     1       3.698   3.671  19.451  0.00  0.00    +0.000 S 
ATOM     30  C   UNL     1       2.788   2.433  18.535  0.00  0.00    +0.000 C 
ATOM     31  O   UNL     1       5.059   3.188  19.595  0.00  0.00    +0.000 OA
ATOM     32  O   UNL     1       2.920   4.052  20.606  0.00  0.00    +0.000 OA
ENDBRANCH  18  29
ENDBRANCH  17  18
ENDBRANCH   2  17
TORSDOF 11
ENDMDL
MODEL 3
REMARK VINA RESULT:      -7.4      1.589      2.049
REMARK  Name = 
REMARK  16 active torsions:
REMARK  status: ('A' for Active; 'I' for Inactive)
REMARK    1  A    between atoms: C_1  and  O_2
REMARK    2  A    between atoms: O_2  and  C_3
REMARK    3  A    between atoms: C_6  and  C_7
REMARK    4  A    between atoms: C_7  and  C_8
REMARK    5  A    between atoms: C_8  and  N_9
REMARK    6  A    between atoms: C_10  and  C_12
REMARK    7  A    between atoms: C_12  and  N_13
REMARK    8  A    between atoms: N_13  and  C_14
REMARK    9  A    between atoms: N_13  and  S_24
REMARK   10  A    between atoms: C_17  and  O_18
REMARK   11  A    between atoms: O_18  and  C_19
REMARK   12  A    between atoms: C_20  and  O_21
REMARK   13  A    between atoms: O_21  and  C_22
REMARK   14  A    between atoms: S_24  and  C_25
REMARK   15  A    between atoms: C_29  and  O_30
REMARK   16  A    between atoms: O_30  and  C_31
REMARK                            x       y       z     vdW  Elec       q    Type
REMARK                         _______ _______ _______ _____ _____    ______ ____
ROOT
ATOM      1  N   UNL     1       2.730   7.500  18.720  0.00  0.00    +0.000 N 
ATOM      2  C   UNL     1       2.667   6.112  18.757  0.00  0.00    +0.000 C 
ATOM      3  O   UNL     1       1.880   5.457  18.074  0.00  0.00    +0.000 OA
ATOM      4  H   UNL     1       3.024   7.937  19.594  0.00  0.00    +0.000 HD
ENDROOT
BRANCH   1   5
ATOM      5  C   UNL     1       1.789   8.246  17.893  0.00  0.00    +0.000 C 
BRANCH   5   6
ATOM      6  C   UNL     1       1.980   9.767  17.966  0.00  0.00    +0.000 C 
BRANCH   6  10
ATOM      7  C   UNL     1      -0.889  11.469  20.746  0.00  0.00    +0.000 A 
ATOM      8  C   UNL     1      -0.435  12.201  19.637  0.00  0.00    +0.000 A 
ATOM      9  C   UNL     1       0.503  11.667  18.752  0.00  0.00    +0.000 A 
ATOM     10  C   UNL     1       1.038  10.395  18.970  0.00  0.00    +0.000 A 
ATOM     11  C   UNL     1       0.635   9.694  20.114  0.00  0.00    +0.000 A 
ATOM     12  C   UNL     1      -0.317  10.215  21.012  0.00  0.00    +0.000 A 
BRANCH   7  14
ATOM     13  C   UNL     1      -1.366  12.728  22.692  0.00  0.00    +0.000 C 
ATOM     14  O   UNL     1      -1.849  11.971  21.585  0.00  0.00    +0.000 OA
ENDBRANCH   7  14
BRANCH  12  15
ATOM     15  O   UNL     1      -0.566   9.360  22.053  0.00  0.00    +0.000 OA
ATOM     16  C   UNL     1       0.224   9.450  23.229  0.00  0.00    +0.000 C 
ENDBRANCH  12  15
ENDBRANCH   6  10
ENDBRANCH   5   6
ENDBRANCH   1   5
BRANCH   2  17
ATOM     17  C   UNL     1       3.697   5.439  19.652  0.00  0.00    +0.000 C 
BRANCH  17  18
ATOM     18  N   UNL     1       4.454   4.306  19.086  0.00  0.00    +0.000 N 
BRANCH  18  19
ATOM     19  C   UNL     1       5.200   4.518  17.884  0.00  0.00    +0.000 A 
ATOM     20  C   UNL     1       5.036   3.750  16.742  0.00  0.00    +0.000 A 
ATOM     21  C   UNL     1       5.801   4.050  15.611  0.00  0.00    +0.000 A 
ATOM     22  C   UNL     1       6.731   5.107  15.601  0.00  0.00    +0.000 A 
ATOM     23  C   UNL     1       6.892   5.883  16.764  0.00  0.00    +0.000 A 
ATOM     24  C   UNL     1       6.116   5.576  17.888  0.00  0.00    +0.000 A 
BRANCH  22  25
ATOM     25  O   UNL     1       7.372   5.231  14.394  0.00  0.00    +0.000 OA
ATOM     26  C   UNL     1       6.934   4.444  13.294  0.00  0.00    +0.000 C 
ENDBRANCH  22  25
BRANCH  23  27
ATOM     27  O   UNL     1       7.805   6.902  16.753  0.00  0.00    +0.000 OA
ATOM     28  C   UNL     1       7.750   7.870  17.793  0.00  0.00    +0.000 C 
ENDBRANCH  23  27
ENDBRANCH  18  19
BRANCH  18  29
ATOM     29  S   UNL     1       4.004   2.746  19.513  0.00  0.00    +0.000 S 
ATOM     30  C   UNL     1       2.802   3.041  20.805  0.00  0.00    +0.000 C 
ATOM     31  O   UNL     1       3.291   2.189  18.379  0.00  0.00    +0.000 OA
ATOM     32  O   UNL     1       5.135   2.057  20.088  0.00  0.00    +0.000 OA
ENDBRANCH  18  29
ENDBRANCH  17  18
ENDBRANCH   2  17
TORSDOF 11
ENDMDL
MODEL 4
REMARK VINA RESULT:      -7.3      2.036      2.338
REMARK  Name = 
REMARK  16 active torsions:
REMARK  status: ('A' for Active; 'I' for Inactive)
REMARK    1  A    between atoms: C_1  and  O_2
REMARK    2  A    between atoms: O_2  and  C_3
REMARK    3  A    between atoms: C_6  and  C_7
REMARK    4  A    between atoms: C_7  and  C_8
REMARK    5  A    between atoms: C_8  and  N_9
REMARK    6  A    between atoms: C_10  and  C_12
REMARK    7  A    between atoms: C_12  and  N_13
REMARK    8  A    between atoms: N_13  and  C_14
REMARK    9  A    between atoms: N_13  and  S_24
REMARK   10  A    between atoms: C_17  and  O_18
REMARK   11  A    between atoms: O_18  and  C_19
REMARK   12  A    between atoms: C_20  and  O_21
REMARK   13  A    between atoms: O_21  and  C_22
REMARK   14  A    between atoms: S_24  and  C_25
REMARK   15  A    between atoms: C_29  and  O_30
REMARK   16  A    between atoms: O_30  and  C_31
REMARK                            x       y       z     vdW  Elec       q    Type
REMARK                         _______ _______ _______ _____ _____    ______ ____
ROOT
ATOM      1  N   UNL     1       1.943   7.267  17.866  0.00  0.00    +0.000 N 
ATOM      2  C   UNL     1       2.295   6.364  18.862  0.00  0.00    +0.000 C 
ATOM      3  O   UNL     1       2.808   6.705  19.928  0.00  0.00    +0.000 OA
ATOM      4  H   UNL     1       1.990   6.894  16.917  0.00  0.00    +0.000 HD
ENDROOT
BRANCH   1   5
ATOM      5  C   UNL     1       2.242   8.684  18.034  0.00  0.00    +0.000 C 
BRANCH   5   6
ATOM      6  C   UNL     1       0.994   9.579  18.028  0.00  0.00    +0.000 C 
BRANCH   6  10
ATOM      7  C   UNL     1       1.006  12.675  21.072  0.00  0.00    +0.000 A 
ATOM      8  C   UNL     1       1.471  12.936  19.773  0.00  0.00    +0.000 A 
ATOM      9  C   UNL     1       1.490  11.939  18.797  0.00  0.00    +0.000 A 
ATOM     10  C   UNL     1       1.071  10.642  19.102  0.00  0.00    +0.000 A 
ATOM     11  C   UNL     1       0.671  10.366  20.416  0.00  0.00    +0.000 A 
ATOM     12  C   UNL     1       0.639  11.363  21.411  0.00  0.00    +0.000 A 
BRANCH   7  14
ATOM     13  C   UNL     1      -0.228  14.486  21.964  0.00  0.00    +0.000 C 
ATOM     14  O   UNL     1       0.937  13.666  22.016  0.00  0.00    +0.000 OA
ENDBRANCH   7  14
BRANCH  12  15
ATOM     15  O   UNL     1       0.210  10.875  22.617  0.00  0.00    +0.000 OA
ATOM     16  C   UNL     1      -1.165  10.976  22.956  0.00  0.00    +0.000 C 
ENDBRANCH  12  15
ENDBRANCH   6  10
ENDBRANCH   5   6
ENDBRANCH   1   5
BRANCH   2  17
ATOM     17  C   UNL     1       1.934   4.913  18.581  0.00  0.00    +0.000 C 
BRANCH  17  18
ATOM     18  N   UNL     1       3.012   3.910  18.690  0.00  0.00    +0.000 N 
BRANCH  18  19
ATOM     19  C   UNL     1       4.181   4.075  17.882  0.00  0.00    +0.000 A 
ATOM     20  C   UNL     1       4.166   3.998  16.499  0.00  0.00    +0.000 A 
ATOM     21  C   UNL     1       5.361   4.193  15.799  0.00  0.00    +0.000 A 
ATOM     22  C   UNL     1       6.574   4.465  16.459  0.00  0.00    +0.000 A 
ATOM     23  C   UNL     1       6.582   4.542  17.865  0.00  0.00    +0.000 A 
ATOM     24  C   UNL     1       5.378   4.350  18.553  0.00  0.00    +0.000 A 
BRANCH  22  25
ATOM     25  O   UNL     1       7.622   4.625  15.588  0.00  0.00    +0.000 OA
ATOM     26  C   UNL     1       7.355   5.039  14.254  0.00  0.00    +0.000 C 
ENDBRANCH  22  25
BRANCH  23  27
ATOM     27  O   UNL     1       7.765   4.795  18.502  0.00  0.00    +0.000 OA
ATOM     28  C   UNL     1       8.026   6.122  18.941  0.00  0.00    +0.000 C 
ENDBRANCH  23  27
ENDBRANCH  18  19
BRANCH  18  29
ATOM     29  S   UNL     1       2.636   2.390  19.297  0.00  0.00    +0.000 S 
ATOM     30  C   UNL     1       2.725   2.657  21.063  0.00  0.00    +0.000 C 
ATOM     31  O   UNL     1       1.245   2.140  18.967  0.00  0.00    +0.000 OA
ATOM     32  O   UNL     1       3.667   1.452  18.922  0.00  0.00    +0.000 OA
ENDBRANCH  18  29
ENDBRANCH  17  18
ENDBRANCH   2  17
TORSDOF 11
ENDMDL
MODEL 5
REMARK VINA RESULT:      -7.3      1.327      1.553
REMARK  Name = 
REMARK  16 active torsions:
REMARK  status: ('A' for Active; 'I' for Inactive)
REMARK    1  A    between atoms: C_1  and  O_2
REMARK    2  A    between atoms: O_2  and  C_3
REMARK    3  A    between atoms: C_6  and  C_7
REMARK    4  A    between atoms: C_7  and  C_8
REMARK    5  A    between atoms: C_8  and  N_9
REMARK    6  A    between atoms: C_10  and  C_12
REMARK    7  A    between atoms: C_12  and  N_13
REMARK    8  A    between atoms: N_13  and  C_14
REMARK    9  A    between atoms: N_13  and  S_24
REMARK   10  A    between atoms: C_17  and  O_18
REMARK   11  A    between atoms: O_18  and  C_19
REMARK   12  A    between atoms: C_20  and  O_21
REMARK   13  A    between atoms: O_21  and  C_22
REMARK   14  A    between atoms: S_24  and  C_25
REMARK   15  A    between atoms: C_29  and  O_30
REMARK   16  A    between atoms: O_30  and  C_31
REMARK                            x       y       z     vdW  Elec       q    Type
REMARK                         _______ _______ _______ _____ _____    ______ ____
ROOT
ATOM      1  N   UNL     1       1.794   6.598  20.497  0.00  0.00    +0.000 N 
ATOM      2  C   UNL     1       2.311   6.315  19.239  0.00  0.00    +0.000 C 
ATOM      3  O   UNL     1       2.804   7.171  18.505  0.00  0.00    +0.000 OA
ATOM      4  H   UNL     1       1.031   5.989  20.791  0.00  0.00    +0.000 HD
ENDROOT
BRANCH   1   5
ATOM      5  C   UNL     1       1.759   7.977  20.971  0.00  0.00    +0.000 C 
BRANCH   5   6
ATOM      6  C   UNL     1       0.378   8.416  21.479  0.00  0.00    +0.000 C 
BRANCH   6  10
ATOM      7  C   UNL     1      -0.594  12.263  19.718  0.00  0.00    +0.000 A 
ATOM      8  C   UNL     1       0.257  12.172  20.831  0.00  0.00    +0.000 A 
ATOM      9  C   UNL     1       0.556  10.940  21.414  0.00  0.00    +0.000 A 
ATOM     10  C   UNL     1      -0.014   9.765  20.918  0.00  0.00    +0.000 A 
ATOM     11  C   UNL     1      -0.917   9.865  19.851  0.00  0.00    +0.000 A 
ATOM     12  C   UNL     1      -1.222  11.100  19.246  0.00  0.00    +0.000 A 
BRANCH   7  14
ATOM     13  C   UNL     1       0.304  14.218  18.732  0.00  0.00    +0.000 C 
ATOM     14  O   UNL     1      -0.846  13.466  19.111  0.00  0.00    +0.000 OA
ENDBRANCH   7  14
BRANCH  12  15
ATOM     15  O   UNL     1      -2.119  10.963  18.219  0.00  0.00    +0.000 OA
ATOM     16  C   UNL     1      -1.789  10.133  17.116  0.00  0.00    +0.000 C 
ENDBRANCH  12  15
ENDBRANCH   6  10
ENDBRANCH   5   6
ENDBRANCH   1   5
BRANCH   2  17
ATOM     17  C   UNL     1       2.299   4.844  18.848  0.00  0.00    +0.000 C 
BRANCH  17  18
ATOM     18  N   UNL     1       3.581   4.115  18.900  0.00  0.00    +0.000 N 
BRANCH  18  19
ATOM     19  C   UNL     1       4.585   4.432  17.931  0.00  0.00    +0.000 A 
ATOM     20  C   UNL     1       4.534   3.999  16.616  0.00  0.00    +0.000 A 
ATOM     21  C   UNL     1       5.556   4.379  15.740  0.00  0.00    +0.000 A 
ATOM     22  C   UNL     1       6.632   5.185  16.158  0.00  0.00    +0.000 A 
ATOM     23  C   UNL     1       6.677   5.621  17.496  0.00  0.00    +0.000 A 
ATOM     24  C   UNL     1       5.645   5.238  18.360  0.00  0.00    +0.000 A 
BRANCH  22  25
ATOM     25  O   UNL     1       7.521   5.442  15.145  0.00  0.00    +0.000 OA
ATOM     26  C   UNL     1       7.278   4.891  13.856  0.00  0.00    +0.000 C 
ENDBRANCH  22  25
BRANCH  23  27
ATOM     27  O   UNL     1       7.730   6.395  17.900  0.00  0.00    +0.000 OA
ATOM     28  C   UNL     1       7.688   7.789  17.625  0.00  0.00    +0.000 C 
ENDBRANCH  23  27
ENDBRANCH  18  19
BRANCH  18  29
ATOM     29  S   UNL     1       3.631   2.632  19.685  0.00  0.00    +0.000 S 
ATOM     30  C   UNL     1       2.577   2.920  21.102  0.00  0.00    +0.000 C 
ATOM     31  O   UNL     1       2.949   1.681  18.826  0.00  0.00    +0.000 OA
ATOM     32  O   UNL     1       4.972   2.377  20.154  0.00  0.00    +0.000 OA
ENDBRANCH  18  29
ENDBRANCH  17  18
ENDBRANCH   2  17
TORSDOF 11
ENDMDL
MODEL 6
REMARK VINA RESULT:      -7.3      4.655      8.355
REMARK  Name = 
REMARK  16 active torsions:
REMARK  status: ('A' for Active; 'I' for Inactive)
REMARK    1  A    between atoms: C_1  and  O_2
REMARK    2  A    between atoms: O_2  and  C_3
REMARK    3  A    between atoms: C_6  and  C_7
REMARK    4  A    between atoms: C_7  and  C_8
REMARK    5  A    between atoms: C_8  and  N_9
REMARK    6  A    between atoms: C_10  and  C_12
REMARK    7  A    between atoms: C_12  and  N_13
REMARK    8  A    between atoms: N_13  and  C_14
REMARK    9  A    between atoms: N_13  and  S_24
REMARK   10  A    between atoms: C_17  and  O_18
REMARK   11  A    between atoms: O_18  and  C_19
REMARK   12  A    between atoms: C_20  and  O_21
REMARK   13  A    between atoms: O_21  and  C_22
REMARK   14  A    between atoms: S_24  and  C_25
REMARK   15  A    between atoms: C_29  and  O_30
REMARK   16  A    between atoms: O_30  and  C_31
REMARK                            x       y       z     vdW  Elec       q    Type
REMARK                         _______ _______ _______ _____ _____    ______ ____
ROOT
ATOM      1  N   UNL     1       7.981   7.407  17.971  0.00  0.00    +0.000 N 
ATOM      2  C   UNL     1       7.926   6.166  18.594  0.00  0.00    +0.000 C 
ATOM      3  O   UNL     1       8.254   5.987  19.766  0.00  0.00    +0.000 OA
ATOM      4  H   UNL     1       8.157   7.372  16.966  0.00  0.00    +0.000 HD
ENDROOT
BRANCH   1   5
ATOM      5  C   UNL     1       8.509   8.557  18.695  0.00  0.00    +0.000 C 
BRANCH   5   6
ATOM      6  C   UNL     1       8.559   9.840  17.854  0.00  0.00    +0.000 C 
BRANCH   6  10
ATOM      7  C   UNL     1      10.517  13.034  20.050  0.00  0.00    +0.000 A 
ATOM      8  C   UNL     1       9.914  11.958  20.722  0.00  0.00    +0.000 A 
ATOM      9  C   UNL     1       9.265  10.940  20.022  0.00  0.00    +0.000 A 
ATOM     10  C   UNL     1       9.174  10.986  18.629  0.00  0.00    +0.000 A 
ATOM     11  C   UNL     1       9.716  12.094  17.965  0.00  0.00    +0.000 A 
ATOM     12  C   UNL     1      10.382  13.125  18.656  0.00  0.00    +0.000 A 
BRANCH   7  14
ATOM     13  C   UNL     1      10.395  14.963  21.414  0.00  0.00    +0.000 C 
ATOM     14  O   UNL     1      11.201  14.005  20.732  0.00  0.00    +0.000 OA
ENDBRANCH   7  14
BRANCH  12  15
ATOM     15  O   UNL     1      10.838  14.102  17.810  0.00  0.00    +0.000 OA
ATOM     16  C   UNL     1      11.505  13.727  16.615  0.00  0.00    +0.000 C 
ENDBRANCH  12  15
ENDBRANCH   6  10
ENDBRANCH   5   6
ENDBRANCH   1   5
BRANCH   2  17
ATOM     17  C   UNL     1       7.357   5.038  17.745  0.00  0.00    +0.000 C 
BRANCH  17  18
ATOM     18  N   UNL     1       6.152   5.330  16.945  0.00  0.00    +0.000 N 
BRANCH  18  19
ATOM     19  C   UNL     1       4.870   5.056  17.519  0.00  0.00    +0.000 A 
ATOM     20  C   UNL     1       3.844   5.986  17.565  0.00  0.00    +0.000 A 
ATOM     21  C   UNL     1       2.620   5.613  18.131  0.00  0.00    +0.000 A 
ATOM     22  C   UNL     1       2.405   4.324  18.653  0.00  0.00    +0.000 A 
ATOM     23  C   UNL     1       3.452   3.384  18.602  0.00  0.00    +0.000 A 
ATOM     24  C   UNL     1       4.669   3.769  18.029  0.00  0.00    +0.000 A 
BRANCH  22  25
ATOM     25  O   UNL     1       1.138   4.166  19.157  0.00  0.00    +0.000 OA
ATOM     26  C   UNL     1       0.934   4.275  20.560  0.00  0.00    +0.000 C 
ENDBRANCH  22  25
BRANCH  23  27
ATOM     27  O   UNL     1       3.241   2.136  19.122  0.00  0.00    +0.000 OA
ATOM     28  C   UNL     1       3.900   1.032  18.515  0.00  0.00    +0.000 C 
ENDBRANCH  23  27
ENDBRANCH  18  19
BRANCH  18  29
ATOM     29  S   UNL     1       6.303   5.441  15.277  0.00  0.00    +0.000 S 
ATOM     30  C   UNL     1       5.683   3.851  14.737  0.00  0.00    +0.000 C 
ATOM     31  O   UNL     1       5.354   6.446  14.835  0.00  0.00    +0.000 OA
ATOM     32  O   UNL     1       7.699   5.533  14.923  0.00  0.00    +0.000 OA
ENDBRANCH  18  29
ENDBRANCH  17  18
ENDBRANCH   2  17
TORSDOF 11
ENDMDL
MODEL 7
REMARK VINA RESULT:      -7.2      1.461      2.217
REMARK  Name = 
REMARK  16 active torsions:
REMARK  status: ('A' for Active; 'I' for Inactive)
REMARK    1  A    between atoms: C_1  and  O_2
REMARK    2  A    between atoms: O_2  and  C_3
REMARK    3  A    between atoms: C_6  and  C_7
REMARK    4  A    between atoms: C_7  and  C_8
REMARK    5  A    between atoms: C_8  and  N_9
REMARK    6  A    between atoms: C_10  and  C_12
REMARK    7  A    between atoms: C_12  and  N_13
REMARK    8  A    between atoms: N_13  and  C_14
REMARK    9  A    between atoms: N_13  and  S_24
REMARK   10  A    between atoms: C_17  and  O_18
REMARK   11  A    between atoms: O_18  and  C_19
REMARK   12  A    between atoms: C_20  and  O_21
REMARK   13  A    between atoms: O_21  and  C_22
REMARK   14  A    between atoms: S_24  and  C_25
REMARK   15  A    between atoms: C_29  and  O_30
REMARK   16  A    between atoms: O_30  and  C_31
REMARK                            x       y       z     vdW  Elec       q    Type
REMARK                         _______ _______ _______ _____ _____    ______ ____
ROOT
ATOM      1  N   UNL     1       1.717   7.071  20.802  0.00  0.00    +0.000 N 
ATOM      2  C   UNL     1       2.227   6.631  19.586  0.00  0.00    +0.000 C 
ATOM      3  O   UNL     1       2.835   7.364  18.807  0.00  0.00    +0.000 OA
ATOM      4  H   UNL     1       0.880   6.579  21.116  0.00  0.00    +0.000 HD
ENDROOT
BRANCH   1   5
ATOM      5  C   UNL     1       1.834   8.477  21.170  0.00  0.00    +0.000 C 
BRANCH   5   6
ATOM      6  C   UNL     1       0.514   9.098  21.648  0.00  0.00    +0.000 C 
BRANCH   6  10
ATOM      7  C   UNL     1      -1.537  11.323  18.535  0.00  0.00    +0.000 A 
ATOM      8  C   UNL     1      -0.634  10.297  18.215  0.00  0.00    +0.000 A 
ATOM      9  C   UNL     1       0.045   9.593  19.211  0.00  0.00    +0.000 A 
ATOM     10  C   UNL     1      -0.139   9.917  20.557  0.00  0.00    +0.000 A 
ATOM     11  C   UNL     1      -0.989  10.986  20.871  0.00  0.00    +0.000 A 
ATOM     12  C   UNL     1      -1.687  11.701  19.878  0.00  0.00    +0.000 A 
BRANCH   7  14
ATOM     13  C   UNL     1      -3.505  11.406  17.223  0.00  0.00    +0.000 C 
ATOM     14  O   UNL     1      -2.244  11.979  17.561  0.00  0.00    +0.000 OA
ENDBRANCH   7  14
BRANCH  12  15
ATOM     15  O   UNL     1      -2.464  12.696  20.410  0.00  0.00    +0.000 OA
ATOM     16  C   UNL     1      -2.883  12.601  21.763  0.00  0.00    +0.000 C 
ENDBRANCH  12  15
ENDBRANCH   6  10
ENDBRANCH   5   6
ENDBRANCH   1   5
BRANCH   2  17
ATOM     17  C   UNL     1       2.050   5.145  19.308  0.00  0.00    +0.000 C 
BRANCH  17  18
ATOM     18  N   UNL     1       3.220   4.270  19.515  0.00  0.00    +0.000 N 
BRANCH  18  19
ATOM     19  C   UNL     1       4.295   4.335  18.573  0.00  0.00    +0.000 A 
ATOM     20  C   UNL     1       4.196   3.865  17.274  0.00  0.00    +0.000 A 
ATOM     21  C   UNL     1       5.300   3.993  16.424  0.00  0.00    +0.000 A 
ATOM     22  C   UNL     1       6.504   4.583  16.852  0.00  0.00    +0.000 A 
ATOM     23  C   UNL     1       6.597   5.058  18.174  0.00  0.00    +0.000 A 
ATOM     24  C   UNL     1       5.483   4.929  19.012  0.00  0.00    +0.000 A 
BRANCH  22  25
ATOM     25  O   UNL     1       7.456   4.611  15.865  0.00  0.00    +0.000 OA
ATOM     26  C   UNL     1       7.047   4.805  14.516  0.00  0.00    +0.000 C 
ENDBRANCH  22  25
BRANCH  23  27
ATOM     27  O   UNL     1       7.773   5.621  18.589  0.00  0.00    +0.000 OA
ATOM     28  C   UNL     1       7.962   7.016  18.388  0.00  0.00    +0.000 C 
ENDBRANCH  23  27
ENDBRANCH  18  19
BRANCH  18  29
ATOM     29  S   UNL     1       3.038   2.898  20.466  0.00  0.00    +0.000 S 
ATOM     30  C   UNL     1       1.870   1.933  19.515  0.00  0.00    +0.000 C 
ATOM     31  O   UNL     1       4.307   2.195  20.434  0.00  0.00    +0.000 OA
ATOM     32  O   UNL     1       2.422   3.259  21.721  0.00  0.00    +0.000 OA
ENDBRANCH  18  29
ENDBRANCH  17  18
ENDBRANCH   2  17
TORSDOF 11
ENDMDL
MODEL 8
REMARK VINA RESULT:      -7.2      1.843      2.437
REMARK  Name = 
REMARK  16 active torsions:
REMARK  status: ('A' for Active; 'I' for Inactive)
REMARK    1  A    between atoms: C_1  and  O_2
REMARK    2  A    between atoms: O_2  and  C_3
REMARK    3  A    between atoms: C_6  and  C_7
REMARK    4  A    between atoms: C_7  and  C_8
REMARK    5  A    between atoms: C_8  and  N_9
REMARK    6  A    between atoms: C_10  and  C_12
REMARK    7  A    between atoms: C_12  and  N_13
REMARK    8  A    between atoms: N_13  and  C_14
REMARK    9  A    between atoms: N_13  and  S_24
REMARK   10  A    between atoms: C_17  and  O_18
REMARK   11  A    between atoms: O_18  and  C_19
REMARK   12  A    between atoms: C_20  and  O_21
REMARK   13  A    between atoms: O_21  and  C_22
REMARK   14  A    between atoms: S_24  and  C_25
REMARK   15  A    between atoms: C_29  and  O_30
REMARK   16  A    between atoms: O_30  and  C_31
REMARK                            x       y       z     vdW  Elec       q    Type
REMARK                         _______ _______ _______ _____ _____    ______ ____
ROOT
ATOM      1  N   UNL     1       2.308   7.339  17.958  0.00  0.00    +0.000 N 
ATOM      2  C   UNL     1       2.180   6.615  19.137  0.00  0.00    +0.000 C 
ATOM      3  O   UNL     1       2.121   7.143  20.247  0.00  0.00    +0.000 OA
ATOM      4  H   UNL     1       2.807   6.854  17.211  0.00  0.00    +0.000 HD
ENDROOT
BRANCH   1   5
ATOM      5  C   UNL     1       2.447   8.790  18.010  0.00  0.00    +0.000 C 
BRANCH   5   6
ATOM      6  C   UNL     1       1.132   9.541  17.755  0.00  0.00    +0.000 C 
BRANCH   6  10
ATOM      7  C   UNL     1       0.029  11.697  21.360  0.00  0.00    +0.000 A 
ATOM      8  C   UNL     1      -0.828  10.735  20.801  0.00  0.00    +0.000 A 
ATOM      9  C   UNL     1      -0.488  10.054  19.631  0.00  0.00    +0.000 A 
ATOM     10  C   UNL     1       0.708  10.340  18.968  0.00  0.00    +0.000 A 
ATOM     11  C   UNL     1       1.530  11.348  19.489  0.00  0.00    +0.000 A 
ATOM     12  C   UNL     1       1.205  12.038  20.673  0.00  0.00    +0.000 A 
BRANCH   7  14
ATOM     13  C   UNL     1      -1.616  12.151  22.998  0.00  0.00    +0.000 C 
ATOM     14  O   UNL     1      -0.279  12.327  22.537  0.00  0.00    +0.000 OA
ENDBRANCH   7  14
BRANCH  12  15
ATOM     15  O   UNL     1       2.151  12.973  21.001  0.00  0.00    +0.000 OA
ATOM     16  C   UNL     1       2.505  13.965  20.050  0.00  0.00    +0.000 C 
ENDBRANCH  12  15
ENDBRANCH   6  10
ENDBRANCH   5   6
ENDBRANCH   1   5
BRANCH   2  17
ATOM     17  C   UNL     1       2.041   5.110  18.962  0.00  0.00    +0.000 C 
BRANCH  17  18
ATOM     18  N   UNL     1       3.245   4.285  19.185  0.00  0.00    +0.000 N 
BRANCH  18  19
ATOM     19  C   UNL     1       4.322   4.384  18.248  0.00  0.00    +0.000 A 
ATOM     20  C   UNL     1       4.269   3.849  16.971  0.00  0.00    +0.000 A 
ATOM     21  C   UNL     1       5.369   4.016  16.124  0.00  0.00    +0.000 A 
ATOM     22  C   UNL     1       6.523   4.711  16.531  0.00  0.00    +0.000 A 
ATOM     23  C   UNL     1       6.569   5.253  17.830  0.00  0.00    +0.000 A 
ATOM     24  C   UNL     1       5.460   5.083  18.666  0.00  0.00    +0.000 A 
BRANCH  22  25
ATOM     25  O   UNL     1       7.481   4.762  15.550  0.00  0.00    +0.000 OA
ATOM     26  C   UNL     1       7.073   4.787  14.187  0.00  0.00    +0.000 C 
ENDBRANCH  22  25
BRANCH  23  27
ATOM     27  O   UNL     1       7.698   5.918  18.226  0.00  0.00    +0.000 OA
ATOM     28  C   UNL     1       8.173   5.712  19.550  0.00  0.00    +0.000 C 
ENDBRANCH  23  27
ENDBRANCH  18  19
BRANCH  18  29
ATOM     29  S   UNL     1       3.114   2.917  20.149  0.00  0.00    +0.000 S 
ATOM     30  C   UNL     1       1.890   1.953  19.271  0.00  0.00    +0.000 C 
ATOM     31  O   UNL     1       4.376   2.209  20.047  0.00  0.00    +0.000 OA
ATOM     32  O   UNL     1       2.572   3.284  21.436  0.00  0.00    +0.000 OA
ENDBRANCH  18  29
ENDBRANCH  17  18
ENDBRANCH   2  17
TORSDOF 11
ENDMDL
MODEL 9
REMARK VINA RESULT:      -7.1      1.938      2.230
REMARK  Name = 
REMARK  16 active torsions:
REMARK  status: ('A' for Active; 'I' for Inactive)
REMARK    1  A    between atoms: C_1  and  O_2
REMARK    2  A    between atoms: O_2  and  C_3
REMARK    3  A    between atoms: C_6  and  C_7
REMARK    4  A    between atoms: C_7  and  C_8
REMARK    5  A    between atoms: C_8  and  N_9
REMARK    6  A    between atoms: C_10  and  C_12
REMARK    7  A    between atoms: C_12  and  N_13
REMARK    8  A    between atoms: N_13  and  C_14
REMARK    9  A    between atoms: N_13  and  S_24
REMARK   10  A    between atoms: C_17  and  O_18
REMARK   11  A    between atoms: O_18  and  C_19
REMARK   12  A    between atoms: C_20  and  O_21
REMARK   13  A    between atoms: O_21  and  C_22
REMARK   14  A    between atoms: S_24  and  C_25
REMARK   15  A    between atoms: C_29  and  O_30
REMARK   16  A    between atoms: O_30  and  C_31
REMARK                            x       y       z     vdW  Elec       q    Type
REMARK                         _______ _______ _______ _____ _____    ______ ____
ROOT
ATOM      1  N   UNL     1       1.973   7.401  20.864  0.00  0.00    +0.000 N 
ATOM      2  C   UNL     1       2.318   6.576  19.800  0.00  0.00    +0.000 C 
ATOM      3  O   UNL     1       2.229   6.924  18.623  0.00  0.00    +0.000 OA
ATOM      4  H   UNL     1       1.632   6.911  21.691  0.00  0.00    +0.000 HD
ENDROOT
BRANCH   1   5
ATOM      5  C   UNL     1       1.415   8.723  20.603  0.00  0.00    +0.000 C 
BRANCH   5   6
ATOM      6  C   UNL     1       0.019   8.929  21.208  0.00  0.00    +0.000 C 
BRANCH   6  10
ATOM      7  C   UNL     1      -1.236  13.015  20.442  0.00  0.00    +0.000 A 
ATOM      8  C   UNL     1      -0.930  12.585  21.743  0.00  0.00    +0.000 A 
ATOM      9  C   UNL     1      -0.546  11.267  21.998  0.00  0.00    +0.000 A 
ATOM     10  C   UNL     1      -0.489  10.333  20.961  0.00  0.00    +0.000 A 
ATOM     11  C   UNL     1      -0.860  10.747  19.675  0.00  0.00    +0.000 A 
ATOM     12  C   UNL     1      -1.241  12.075  19.400  0.00  0.00    +0.000 A 
BRANCH   7  14
ATOM     13  C   UNL     1      -0.540  15.276  20.463  0.00  0.00    +0.000 C 
ATOM     14  O   UNL     1      -1.560  14.321  20.183  0.00  0.00    +0.000 OA
ENDBRANCH   7  14
BRANCH  12  15
ATOM     15  O   UNL     1      -1.554  12.258  18.078  0.00  0.00    +0.000 OA
ATOM     16  C   UNL     1      -2.587  11.478  17.496  0.00  0.00    +0.000 C 
ENDBRANCH  12  15
ENDBRANCH   6  10
ENDBRANCH   5   6
ENDBRANCH   1   5
BRANCH   2  17
ATOM     17  C   UNL     1       2.891   5.221  20.189  0.00  0.00    +0.000 C 
BRANCH  17  18
ATOM     18  N   UNL     1       3.026   4.208  19.124  0.00  0.00    +0.000 N 
BRANCH  18  19
ATOM     19  C   UNL     1       4.127   4.316  18.217  0.00  0.00    +0.000 A 
ATOM     20  C   UNL     1       3.978   4.322  16.840  0.00  0.00    +0.000 A 
ATOM     21  C   UNL     1       5.117   4.450  16.038  0.00  0.00    +0.000 A 
ATOM     22  C   UNL     1       6.406   4.572  16.592  0.00  0.00    +0.000 A 
ATOM     23  C   UNL     1       6.549   4.565  17.993  0.00  0.00    +0.000 A 
ATOM     24  C   UNL     1       5.401   4.441  18.783  0.00  0.00    +0.000 A 
BRANCH  22  25
ATOM     25  O   UNL     1       7.381   4.689  15.634  0.00  0.00    +0.000 OA
ATOM     26  C   UNL     1       6.998   4.888  14.278  0.00  0.00    +0.000 C 
ENDBRANCH  22  25
BRANCH  23  27
ATOM     27  O   UNL     1       7.805   4.672  18.525  0.00  0.00    +0.000 OA
ATOM     28  C   UNL     1       8.147   5.868  19.213  0.00  0.00    +0.000 C 
ENDBRANCH  23  27
ENDBRANCH  18  19
BRANCH  18  29
ATOM     29  S   UNL     1       1.666   3.333  18.672  0.00  0.00    +0.000 S 
ATOM     30  C   UNL     1       2.382   1.805  18.078  0.00  0.00    +0.000 C 
ATOM     31  O   UNL     1       0.941   3.025  19.891  0.00  0.00    +0.000 OA
ATOM     32  O   UNL     1       1.012   3.993  17.567  0.00  0.00    +0.000 OA
ENDBRANCH  18  29
ENDBRANCH  17  18
ENDBRANCH   2  17
TORSDOF 11
ENDMDL
