MODEL 1
REMARK VINA RESULT:      -7.0      0.000      0.000
REMARK  Name = 
REMARK  4 active torsions:
REMARK  status: ('A' for Active; 'I' for Inactive)
REMARK    1  A    between atoms: C_1  and  C_2
REMARK    2  A    between atoms: C_4  and  N_5
REMARK    3  A    between atoms: C_12  and  C_13
REMARK    4  A    between atoms: C_13  and  O_14
REMARK                            x       y       z     vdW  Elec       q    Type
REMARK                         _______ _______ _______ _____ _____    ______ ____
ROOT
ATOM      1  C   UNL     1       6.029   3.933  15.106  0.00  0.00    +0.000 C 
ATOM      2  C   UNL     1       5.837   4.340  16.535  0.00  0.00    +0.000 A 
ATOM      3  C   UNL     1       4.664   4.044  17.202  0.00  0.00    +0.000 A 
ATOM      4  C   UNL     1       4.581   4.352  18.548  0.00  0.00    +0.000 A 
ATOM      5  N   UNL     1       5.615   4.937  19.179  0.00  0.00    +0.000 NA
ATOM      6  C   UNL     1       6.722   5.214  18.450  0.00  0.00    +0.000 A 
ATOM      7  N   UNL     1       6.874   4.936  17.145  0.00  0.00    +0.000 NA
ENDROOT
BRANCH   4   8
ATOM      8  N   UNL     1       3.480   3.940  19.282  0.00  0.00    +0.000 N 
ATOM      9  C   UNL     1       3.347   2.518  19.588  0.00  0.00    +0.000 C 
ATOM     10  C   UNL     1       1.850   2.190  19.621  0.00  0.00    +0.000 C 
ATOM     11  C   UNL     1       1.083   3.110  20.575  0.00  0.00    +0.000 C 
ATOM     12  C   UNL     1       1.398   4.585  20.324  0.00  0.00    +0.000 C 
ATOM     13  C   UNL     1       2.907   4.834  20.288  0.00  0.00    +0.000 C 
ENDBRANCH   4   8
BRANCH   6  14
ATOM     14  C   UNL     1       7.888   5.835  19.187  0.00  0.00    +0.000 C 
BRANCH  14  15
ATOM     15  O   UNL     1       7.967   5.402  20.551  0.00  0.00    +0.000 OA
ATOM     16  H   UNL     1       7.879   6.224  21.077  0.00  0.00    +0.000 HD
ENDBRANCH  14  15
ENDBRANCH   6  14
TORSDOF 3
ENDMDL
MODEL 2
REMARK VINA RESULT:      -7.0      0.810      1.206
REMARK  Name = 
REMARK  4 active torsions:
REMARK  status: ('A' for Active; 'I' for Inactive)
REMARK    1  A    between atoms: C_1  and  C_2
REMARK    2  A    between atoms: C_4  and  N_5
REMARK    3  A    between atoms: C_12  and  C_13
REMARK    4  A    between atoms: C_13  and  O_14
REMARK                            x       y       z     vdW  Elec       q    Type
REMARK                         _______ _______ _______ _____ _____    ______ ____
ROOT
ATOM      1  C   UNL     1       5.484   4.360  14.984  0.00  0.00    +0.000 C 
ATOM      2  C   UNL     1       5.470   4.516  16.473  0.00  0.00    +0.000 A 
ATOM      3  C   UNL     1       4.368   4.131  17.213  0.00  0.00    +0.000 A 
ATOM      4  C   UNL     1       4.449   4.202  18.592  0.00  0.00    +0.000 A 
ATOM      5  N   UNL     1       5.570   4.648  19.189  0.00  0.00    +0.000 NA
ATOM      6  C   UNL     1       6.598   5.026  18.392  0.00  0.00    +0.000 A 
ATOM      7  N   UNL     1       6.592   4.977  17.050  0.00  0.00    +0.000 NA
ENDROOT
BRANCH   4   8
ATOM      8  N   UNL     1       3.422   3.690  19.369  0.00  0.00    +0.000 N 
ATOM      9  C   UNL     1       2.061   3.754  18.844  0.00  0.00    +0.000 C 
ATOM     10  C   UNL     1       1.113   3.933  20.035  0.00  0.00    +0.000 C 
ATOM     11  C   UNL     1       1.322   2.852  21.099  0.00  0.00    +0.000 C 
ATOM     12  C   UNL     1       2.794   2.705  21.484  0.00  0.00    +0.000 C 
ATOM     13  C   UNL     1       3.680   2.548  20.247  0.00  0.00    +0.000 C 
ENDBRANCH   4   8
BRANCH   6  14
ATOM     14  C   UNL     1       7.863   5.486  19.083  0.00  0.00    +0.000 C 
BRANCH  14  15
ATOM     15  O   UNL     1       7.757   5.434  20.512  0.00  0.00    +0.000 OA
ATOM     16  H   UNL     1       7.394   6.308  20.765  0.00  0.00    +0.000 HD
ENDBRANCH  14  15
ENDBRANCH   6  14
TORSDOF 3
ENDMDL
MODEL 3
REMARK VINA RESULT:      -6.9      0.884      1.435
REMARK  Name = 
REMARK  4 active torsions:
REMARK  status: ('A' for Active; 'I' for Inactive)
REMARK    1  A    between atoms: C_1  and  C_2
REMARK    2  A    between atoms: C_4  and  N_5
REMARK    3  A    between atoms: C_12  and  C_13
REMARK    4  A    between atoms: C_13  and  O_14
REMARK                            x       y       z     vdW  Elec       q    Type
REMARK                         _______ _______ _______ _____ _____    ______ ____
ROOT
ATOM      1  C   UNL     1       6.187   4.063  14.834  0.00  0.00    +0.000 C 
ATOM      2  C   UNL     1       5.915   4.552  16.224  0.00  0.00    +0.000 A 
ATOM      3  C   UNL     1       4.654   4.440  16.778  0.00  0.00    +0.000 A 
ATOM      4  C   UNL     1       4.485   4.813  18.100  0.00  0.00    +0.000 A 
ATOM      5  N   UNL     1       5.523   5.284  18.815  0.00  0.00    +0.000 NA
ATOM      6  C   UNL     1       6.722   5.382  18.192  0.00  0.00    +0.000 A 
ATOM      7  N   UNL     1       6.960   5.033  16.918  0.00  0.00    +0.000 NA
ENDROOT
BRANCH   4   8
ATOM      8  N   UNL     1       3.273   4.579  18.731  0.00  0.00    +0.000 N 
ATOM      9  C   UNL     1       2.843   5.514  19.766  0.00  0.00    +0.000 C 
ATOM     10  C   UNL     1       2.046   4.719  20.805  0.00  0.00    +0.000 C 
ATOM     11  C   UNL     1       0.904   3.925  20.166  0.00  0.00    +0.000 C 
ATOM     12  C   UNL     1       1.381   3.097  18.972  0.00  0.00    +0.000 C 
ATOM     13  C   UNL     1       2.181   3.951  17.987  0.00  0.00    +0.000 C 
ENDBRANCH   4   8
BRANCH   6  14
ATOM     14  C   UNL     1       7.885   5.876  19.025  0.00  0.00    +0.000 C 
BRANCH  14  15
ATOM     15  O   UNL     1       7.824   5.413  20.380  0.00  0.00    +0.000 OA
ATOM     16  H   UNL     1       6.945   4.985  20.456  0.00  0.00    +0.000 HD
ENDBRANCH  14  15
ENDBRANCH   6  14
TORSDOF 3
ENDMDL
MODEL 4
REMARK VINA RESULT:      -6.8      1.079      1.134
REMARK  Name = 
REMARK  4 active torsions:
REMARK  status: ('A' for Active; 'I' for Inactive)
REMARK    1  A    between atoms: C_1  and  C_2
REMARK    2  A    between atoms: C_4  and  N_5
REMARK    3  A    between atoms: C_12  and  C_13
REMARK    4  A    between atoms: C_13  and  O_14
REMARK                            x       y       z     vdW  Elec       q    Type
REMARK                         _______ _______ _______ _____ _____    ______ ____
ROOT
ATOM      1  C   UNL     1       6.783   4.475  14.682  0.00  0.00    +0.000 C 
ATOM      2  C   UNL     1       6.414   4.720  16.113  0.00  0.00    +0.000 A 
ATOM      3  C   UNL     1       5.151   4.408  16.580  0.00  0.00    +0.000 A 
ATOM      4  C   UNL     1       4.897   4.558  17.932  0.00  0.00    +0.000 A 
ATOM      5  N   UNL     1       5.856   5.011  18.760  0.00  0.00    +0.000 NA
ATOM      6  C   UNL     1       7.061   5.315  18.221  0.00  0.00    +0.000 A 
ATOM      7  N   UNL     1       7.379   5.186  16.923  0.00  0.00    +0.000 NA
ENDROOT
BRANCH   4   8
ATOM      8  N   UNL     1       3.693   4.119  18.459  0.00  0.00    +0.000 N 
ATOM      9  C   UNL     1       2.763   3.426  17.572  0.00  0.00    +0.000 C 
ATOM     10  C   UNL     1       1.342   3.765  18.036  0.00  0.00    +0.000 C 
ATOM     11  C   UNL     1       1.137   3.456  19.522  0.00  0.00    +0.000 C 
ATOM     12  C   UNL     1       2.242   4.060  20.389  0.00  0.00    +0.000 C 
ATOM     13  C   UNL     1       3.629   3.695  19.857  0.00  0.00    +0.000 C 
ENDBRANCH   4   8
BRANCH   6  14
ATOM     14  C   UNL     1       8.137   5.784  19.176  0.00  0.00    +0.000 C 
BRANCH  14  15
ATOM     15  O   UNL     1       7.872   5.399  20.530  0.00  0.00    +0.000 OA
ATOM     16  H   UNL     1       7.816   4.421  20.504  0.00  0.00    +0.000 HD
ENDBRANCH  14  15
ENDBRANCH   6  14
TORSDOF 3
ENDMDL
MODEL 5
REMARK VINA RESULT:      -6.8      2.456      3.275
REMARK  Name = 
REMARK  4 active torsions:
REMARK  status: ('A' for Active; 'I' for Inactive)
REMARK    1  A    between atoms: C_1  and  C_2
REMARK    2  A    between atoms: C_4  and  N_5
REMARK    3  A    between atoms: C_12  and  C_13
REMARK    4  A    between atoms: C_13  and  O_14
REMARK                            x       y       z     vdW  Elec       q    Type
REMARK                         _______ _______ _______ _____ _____    ______ ____
ROOT
ATOM      1  C   UNL     1       7.814   7.204  18.186  0.00  0.00    +0.000 C 
ATOM      2  C   UNL     1       7.031   6.188  17.412  0.00  0.00    +0.000 A 
ATOM      3  C   UNL     1       5.913   5.590  17.962  0.00  0.00    +0.000 A 
ATOM      4  C   UNL     1       5.170   4.737  17.166  0.00  0.00    +0.000 A 
ATOM      5  N   UNL     1       5.542   4.489  15.897  0.00  0.00    +0.000 NA
ATOM      6  C   UNL     1       6.662   5.098  15.440  0.00  0.00    +0.000 A 
ATOM      7  N   UNL     1       7.426   5.942  16.152  0.00  0.00    +0.000 NA
ENDROOT
BRANCH   4   8
ATOM      8  N   UNL     1       3.966   4.235  17.634  0.00  0.00    +0.000 N 
ATOM      9  C   UNL     1       3.980   2.965  18.354  0.00  0.00    +0.000 C 
ATOM     10  C   UNL     1       2.662   2.245  18.051  0.00  0.00    +0.000 C 
ATOM     11  C   UNL     1       1.446   3.124  18.357  0.00  0.00    +0.000 C 
ATOM     12  C   UNL     1       1.567   4.510  17.721  0.00  0.00    +0.000 C 
ATOM     13  C   UNL     1       2.912   5.159  18.053  0.00  0.00    +0.000 C 
ENDBRANCH   4   8
BRANCH   6  14
ATOM     14  C   UNL     1       7.040   4.838  13.998  0.00  0.00    +0.000 C 
BRANCH  14  15
ATOM     15  O   UNL     1       8.160   5.627  13.575  0.00  0.00    +0.000 OA
ATOM     16  H   UNL     1       7.909   5.956  12.687  0.00  0.00    +0.000 HD
ENDBRANCH  14  15
ENDBRANCH   6  14
TORSDOF 3
ENDMDL
MODEL 6
REMARK VINA RESULT:      -6.8      2.030      3.001
REMARK  Name = 
REMARK  4 active torsions:
REMARK  status: ('A' for Active; 'I' for Inactive)
REMARK    1  A    between atoms: C_1  and  C_2
REMARK    2  A    between atoms: C_4  and  N_5
REMARK    3  A    between atoms: C_12  and  C_13
REMARK    4  A    between atoms: C_13  and  O_14
REMARK                            x       y       z     vdW  Elec       q    Type
REMARK                         _______ _______ _______ _____ _____    ______ ____
ROOT
ATOM      1  C   UNL     1       8.028   5.928  19.102  0.00  0.00    +0.000 C 
ATOM      2  C   UNL     1       7.072   5.181  18.224  0.00  0.00    +0.000 A 
ATOM      3  C   UNL     1       5.896   4.667  18.737  0.00  0.00    +0.000 A 
ATOM      4  C   UNL     1       5.003   4.077  17.860  0.00  0.00    +0.000 A 
ATOM      5  N   UNL     1       5.286   3.998  16.547  0.00  0.00    +0.000 NA
ATOM      6  C   UNL     1       6.469   4.508  16.127  0.00  0.00    +0.000 A 
ATOM      7  N   UNL     1       7.378   5.099  16.919  0.00  0.00    +0.000 NA
ENDROOT
BRANCH   4   8
ATOM      8  N   UNL     1       3.754   3.681  18.313  0.00  0.00    +0.000 N 
ATOM      9  C   UNL     1       2.694   3.480  17.329  0.00  0.00    +0.000 C 
ATOM     10  C   UNL     1       1.368   3.862  17.993  0.00  0.00    +0.000 C 
ATOM     11  C   UNL     1       1.149   3.111  19.309  0.00  0.00    +0.000 C 
ATOM     12  C   UNL     1       2.365   3.208  20.232  0.00  0.00    +0.000 C 
ATOM     13  C   UNL     1       3.653   2.829  19.498  0.00  0.00    +0.000 C 
ENDBRANCH   4   8
BRANCH   6  14
ATOM     14  C   UNL     1       6.750   4.445  14.641  0.00  0.00    +0.000 C 
BRANCH  14  15
ATOM     15  O   UNL     1       7.721   5.413  14.227  0.00  0.00    +0.000 OA
ATOM     16  H   UNL     1       7.501   5.599  13.290  0.00  0.00    +0.000 HD
ENDBRANCH  14  15
ENDBRANCH   6  14
TORSDOF 3
ENDMDL
MODEL 7
REMARK VINA RESULT:      -6.7      1.155      1.234
REMARK  Name = 
REMARK  4 active torsions:
REMARK  status: ('A' for Active; 'I' for Inactive)
REMARK    1  A    between atoms: C_1  and  C_2
REMARK    2  A    between atoms: C_4  and  N_5
REMARK    3  A    between atoms: C_12  and  C_13
REMARK    4  A    between atoms: C_13  and  O_14
REMARK                            x       y       z     vdW  Elec       q    Type
REMARK                         _______ _______ _______ _____ _____    ______ ____
ROOT
ATOM      1  C   UNL     1       6.830   4.483  14.485  0.00  0.00    +0.000 C 
ATOM      2  C   UNL     1       6.465   4.664  15.926  0.00  0.00    +0.000 A 
ATOM      3  C   UNL     1       5.187   4.388  16.371  0.00  0.00    +0.000 A 
ATOM      4  C   UNL     1       4.933   4.474  17.728  0.00  0.00    +0.000 A 
ATOM      5  N   UNL     1       5.908   4.832  18.583  0.00  0.00    +0.000 NA
ATOM      6  C   UNL     1       7.129   5.107  18.066  0.00  0.00    +0.000 A 
ATOM      7  N   UNL     1       7.447   5.037  16.763  0.00  0.00    +0.000 NA
ENDROOT
BRANCH   4   8
ATOM      8  N   UNL     1       3.706   4.064  18.227  0.00  0.00    +0.000 N 
ATOM      9  C   UNL     1       3.680   3.369  19.511  0.00  0.00    +0.000 C 
ATOM     10  C   UNL     1       2.525   2.363  19.468  0.00  0.00    +0.000 C 
ATOM     11  C   UNL     1       1.199   3.028  19.089  0.00  0.00    +0.000 C 
ATOM     12  C   UNL     1       1.330   3.888  17.831  0.00  0.00    +0.000 C 
ATOM     13  C   UNL     1       2.510   4.856  17.939  0.00  0.00    +0.000 C 
ENDBRANCH   4   8
BRANCH   6  14
ATOM     14  C   UNL     1       8.222   5.469  19.048  0.00  0.00    +0.000 C 
BRANCH  14  15
ATOM     15  O   UNL     1       7.751   5.506  20.401  0.00  0.00    +0.000 OA
ATOM     16  H   UNL     1       8.545   5.716  20.935  0.00  0.00    +0.000 HD
ENDBRANCH  14  15
ENDBRANCH   6  14
TORSDOF 3
ENDMDL
MODEL 8
REMARK VINA RESULT:      -6.7      2.327      3.114
REMARK  Name = 
REMARK  4 active torsions:
REMARK  status: ('A' for Active; 'I' for Inactive)
REMARK    1  A    between atoms: C_1  and  C_2
REMARK    2  A    between atoms: C_4  and  N_5
REMARK    3  A    between atoms: C_12  and  C_13
REMARK    4  A    between atoms: C_13  and  O_14
REMARK                            x       y       z     vdW  Elec       q    Type
REMARK                         _______ _______ _______ _____ _____    ______ ____
ROOT
ATOM      1  C   UNL     1       8.020   6.097  18.937  0.00  0.00    +0.000 C 
ATOM      2  C   UNL     1       7.107   5.326  18.033  0.00  0.00    +0.000 A 
ATOM      3  C   UNL     1       5.916   4.810  18.505  0.00  0.00    +0.000 A 
ATOM      4  C   UNL     1       5.065   4.197  17.603  0.00  0.00    +0.000 A 
ATOM      5  N   UNL     1       5.404   4.097  16.305  0.00  0.00    +0.000 NA
ATOM      6  C   UNL     1       6.598   4.610  15.926  0.00  0.00    +0.000 A 
ATOM      7  N   UNL     1       7.468   5.224  16.744  0.00  0.00    +0.000 NA
ENDROOT
BRANCH   4   8
ATOM      8  N   UNL     1       3.801   3.798  18.011  0.00  0.00    +0.000 N 
ATOM      9  C   UNL     1       3.696   2.654  18.912  0.00  0.00    +0.000 C 
ATOM     10  C   UNL     1       2.389   1.925  18.582  0.00  0.00    +0.000 C 
ATOM     11  C   UNL     1       1.182   2.866  18.622  0.00  0.00    +0.000 C 
ATOM     12  C   UNL     1       1.418   4.134  17.801  0.00  0.00    +0.000 C 
ATOM     13  C   UNL     1       2.746   4.798  18.172  0.00  0.00    +0.000 C 
ENDBRANCH   4   8
BRANCH   6  14
ATOM     14  C   UNL     1       6.942   4.523  14.454  0.00  0.00    +0.000 C 
BRANCH  14  15
ATOM     15  O   UNL     1       6.311   3.410  13.809  0.00  0.00    +0.000 OA
ATOM     16  H   UNL     1       6.821   3.280  12.983  0.00  0.00    +0.000 HD
ENDBRANCH  14  15
ENDBRANCH   6  14
TORSDOF 3
ENDMDL
MODEL 9
REMARK VINA RESULT:      -6.6      1.170      1.170
REMARK  Name = 
REMARK  4 active torsions:
REMARK  status: ('A' for Active; 'I' for Inactive)
REMARK    1  A    between atoms: C_1  and  C_2
REMARK    2  A    between atoms: C_4  and  N_5
REMARK    3  A    between atoms: C_12  and  C_13
REMARK    4  A    between atoms: C_13  and  O_14
REMARK                            x       y       z     vdW  Elec       q    Type
REMARK                         _______ _______ _______ _____ _____    ______ ____
ROOT
ATOM      1  C   UNL     1       5.047   6.729  15.733  0.00  0.00    +0.000 C 
ATOM      2  C   UNL     1       5.234   6.157  17.105  0.00  0.00    +0.000 A 
ATOM      3  C   UNL     1       4.172   5.597  17.788  0.00  0.00    +0.000 A 
ATOM      4  C   UNL     1       4.423   4.992  19.006  0.00  0.00    +0.000 A 
ATOM      5  N   UNL     1       5.669   4.967  19.512  0.00  0.00    +0.000 NA
ATOM      6  C   UNL     1       6.653   5.556  18.790  0.00  0.00    +0.000 A 
ATOM      7  N   UNL     1       6.483   6.154  17.600  0.00  0.00    +0.000 NA
ENDROOT
BRANCH   4   8
ATOM      8  N   UNL     1       3.412   4.295  19.650  0.00  0.00    +0.000 N 
ATOM      9  C   UNL     1       3.614   2.873  19.913  0.00  0.00    +0.000 C 
ATOM     10  C   UNL     1       2.245   2.189  19.831  0.00  0.00    +0.000 C 
ATOM     11  C   UNL     1       1.216   2.855  20.749  0.00  0.00    +0.000 C 
ATOM     12  C   UNL     1       1.174   4.371  20.554  0.00  0.00    +0.000 C 
ATOM     13  C   UNL     1       2.574   4.982  20.632  0.00  0.00    +0.000 C 
ENDBRANCH   4   8
BRANCH   6  14
ATOM     14  C   UNL     1       8.054   5.482  19.358  0.00  0.00    +0.000 C 
BRANCH  14  15
ATOM     15  O   UNL     1       8.064   5.469  20.791  0.00  0.00    +0.000 OA
ATOM     16  H   UNL     1       7.118   5.505  21.045  0.00  0.00    +0.000 HD
ENDBRANCH  14  15
ENDBRANCH   6  14
TORSDOF 3
ENDMDL
