MODEL 1
REMARK VINA RESULT:      -5.8      0.000      0.000
REMARK  Name = 
REMARK  2 active torsions:
REMARK  status: ('A' for Active; 'I' for Inactive)
REMARK    1  A    between atoms: C_1  and  C_2
REMARK    2  A    between atoms: N_3  and  O_4
REMARK                            x       y       z     vdW  Elec       q    Type
REMARK                         _______ _______ _______ _____ _____    ______ ____
ROOT
ATOM      1  C   UNL     1       7.685   7.137  17.878  0.00  0.00    +0.000 C 
ATOM      2  C   UNL     1       6.627   6.099  17.905  0.00  0.00    +0.000 A 
ATOM      3  N   UNL     1       5.756   5.817  16.894  0.00  0.00    +0.000 N 
ATOM      4  C   UNL     1       4.955   4.789  17.350  0.00  0.00    +0.000 A 
ATOM      5  C   UNL     1       3.896   4.097  16.753  0.00  0.00    +0.000 A 
ATOM      6  C   UNL     1       3.284   3.087  17.507  0.00  0.00    +0.000 A 
ATOM      7  C   UNL     1       3.710   2.777  18.806  0.00  0.00    +0.000 A 
ATOM      8  C   UNL     1       4.768   3.466  19.410  0.00  0.00    +0.000 A 
ATOM      9  C   UNL     1       5.372   4.470  18.653  0.00  0.00    +0.000 A 
ATOM     10  N   UNL     1       6.398   5.311  18.925  0.00  0.00    +0.000 N 
ATOM     11  O   UNL     1       7.106   5.423  19.958  0.00  0.00    +0.000 OA
ENDROOT
BRANCH   3  12
ATOM     12  O   UNL     1       5.646   6.399  15.644  0.00  0.00    +0.000 OA
ATOM     13  H   UNL     1       6.542   6.728  15.490  0.00  0.00    +0.000 HD
ENDBRANCH   3  12
TORSDOF 1
ENDMDL
MODEL 2
REMARK VINA RESULT:      -5.7      0.167      2.541
REMARK  Name = 
REMARK  2 active torsions:
REMARK  status: ('A' for Active; 'I' for Inactive)
REMARK    1  A    between atoms: C_1  and  C_2
REMARK    2  A    between atoms: N_3  and  O_4
REMARK                            x       y       z     vdW  Elec       q    Type
REMARK                         _______ _______ _______ _____ _____    ______ ____
ROOT
ATOM      1  C   UNL     1       7.555   7.314  17.583  0.00  0.00    +0.000 C 
ATOM      2  C   UNL     1       6.564   6.227  17.765  0.00  0.00    +0.000 A 
ATOM      3  N   UNL     1       6.453   5.419  18.858  0.00  0.00    +0.000 N 
ATOM      4  C   UNL     1       5.404   4.560  18.598  0.00  0.00    +0.000 A 
ATOM      5  C   UNL     1       4.839   3.525  19.350  0.00  0.00    +0.000 A 
ATOM      6  C   UNL     1       3.760   2.834  18.781  0.00  0.00    +0.000 A 
ATOM      7  C   UNL     1       3.264   3.161  17.512  0.00  0.00    +0.000 A 
ATOM      8  C   UNL     1       3.825   4.194  16.753  0.00  0.00    +0.000 A 
ATOM      9  C   UNL     1       4.898   4.878  17.326  0.00  0.00    +0.000 A 
ATOM     10  N   UNL     1       5.656   5.906  16.878  0.00  0.00    +0.000 N 
ATOM     11  O   UNL     1       5.601   6.546  15.797  0.00  0.00    +0.000 OA
ENDROOT
BRANCH   3  12
ATOM     12  O   UNL     1       7.201   5.411  20.021  0.00  0.00    +0.000 OA
ATOM     13  H   UNL     1       6.948   4.568  20.423  0.00  0.00    +0.000 HD
ENDBRANCH   3  12
TORSDOF 1
ENDMDL
MODEL 3
REMARK VINA RESULT:      -5.7      2.880      3.778
REMARK  Name = 
REMARK  2 active torsions:
REMARK  status: ('A' for Active; 'I' for Inactive)
REMARK    1  A    between atoms: C_1  and  C_2
REMARK    2  A    between atoms: N_3  and  O_4
REMARK                            x       y       z     vdW  Elec       q    Type
REMARK                         _______ _______ _______ _____ _____    ______ ____
ROOT
ATOM      1  C   UNL     1       5.229   3.925  16.236  0.00  0.00    +0.000 C 
ATOM      2  C   UNL     1       4.240   3.859  17.338  0.00  0.00    +0.000 A 
ATOM      3  N   UNL     1       3.809   2.725  17.960  0.00  0.00    +0.000 N 
ATOM      4  C   UNL     1       2.898   3.131  18.915  0.00  0.00    +0.000 A 
ATOM      5  C   UNL     1       2.140   2.412  19.845  0.00  0.00    +0.000 A 
ATOM      6  C   UNL     1       1.294   3.146  20.687  0.00  0.00    +0.000 A 
ATOM      7  C   UNL     1       1.207   4.542  20.608  0.00  0.00    +0.000 A 
ATOM      8  C   UNL     1       1.962   5.269  19.680  0.00  0.00    +0.000 A 
ATOM      9  C   UNL     1       2.802   4.531  18.844  0.00  0.00    +0.000 A 
ATOM     10  N   UNL     1       3.650   4.906  17.859  0.00  0.00    +0.000 N 
ATOM     11  O   UNL     1       3.924   6.050  17.412  0.00  0.00    +0.000 OA
ENDROOT
BRANCH   3  12
ATOM     12  O   UNL     1       4.169   1.410  17.731  0.00  0.00    +0.000 OA
ATOM     13  H   UNL     1       3.732   0.947  18.460  0.00  0.00    +0.000 HD
ENDBRANCH   3  12
TORSDOF 1
ENDMDL
MODEL 4
REMARK VINA RESULT:      -5.7      2.645      3.506
REMARK  Name = 
REMARK  2 active torsions:
REMARK  status: ('A' for Active; 'I' for Inactive)
REMARK    1  A    between atoms: C_1  and  C_2
REMARK    2  A    between atoms: N_3  and  O_4
REMARK                            x       y       z     vdW  Elec       q    Type
REMARK                         _______ _______ _______ _____ _____    ______ ____
ROOT
ATOM      1  C   UNL     1       4.964   6.414  17.401  0.00  0.00    +0.000 C 
ATOM      2  C   UNL     1       4.217   5.533  18.329  0.00  0.00    +0.000 A 
ATOM      3  N   UNL     1       4.664   4.354  18.848  0.00  0.00    +0.000 N 
ATOM      4  C   UNL     1       3.650   3.878  19.656  0.00  0.00    +0.000 A 
ATOM      5  C   UNL     1       3.545   2.721  20.436  0.00  0.00    +0.000 A 
ATOM      6  C   UNL     1       2.353   2.536  21.149  0.00  0.00    +0.000 A 
ATOM      7  C   UNL     1       1.306   3.465  21.088  0.00  0.00    +0.000 A 
ATOM      8  C   UNL     1       1.404   4.624  20.309  0.00  0.00    +0.000 A 
ATOM      9  C   UNL     1       2.593   4.802  19.601  0.00  0.00    +0.000 A 
ATOM     10  N   UNL     1       3.011   5.787  18.772  0.00  0.00    +0.000 N 
ATOM     11  O   UNL     1       2.431   6.839  18.401  0.00  0.00    +0.000 OA
ENDROOT
BRANCH   3  12
ATOM     12  O   UNL     1       5.873   3.712  18.651  0.00  0.00    +0.000 OA
ATOM     13  H   UNL     1       5.770   2.910  19.182  0.00  0.00    +0.000 HD
ENDBRANCH   3  12
TORSDOF 1
ENDMDL
MODEL 5
REMARK VINA RESULT:      -5.7      2.403      3.571
REMARK  Name = 
REMARK  2 active torsions:
REMARK  status: ('A' for Active; 'I' for Inactive)
REMARK    1  A    between atoms: C_1  and  C_2
REMARK    2  A    between atoms: N_3  and  O_4
REMARK                            x       y       z     vdW  Elec       q    Type
REMARK                         _______ _______ _______ _____ _____    ______ ____
ROOT
ATOM      1  C   UNL     1       6.761   4.397  16.172  0.00  0.00    +0.000 C 
ATOM      2  C   UNL     1       5.684   5.033  16.967  0.00  0.00    +0.000 A 
ATOM      3  N   UNL     1       5.187   4.576  18.152  0.00  0.00    +0.000 N 
ATOM      4  C   UNL     1       4.207   5.472  18.531  0.00  0.00    +0.000 A 
ATOM      5  C   UNL     1       3.364   5.515  19.647  0.00  0.00    +0.000 A 
ATOM      6  C   UNL     1       2.463   6.585  19.728  0.00  0.00    +0.000 A 
ATOM      7  C   UNL     1       2.402   7.574  18.737  0.00  0.00    +0.000 A 
ATOM      8  C   UNL     1       3.241   7.536  17.617  0.00  0.00    +0.000 A 
ATOM      9  C   UNL     1       4.136   6.468  17.543  0.00  0.00    +0.000 A 
ATOM     10  N   UNL     1       5.068   6.135  16.620  0.00  0.00    +0.000 N 
ATOM     11  O   UNL     1       5.393   6.707  15.549  0.00  0.00    +0.000 OA
ENDROOT
BRANCH   3  12
ATOM     12  O   UNL     1       5.546   3.456  18.880  0.00  0.00    +0.000 OA
ATOM     13  H   UNL     1       6.210   3.045  18.310  0.00  0.00    +0.000 HD
ENDBRANCH   3  12
TORSDOF 1
ENDMDL
MODEL 6
REMARK VINA RESULT:      -5.6      2.738      4.201
REMARK  Name = 
REMARK  2 active torsions:
REMARK  status: ('A' for Active; 'I' for Inactive)
REMARK    1  A    between atoms: C_1  and  C_2
REMARK    2  A    between atoms: N_3  and  O_4
REMARK                            x       y       z     vdW  Elec       q    Type
REMARK                         _______ _______ _______ _____ _____    ______ ____
ROOT
ATOM      1  C   UNL     1       4.716   3.916  16.312  0.00  0.00    +0.000 C 
ATOM      2  C   UNL     1       3.953   3.640  17.552  0.00  0.00    +0.000 A 
ATOM      3  N   UNL     1       4.475   3.539  18.808  0.00  0.00    +0.000 N 
ATOM      4  C   UNL     1       3.411   3.277  19.649  0.00  0.00    +0.000 A 
ATOM      5  C   UNL     1       3.343   3.077  21.031  0.00  0.00    +0.000 A 
ATOM      6  C   UNL     1       2.079   2.828  21.581  0.00  0.00    +0.000 A 
ATOM      7  C   UNL     1       0.926   2.779  20.786  0.00  0.00    +0.000 A 
ATOM      8  C   UNL     1       0.986   2.978  19.402  0.00  0.00    +0.000 A 
ATOM      9  C   UNL     1       2.249   3.226  18.861  0.00  0.00    +0.000 A 
ATOM     10  N   UNL     1       2.657   3.457  17.591  0.00  0.00    +0.000 N 
ATOM     11  O   UNL     1       1.997   3.514  16.522  0.00  0.00    +0.000 OA
ENDROOT
BRANCH   3  12
ATOM     12  O   UNL     1       5.788   3.665  19.224  0.00  0.00    +0.000 OA
ATOM     13  H   UNL     1       6.192   4.145  18.487  0.00  0.00    +0.000 HD
ENDBRANCH   3  12
TORSDOF 1
ENDMDL
MODEL 7
REMARK VINA RESULT:      -5.6      2.336      2.943
REMARK  Name = 
REMARK  2 active torsions:
REMARK  status: ('A' for Active; 'I' for Inactive)
REMARK    1  A    between atoms: C_1  and  C_2
REMARK    2  A    between atoms: N_3  and  O_4
REMARK                            x       y       z     vdW  Elec       q    Type
REMARK                         _______ _______ _______ _____ _____    ______ ____
ROOT
ATOM      1  C   UNL     1       5.138   6.566  16.598  0.00  0.00    +0.000 C 
ATOM      2  C   UNL     1       4.295   5.480  17.151  0.00  0.00    +0.000 A 
ATOM      3  N   UNL     1       4.547   4.143  17.056  0.00  0.00    +0.000 N 
ATOM      4  C   UNL     1       3.509   3.507  17.707  0.00  0.00    +0.000 A 
ATOM      5  C   UNL     1       3.238   2.152  17.927  0.00  0.00    +0.000 A 
ATOM      6  C   UNL     1       2.073   1.840  18.642  0.00  0.00    +0.000 A 
ATOM      7  C   UNL     1       1.212   2.837  19.118  0.00  0.00    +0.000 A 
ATOM      8  C   UNL     1       1.477   4.194  18.901  0.00  0.00    +0.000 A 
ATOM      9  C   UNL     1       2.638   4.498  18.189  0.00  0.00    +0.000 A 
ATOM     10  N   UNL     1       3.182   5.679  17.813  0.00  0.00    +0.000 N 
ATOM     11  O   UNL     1       2.784   6.856  18.003  0.00  0.00    +0.000 OA
ENDROOT
BRANCH   3  12
ATOM     12  O   UNL     1       5.606   3.493  16.449  0.00  0.00    +0.000 OA
ATOM     13  H   UNL     1       5.166   2.754  16.005  0.00  0.00    +0.000 HD
ENDBRANCH   3  12
TORSDOF 1
ENDMDL
MODEL 8
REMARK VINA RESULT:      -5.6      3.101      4.562
REMARK  Name = 
REMARK  2 active torsions:
REMARK  status: ('A' for Active; 'I' for Inactive)
REMARK    1  A    between atoms: C_1  and  C_2
REMARK    2  A    between atoms: N_3  and  O_4
REMARK                            x       y       z     vdW  Elec       q    Type
REMARK                         _______ _______ _______ _____ _____    ______ ____
ROOT
ATOM      1  C   UNL     1       2.370   2.671  21.463  0.00  0.00    +0.000 C 
ATOM      2  C   UNL     1       2.901   3.615  20.452  0.00  0.00    +0.000 A 
ATOM      3  N   UNL     1       4.046   3.454  19.729  0.00  0.00    +0.000 N 
ATOM      4  C   UNL     1       4.149   4.565  18.916  0.00  0.00    +0.000 A 
ATOM      5  C   UNL     1       5.109   4.943  17.971  0.00  0.00    +0.000 A 
ATOM      6  C   UNL     1       4.908   6.160  17.306  0.00  0.00    +0.000 A 
ATOM      7  C   UNL     1       3.796   6.970  17.571  0.00  0.00    +0.000 A 
ATOM      8  C   UNL     1       2.833   6.599  18.516  0.00  0.00    +0.000 A 
ATOM      9  C   UNL     1       3.038   5.386  19.174  0.00  0.00    +0.000 A 
ATOM     10  N   UNL     1       2.319   4.741  20.123  0.00  0.00    +0.000 N 
ATOM     11  O   UNL     1       1.243   5.063  20.687  0.00  0.00    +0.000 OA
ENDROOT
BRANCH   3  12
ATOM     12  O   UNL     1       4.960   2.416  19.755  0.00  0.00    +0.000 OA
ATOM     13  H   UNL     1       4.409   1.651  19.541  0.00  0.00    +0.000 HD
ENDBRANCH   3  12
TORSDOF 1
ENDMDL
MODEL 9
REMARK VINA RESULT:      -5.6      1.761      2.570
REMARK  Name = 
REMARK  2 active torsions:
REMARK  status: ('A' for Active; 'I' for Inactive)
REMARK    1  A    between atoms: C_1  and  C_2
REMARK    2  A    between atoms: N_3  and  O_4
REMARK                            x       y       z     vdW  Elec       q    Type
REMARK                         _______ _______ _______ _____ _____    ______ ____
ROOT
ATOM      1  C   UNL     1       6.417   6.972  17.407  0.00  0.00    +0.000 C 
ATOM      2  C   UNL     1       5.349   5.966  17.614  0.00  0.00    +0.000 A 
ATOM      3  N   UNL     1       5.537   4.638  17.859  0.00  0.00    +0.000 N 
ATOM      4  C   UNL     1       4.278   4.086  17.985  0.00  0.00    +0.000 A 
ATOM      5  C   UNL     1       3.855   2.777  18.237  0.00  0.00    +0.000 A 
ATOM      6  C   UNL     1       2.473   2.552  18.304  0.00  0.00    +0.000 A 
ATOM      7  C   UNL     1       1.548   3.589  18.127  0.00  0.00    +0.000 A 
ATOM      8  C   UNL     1       1.964   4.901  17.873  0.00  0.00    +0.000 A 
ATOM      9  C   UNL     1       3.341   5.118  17.808  0.00  0.00    +0.000 A 
ATOM     10  N   UNL     1       4.069   6.238  17.586  0.00  0.00    +0.000 N 
ATOM     11  O   UNL     1       3.698   7.420  17.372  0.00  0.00    +0.000 OA
ENDROOT
BRANCH   3  12
ATOM     12  O   UNL     1       6.718   3.926  17.974  0.00  0.00    +0.000 OA
ATOM     13  H   UNL     1       6.538   3.142  17.438  0.00  0.00    +0.000 HD
ENDBRANCH   3  12
TORSDOF 1
ENDMDL
