MODEL 1
REMARK VINA RESULT:      -7.6      0.000      0.000
REMARK  Name = 
REMARK  8 active torsions:
REMARK  status: ('A' for Active; 'I' for Inactive)
REMARK    1  A    between atoms: C_1  and  C_2
REMARK    2  A    between atoms: C_2  and  N_3
REMARK    3  A    between atoms: N_3  and  C_4
REMARK    4  A    between atoms: N_3  and  C_13
REMARK    5  A    between atoms: C_4  and  C_5
REMARK    6  A    between atoms: C_9  and  C_10
REMARK    7  A    between atoms: C_10  and  C_11
REMARK    8  A    between atoms: C_10  and  C_12
REMARK                            x       y       z     vdW  Elec       q    Type
REMARK                         _______ _______ _______ _____ _____    ______ ____
ROOT
ATOM      1  N   UNL     1       3.687   4.445  17.764  0.00  0.00    +0.000 N 
ENDROOT
BRANCH   1   2
ATOM      2  C   UNL     1       2.976   3.952  18.852  0.00  0.00    +0.000 A 
ATOM      3  C   UNL     1       1.589   4.173  18.959  0.00  0.00    +0.000 A 
ATOM      4  C   UNL     1       0.845   3.697  20.045  0.00  0.00    +0.000 A 
ATOM      5  C   UNL     1       1.481   2.974  21.043  0.00  0.00    +0.000 A 
ATOM      6  F   UNL     1       0.772   2.508  22.078  0.00  0.00    +0.000 F 
ATOM      7  C   UNL     1       2.846   2.747  20.967  0.00  0.00    +0.000 A 
ATOM      8  F   UNL     1       3.467   2.047  21.927  0.00  0.00    +0.000 F 
ATOM      9  C   UNL     1       3.587   3.242  19.895  0.00  0.00    +0.000 A 
ENDBRANCH   1   2
BRANCH   1  11
ATOM     10  C   UNL     1       3.433   6.876  18.381  0.00  0.00    +0.000 C 
ATOM     11  C   UNL     1       3.483   5.819  17.289  0.00  0.00    +0.000 C 
ENDBRANCH   1  11
BRANCH   1  12
ATOM     12  C   UNL     1       4.904   3.722  17.321  0.00  0.00    +0.000 C 
BRANCH  12  13
ATOM     13  C   UNL     1       5.905   4.458  16.469  0.00  0.00    +0.000 A 
ATOM     14  N   UNL     1       6.129   4.075  15.158  0.00  0.00    +0.000 NA
ATOM     15  C   UNL     1       7.046   4.904  14.728  0.00  0.00    +0.000 A 
ATOM     16  O   UNL     1       7.476   5.803  15.646  0.00  0.00    +0.000 OA
ATOM     17  C   UNL     1       6.747   5.522  16.772  0.00  0.00    +0.000 A 
BRANCH  17  18
ATOM     18  C   UNL     1       7.041   6.401  17.942  0.00  0.00    +0.000 C 
ATOM     19  C   UNL     1       7.876   5.676  18.994  0.00  0.00    +0.000 C 
ATOM     20  C   UNL     1       7.685   7.721  17.531  0.00  0.00    +0.000 C 
ENDBRANCH  17  18
ENDBRANCH  12  13
ENDBRANCH   1  12
TORSDOF 5
ENDMDL
MODEL 2
REMARK VINA RESULT:      -7.5      1.557      2.716
REMARK  Name = 
REMARK  8 active torsions:
REMARK  status: ('A' for Active; 'I' for Inactive)
REMARK    1  A    between atoms: C_1  and  C_2
REMARK    2  A    between atoms: C_2  and  N_3
REMARK    3  A    between atoms: N_3  and  C_4
REMARK    4  A    between atoms: N_3  and  C_13
REMARK    5  A    between atoms: C_4  and  C_5
REMARK    6  A    between atoms: C_9  and  C_10
REMARK    7  A    between atoms: C_10  and  C_11
REMARK    8  A    between atoms: C_10  and  C_12
REMARK                            x       y       z     vdW  Elec       q    Type
REMARK                         _______ _______ _______ _____ _____    ______ ____
ROOT
ATOM      1  N   UNL     1       3.438   5.281  17.665  0.00  0.00    +0.000 N 
ENDROOT
BRANCH   1   2
ATOM      2  C   UNL     1       2.760   4.628  18.688  0.00  0.00    +0.000 A 
ATOM      3  C   UNL     1       3.116   4.845  20.034  0.00  0.00    +0.000 A 
ATOM      4  C   UNL     1       2.458   4.198  21.087  0.00  0.00    +0.000 A 
ATOM      5  C   UNL     1       1.417   3.327  20.808  0.00  0.00    +0.000 A 
ATOM      6  F   UNL     1       0.779   2.713  21.812  0.00  0.00    +0.000 F 
ATOM      7  C   UNL     1       1.049   3.089  19.493  0.00  0.00    +0.000 A 
ATOM      8  F   UNL     1       0.042   2.250  19.216  0.00  0.00    +0.000 F 
ATOM      9  C   UNL     1       1.721   3.718  18.446  0.00  0.00    +0.000 A 
ENDBRANCH   1   2
BRANCH   1  11
ATOM     10  C   UNL     1       2.545   7.621  17.956  0.00  0.00    +0.000 C 
ATOM     11  C   UNL     1       3.749   6.713  17.760  0.00  0.00    +0.000 C 
ENDBRANCH   1  11
BRANCH   1  12
ATOM     12  C   UNL     1       4.164   4.469  16.659  0.00  0.00    +0.000 C 
BRANCH  12  13
ATOM     13  C   UNL     1       5.670   4.525  16.645  0.00  0.00    +0.000 A 
ATOM     14  N   UNL     1       6.387   4.444  17.827  0.00  0.00    +0.000 NA
ATOM     15  C   UNL     1       7.639   4.534  17.454  0.00  0.00    +0.000 A 
ATOM     16  O   UNL     1       7.828   4.689  16.122  0.00  0.00    +0.000 OA
ATOM     17  C   UNL     1       6.563   4.686  15.592  0.00  0.00    +0.000 A 
BRANCH  17  18
ATOM     18  C   UNL     1       6.507   4.838  14.108  0.00  0.00    +0.000 C 
ATOM     19  C   UNL     1       7.869   5.209  13.529  0.00  0.00    +0.000 C 
ATOM     20  C   UNL     1       5.923   3.609  13.419  0.00  0.00    +0.000 C 
ENDBRANCH  17  18
ENDBRANCH  12  13
ENDBRANCH   1  12
TORSDOF 5
ENDMDL
MODEL 3
REMARK VINA RESULT:      -7.5      2.654      3.536
REMARK  Name = 
REMARK  8 active torsions:
REMARK  status: ('A' for Active; 'I' for Inactive)
REMARK    1  A    between atoms: C_1  and  C_2
REMARK    2  A    between atoms: C_2  and  N_3
REMARK    3  A    between atoms: N_3  and  C_4
REMARK    4  A    between atoms: N_3  and  C_13
REMARK    5  A    between atoms: C_4  and  C_5
REMARK    6  A    between atoms: C_9  and  C_10
REMARK    7  A    between atoms: C_10  and  C_11
REMARK    8  A    between atoms: C_10  and  C_12
REMARK                            x       y       z     vdW  Elec       q    Type
REMARK                         _______ _______ _______ _____ _____    ______ ____
ROOT
ATOM      1  N   UNL     1       4.156   4.658  18.326  0.00  0.00    +0.000 N 
ENDROOT
BRANCH   1   2
ATOM      2  C   UNL     1       3.400   5.759  18.709  0.00  0.00    +0.000 A 
ATOM      3  C   UNL     1       2.743   5.777  19.955  0.00  0.00    +0.000 A 
ATOM      4  C   UNL     1       1.969   6.868  20.368  0.00  0.00    +0.000 A 
ATOM      5  C   UNL     1       1.850   7.972  19.538  0.00  0.00    +0.000 A 
ATOM      6  F   UNL     1       1.118   9.022  19.933  0.00  0.00    +0.000 F 
ATOM      7  C   UNL     1       2.480   7.980  18.304  0.00  0.00    +0.000 A 
ATOM      8  F   UNL     1       2.371   9.045  17.498  0.00  0.00    +0.000 F 
ATOM      9  C   UNL     1       3.232   6.883  17.887  0.00  0.00    +0.000 A 
ENDBRANCH   1   2
BRANCH   1  11
ATOM     10  C   UNL     1       3.806   2.262  19.033  0.00  0.00    +0.000 C 
ATOM     11  C   UNL     1       4.487   3.598  19.287  0.00  0.00    +0.000 C 
ENDBRANCH   1  11
BRANCH   1  12
ATOM     12  C   UNL     1       4.312   4.368  16.880  0.00  0.00    +0.000 C 
BRANCH  12  13
ATOM     13  C   UNL     1       5.591   4.783  16.199  0.00  0.00    +0.000 A 
ATOM     14  N   UNL     1       5.913   4.288  14.947  0.00  0.00    +0.000 NA
ATOM     15  C   UNL     1       7.069   4.836  14.668  0.00  0.00    +0.000 A 
ATOM     16  O   UNL     1       7.564   5.645  15.635  0.00  0.00    +0.000 OA
ATOM     17  C   UNL     1       6.619   5.615  16.628  0.00  0.00    +0.000 A 
BRANCH  17  18
ATOM     18  C   UNL     1       6.940   6.452  17.821  0.00  0.00    +0.000 C 
ATOM     19  C   UNL     1       7.724   5.662  18.866  0.00  0.00    +0.000 C 
ATOM     20  C   UNL     1       7.654   7.747  17.449  0.00  0.00    +0.000 C 
ENDBRANCH  17  18
ENDBRANCH  12  13
ENDBRANCH   1  12
TORSDOF 5
ENDMDL
MODEL 4
REMARK VINA RESULT:      -7.5      2.216      3.332
REMARK  Name = 
REMARK  8 active torsions:
REMARK  status: ('A' for Active; 'I' for Inactive)
REMARK    1  A    between atoms: C_1  and  C_2
REMARK    2  A    between atoms: C_2  and  N_3
REMARK    3  A    between atoms: N_3  and  C_4
REMARK    4  A    between atoms: N_3  and  C_13
REMARK    5  A    between atoms: C_4  and  C_5
REMARK    6  A    between atoms: C_9  and  C_10
REMARK    7  A    between atoms: C_10  and  C_11
REMARK    8  A    between atoms: C_10  and  C_12
REMARK                            x       y       z     vdW  Elec       q    Type
REMARK                         _______ _______ _______ _____ _____    ______ ____
ROOT
ATOM      1  N   UNL     1       4.177   4.760  18.283  0.00  0.00    +0.000 N 
ENDROOT
BRANCH   1   2
ATOM      2  C   UNL     1       3.432   5.891  18.597  0.00  0.00    +0.000 A 
ATOM      3  C   UNL     1       3.404   6.995  17.723  0.00  0.00    +0.000 A 
ATOM      4  C   UNL     1       2.670   8.150  18.013  0.00  0.00    +0.000 A 
ATOM      5  C   UNL     1       1.935   8.214  19.187  0.00  0.00    +0.000 A 
ATOM      6  F   UNL     1       1.223   9.314  19.464  0.00  0.00    +0.000 F 
ATOM      7  C   UNL     1       1.948   7.146  20.068  0.00  0.00    +0.000 A 
ATOM      8  F   UNL     1       1.238   7.199  21.204  0.00  0.00    +0.000 F 
ATOM      9  C   UNL     1       2.699   6.005  19.786  0.00  0.00    +0.000 A 
ENDBRANCH   1   2
BRANCH   1  11
ATOM     10  C   UNL     1       3.753   2.410  19.095  0.00  0.00    +0.000 C 
ATOM     11  C   UNL     1       4.463   3.740  19.300  0.00  0.00    +0.000 C 
ENDBRANCH   1  11
BRANCH   1  12
ATOM     12  C   UNL     1       4.365   4.403  16.856  0.00  0.00    +0.000 C 
BRANCH  12  13
ATOM     13  C   UNL     1       5.637   4.833  16.171  0.00  0.00    +0.000 A 
ATOM     14  N   UNL     1       5.953   4.354  14.911  0.00  0.00    +0.000 NA
ATOM     15  C   UNL     1       7.103   4.912  14.630  0.00  0.00    +0.000 A 
ATOM     16  O   UNL     1       7.602   5.712  15.603  0.00  0.00    +0.000 OA
ATOM     17  C   UNL     1       6.664   5.665  16.602  0.00  0.00    +0.000 A 
BRANCH  17  18
ATOM     18  C   UNL     1       6.989   6.489  17.803  0.00  0.00    +0.000 C 
ATOM     19  C   UNL     1       7.711   5.669  18.869  0.00  0.00    +0.000 C 
ATOM     20  C   UNL     1       7.767   7.753  17.449  0.00  0.00    +0.000 C 
ENDBRANCH  17  18
ENDBRANCH  12  13
ENDBRANCH   1  12
TORSDOF 5
ENDMDL
MODEL 5
REMARK VINA RESULT:      -7.3      3.457      5.682
REMARK  Name = 
REMARK  8 active torsions:
REMARK  status: ('A' for Active; 'I' for Inactive)
REMARK    1  A    between atoms: C_1  and  C_2
REMARK    2  A    between atoms: C_2  and  N_3
REMARK    3  A    between atoms: N_3  and  C_4
REMARK    4  A    between atoms: N_3  and  C_13
REMARK    5  A    between atoms: C_4  and  C_5
REMARK    6  A    between atoms: C_9  and  C_10
REMARK    7  A    between atoms: C_10  and  C_11
REMARK    8  A    between atoms: C_10  and  C_12
REMARK                            x       y       z     vdW  Elec       q    Type
REMARK                         _______ _______ _______ _____ _____    ______ ____
ROOT
ATOM      1  N   UNL     1       3.095   6.355  17.928  0.00  0.00    +0.000 N 
ENDROOT
BRANCH   1   2
ATOM      2  C   UNL     1       4.376   5.826  17.821  0.00  0.00    +0.000 A 
ATOM      3  C   UNL     1       5.109   5.489  18.976  0.00  0.00    +0.000 A 
ATOM      4  C   UNL     1       6.404   4.962  18.903  0.00  0.00    +0.000 A 
ATOM      5  C   UNL     1       6.984   4.749  17.663  0.00  0.00    +0.000 A 
ATOM      6  F   UNL     1       8.219   4.236  17.588  0.00  0.00    +0.000 F 
ATOM      7  C   UNL     1       6.289   5.077  16.510  0.00  0.00    +0.000 A 
ATOM      8  F   UNL     1       6.843   4.872  15.307  0.00  0.00    +0.000 F 
ATOM      9  C   UNL     1       5.009   5.623  16.587  0.00  0.00    +0.000 A 
ENDBRANCH   1   2
BRANCH   1  11
ATOM     10  C   UNL     1       1.967   8.316  19.043  0.00  0.00    +0.000 C 
ATOM     11  C   UNL     1       2.877   7.807  17.936  0.00  0.00    +0.000 C 
ENDBRANCH   1  11
BRANCH   1  12
ATOM     12  C   UNL     1       1.934   5.472  17.661  0.00  0.00    +0.000 C 
BRANCH  12  13
ATOM     13  C   UNL     1       2.032   4.021  18.056  0.00  0.00    +0.000 A 
ATOM     14  N   UNL     1       2.402   3.064  17.126  0.00  0.00    +0.000 NA
ATOM     15  C   UNL     1       2.374   1.937  17.791  0.00  0.00    +0.000 A 
ATOM     16  O   UNL     1       1.996   2.049  19.087  0.00  0.00    +0.000 OA
ATOM     17  C   UNL     1       1.771   3.389  19.266  0.00  0.00    +0.000 A 
BRANCH  17  18
ATOM     18  C   UNL     1       1.343   3.773  20.644  0.00  0.00    +0.000 C 
ATOM     19  C   UNL     1       1.535   2.625  21.631  0.00  0.00    +0.000 C 
ATOM     20  C   UNL     1       2.024   5.048  21.131  0.00  0.00    +0.000 C 
ENDBRANCH  17  18
ENDBRANCH  12  13
ENDBRANCH   1  12
TORSDOF 5
ENDMDL
MODEL 6
REMARK VINA RESULT:      -7.3      2.482      4.160
REMARK  Name = 
REMARK  8 active torsions:
REMARK  status: ('A' for Active; 'I' for Inactive)
REMARK    1  A    between atoms: C_1  and  C_2
REMARK    2  A    between atoms: C_2  and  N_3
REMARK    3  A    between atoms: N_3  and  C_4
REMARK    4  A    between atoms: N_3  and  C_13
REMARK    5  A    between atoms: C_4  and  C_5
REMARK    6  A    between atoms: C_9  and  C_10
REMARK    7  A    between atoms: C_10  and  C_11
REMARK    8  A    between atoms: C_10  and  C_12
REMARK                            x       y       z     vdW  Elec       q    Type
REMARK                         _______ _______ _______ _____ _____    ______ ____
ROOT
ATOM      1  N   UNL     1       5.079   4.636  16.138  0.00  0.00    +0.000 N 
ENDROOT
BRANCH   1   2
ATOM      2  C   UNL     1       4.338   4.124  17.196  0.00  0.00    +0.000 A 
ATOM      3  C   UNL     1       4.972   3.737  18.393  0.00  0.00    +0.000 A 
ATOM      4  C   UNL     1       4.254   3.210  19.474  0.00  0.00    +0.000 A 
ATOM      5  C   UNL     1       2.878   3.075  19.377  0.00  0.00    +0.000 A 
ATOM      6  F   UNL     1       2.187   2.581  20.412  0.00  0.00    +0.000 F 
ATOM      7  C   UNL     1       2.229   3.442  18.210  0.00  0.00    +0.000 A 
ATOM      8  F   UNL     1       0.898   3.316  18.110  0.00  0.00    +0.000 F 
ATOM      9  C   UNL     1       2.949   3.944  17.127  0.00  0.00    +0.000 A 
ENDBRANCH   1   2
BRANCH   1  11
ATOM     10  C   UNL     1       5.852   6.902  16.932  0.00  0.00    +0.000 C 
ATOM     11  C   UNL     1       5.124   6.081  15.878  0.00  0.00    +0.000 C 
ENDBRANCH   1  11
BRANCH   1  12
ATOM     12  C   UNL     1       6.109   3.777  15.506  0.00  0.00    +0.000 C 
BRANCH  12  13
ATOM     13  C   UNL     1       6.675   4.197  14.174  0.00  0.00    +0.000 A 
ATOM     14  N   UNL     1       7.634   5.192  14.100  0.00  0.00    +0.000 NA
ATOM     15  C   UNL     1       7.887   5.307  12.821  0.00  0.00    +0.000 A 
ATOM     16  O   UNL     1       7.164   4.486  12.022  0.00  0.00    +0.000 OA
ATOM     17  C   UNL     1       6.378   3.768  12.886  0.00  0.00    +0.000 A 
BRANCH  17  18
ATOM     18  C   UNL     1       5.480   2.771  12.231  0.00  0.00    +0.000 C 
ATOM     19  C   UNL     1       4.334   3.451  11.486  0.00  0.00    +0.000 C 
ATOM     20  C   UNL     1       6.241   1.808  11.326  0.00  0.00    +0.000 C 
ENDBRANCH  17  18
ENDBRANCH  12  13
ENDBRANCH   1  12
TORSDOF 5
ENDMDL
MODEL 7
REMARK VINA RESULT:      -7.3      1.939      2.152
REMARK  Name = 
REMARK  8 active torsions:
REMARK  status: ('A' for Active; 'I' for Inactive)
REMARK    1  A    between atoms: C_1  and  C_2
REMARK    2  A    between atoms: C_2  and  N_3
REMARK    3  A    between atoms: N_3  and  C_4
REMARK    4  A    between atoms: N_3  and  C_13
REMARK    5  A    between atoms: C_4  and  C_5
REMARK    6  A    between atoms: C_9  and  C_10
REMARK    7  A    between atoms: C_10  and  C_11
REMARK    8  A    between atoms: C_10  and  C_12
REMARK                            x       y       z     vdW  Elec       q    Type
REMARK                         _______ _______ _______ _____ _____    ______ ____
ROOT
ATOM      1  N   UNL     1       3.291   6.167  17.776  0.00  0.00    +0.000 N 
ENDROOT
BRANCH   1   2
ATOM      2  C   UNL     1       3.369   4.798  18.011  0.00  0.00    +0.000 A 
ATOM      3  C   UNL     1       2.657   3.892  17.201  0.00  0.00    +0.000 A 
ATOM      4  C   UNL     1       2.709   2.510  17.416  0.00  0.00    +0.000 A 
ATOM      5  C   UNL     1       3.491   2.008  18.444  0.00  0.00    +0.000 A 
ATOM      6  F   UNL     1       3.551   0.686  18.647  0.00  0.00    +0.000 F 
ATOM      7  C   UNL     1       4.198   2.877  19.260  0.00  0.00    +0.000 A 
ATOM      8  F   UNL     1       4.958   2.399  20.255  0.00  0.00    +0.000 F 
ATOM      9  C   UNL     1       4.126   4.254  19.058  0.00  0.00    +0.000 A 
ENDBRANCH   1   2
BRANCH   1  11
ATOM     10  C   UNL     1       2.174   8.388  18.199  0.00  0.00    +0.000 C 
ATOM     11  C   UNL     1       2.675   7.066  18.760  0.00  0.00    +0.000 C 
ENDBRANCH   1  11
BRANCH   1  12
ATOM     12  C   UNL     1       4.148   6.760  16.722  0.00  0.00    +0.000 C 
BRANCH  12  13
ATOM     13  C   UNL     1       5.457   6.086  16.398  0.00  0.00    +0.000 A 
ATOM     14  N   UNL     1       5.570   5.267  15.288  0.00  0.00    +0.000 NA
ATOM     15  C   UNL     1       6.811   4.850  15.316  0.00  0.00    +0.000 A 
ATOM     16  O   UNL     1       7.540   5.303  16.364  0.00  0.00    +0.000 OA
ATOM     17  C   UNL     1       6.675   6.100  17.069  0.00  0.00    +0.000 A 
BRANCH  17  18
ATOM     18  C   UNL     1       7.259   6.732  18.288  0.00  0.00    +0.000 C 
ATOM     19  C   UNL     1       8.034   5.721  19.129  0.00  0.00    +0.000 C 
ATOM     20  C   UNL     1       8.112   7.953  17.958  0.00  0.00    +0.000 C 
ENDBRANCH  17  18
ENDBRANCH  12  13
ENDBRANCH   1  12
TORSDOF 5
ENDMDL
MODEL 8
REMARK VINA RESULT:      -7.2      0.994      1.480
REMARK  Name = 
REMARK  8 active torsions:
REMARK  status: ('A' for Active; 'I' for Inactive)
REMARK    1  A    between atoms: C_1  and  C_2
REMARK    2  A    between atoms: C_2  and  N_3
REMARK    3  A    between atoms: N_3  and  C_4
REMARK    4  A    between atoms: N_3  and  C_13
REMARK    5  A    between atoms: C_4  and  C_5
REMARK    6  A    between atoms: C_9  and  C_10
REMARK    7  A    between atoms: C_10  and  C_11
REMARK    8  A    between atoms: C_10  and  C_12
REMARK                            x       y       z     vdW  Elec       q    Type
REMARK                         _______ _______ _______ _____ _____    ______ ____
ROOT
ATOM      1  N   UNL     1       3.596   5.118  17.553  0.00  0.00    +0.000 N 
ENDROOT
BRANCH   1   2
ATOM      2  C   UNL     1       2.885   4.562  18.610  0.00  0.00    +0.000 A 
ATOM      3  C   UNL     1       3.251   4.838  19.942  0.00  0.00    +0.000 A 
ATOM      4  C   UNL     1       2.561   4.288  21.029  0.00  0.00    +0.000 A 
ATOM      5  C   UNL     1       1.477   3.455  20.797  0.00  0.00    +0.000 A 
ATOM      6  F   UNL     1       0.808   2.934  21.833  0.00  0.00    +0.000 F 
ATOM      7  C   UNL     1       1.099   3.160  19.497  0.00  0.00    +0.000 A 
ATOM      8  F   UNL     1       0.050   2.358  19.265  0.00  0.00    +0.000 F 
ATOM      9  C   UNL     1       1.802   3.693  18.418  0.00  0.00    +0.000 A 
ENDBRANCH   1   2
BRANCH   1  11
ATOM     10  C   UNL     1       2.642   7.438  17.817  0.00  0.00    +0.000 C 
ATOM     11  C   UNL     1       3.843   6.564  17.490  0.00  0.00    +0.000 C 
ENDBRANCH   1  11
BRANCH   1  12
ATOM     12  C   UNL     1       4.412   4.227  16.695  0.00  0.00    +0.000 C 
BRANCH  12  13
ATOM     13  C   UNL     1       5.641   4.797  16.033  0.00  0.00    +0.000 A 
ATOM     14  N   UNL     1       5.931   4.497  14.713  0.00  0.00    +0.000 NA
ATOM     15  C   UNL     1       7.049   5.136  14.473  0.00  0.00    +0.000 A 
ATOM     16  O   UNL     1       7.549   5.826  15.526  0.00  0.00    +0.000 OA
ATOM     17  C   UNL     1       6.648   5.611  16.538  0.00  0.00    +0.000 A 
BRANCH  17  18
ATOM     18  C   UNL     1       6.982   6.289  17.825  0.00  0.00    +0.000 C 
ATOM     19  C   UNL     1       7.809   5.386  18.737  0.00  0.00    +0.000 C 
ATOM     20  C   UNL     1       7.659   7.639  17.614  0.00  0.00    +0.000 C 
ENDBRANCH  17  18
ENDBRANCH  12  13
ENDBRANCH   1  12
TORSDOF 5
ENDMDL
MODEL 9
REMARK VINA RESULT:      -7.2      3.888      6.621
REMARK  Name = 
REMARK  8 active torsions:
REMARK  status: ('A' for Active; 'I' for Inactive)
REMARK    1  A    between atoms: C_1  and  C_2
REMARK    2  A    between atoms: C_2  and  N_3
REMARK    3  A    between atoms: N_3  and  C_4
REMARK    4  A    between atoms: N_3  and  C_13
REMARK    5  A    between atoms: C_4  and  C_5
REMARK    6  A    between atoms: C_9  and  C_10
REMARK    7  A    between atoms: C_10  and  C_11
REMARK    8  A    between atoms: C_10  and  C_12
REMARK                            x       y       z     vdW  Elec       q    Type
REMARK                         _______ _______ _______ _____ _____    ______ ____
ROOT
ATOM      1  N   UNL     1       4.166   3.778  17.791  0.00  0.00    +0.000 N 
ENDROOT
BRANCH   1   2
ATOM      2  C   UNL     1       5.083   4.130  16.807  0.00  0.00    +0.000 A 
ATOM      3  C   UNL     1       6.296   4.758  17.151  0.00  0.00    +0.000 A 
ATOM      4  C   UNL     1       7.237   5.131  16.183  0.00  0.00    +0.000 A 
ATOM      5  C   UNL     1       6.981   4.867  14.847  0.00  0.00    +0.000 A 
ATOM      6  F   UNL     1       7.882   5.213  13.919  0.00  0.00    +0.000 F 
ATOM      7  C   UNL     1       5.794   4.256  14.478  0.00  0.00    +0.000 A 
ATOM      8  F   UNL     1       5.541   3.995  13.188  0.00  0.00    +0.000 F 
ATOM      9  C   UNL     1       4.850   3.906  15.442  0.00  0.00    +0.000 A 
ENDBRANCH   1   2
BRANCH   1  11
ATOM     10  C   UNL     1       3.703   1.397  18.480  0.00  0.00    +0.000 C 
ATOM     11  C   UNL     1       3.308   2.597  17.633  0.00  0.00    +0.000 C 
ENDBRANCH   1  11
BRANCH   1  12
ATOM     12  C   UNL     1       4.310   4.367  19.143  0.00  0.00    +0.000 C 
BRANCH  12  13
ATOM     13  C   UNL     1       3.207   5.254  19.661  0.00  0.00    +0.000 A 
ATOM     14  N   UNL     1       3.247   6.622  19.449  0.00  0.00    +0.000 NA
ATOM     15  C   UNL     1       2.163   7.073  20.028  0.00  0.00    +0.000 A 
ATOM     16  O   UNL     1       1.404   6.127  20.631  0.00  0.00    +0.000 OA
ATOM     17  C   UNL     1       2.070   4.951  20.401  0.00  0.00    +0.000 A 
BRANCH  17  18
ATOM     18  C   UNL     1       1.413   3.738  20.972  0.00  0.00    +0.000 C 
ATOM     19  C   UNL     1       0.638   2.965  19.908  0.00  0.00    +0.000 C 
ATOM     20  C   UNL     1       2.397   2.837  21.711  0.00  0.00    +0.000 C 
ENDBRANCH  17  18
ENDBRANCH  12  13
ENDBRANCH   1  12
TORSDOF 5
ENDMDL
