MODEL 1
REMARK VINA RESULT:      -7.2      0.000      0.000
REMARK  Name = 
REMARK  7 active torsions:
REMARK  status: ('A' for Active; 'I' for Inactive)
REMARK    1  A    between atoms: C_1  and  C_2
REMARK    2  A    between atoms: C_7  and  C_8
REMARK    3  A    between atoms: C_9  and  C_10
REMARK    4  A    between atoms: C_10  and  N_11
REMARK    5  A    between atoms: N_11  and  C_12
REMARK    6  A    between atoms: N_11  and  C_13
REMARK    7  A    between atoms: C_13  and  C_14
REMARK                            x       y       z     vdW  Elec       q    Type
REMARK                         _______ _______ _______ _____ _____    ______ ____
ROOT
ATOM      1  N   UNL     1       4.913   4.516  16.446  0.00  0.00    +0.000 NA
ATOM      2  C   UNL     1       5.674   4.305  15.215  0.00  0.00    +0.000 C 
ENDROOT
BRANCH   1   3
ATOM      3  C   UNL     1       5.533   5.564  17.273  0.00  0.00    +0.000 C 
BRANCH   3   5
ATOM      4  C   UNL     1       3.471   6.560  18.349  0.00  0.00    +0.000 C 
ATOM      5  C   UNL     1       4.610   6.688  17.651  0.00  0.00    +0.000 C 
BRANCH   4  12
ATOM      6  C   UNL     1       1.748   6.713  20.944  0.00  0.00    +0.000 C 
ATOM      7  C   UNL     1       1.733   7.737  19.839  0.00  0.00    +0.000 A 
ATOM      8  C   UNL     1       0.871   8.841  20.001  0.00  0.00    +0.000 A 
ATOM      9  C   UNL     1       0.783   9.836  19.032  0.00  0.00    +0.000 A 
ATOM     10  C   UNL     1       1.570   9.757  17.894  0.00  0.00    +0.000 A 
ATOM     11  C   UNL     1       2.446   8.682  17.726  0.00  0.00    +0.000 A 
ATOM     12  C   UNL     1       2.547   7.660  18.687  0.00  0.00    +0.000 A 
ENDBRANCH   4  12
ENDBRANCH   3   5
ENDBRANCH   1   3
BRANCH   1  13
ATOM     13  C   UNL     1       4.666   3.245  17.147  0.00  0.00    +0.000 C 
BRANCH  13  14
ATOM     14  C   UNL     1       3.290   3.228  17.731  0.00  0.00    +0.000 A 
ATOM     15  C   UNL     1       2.110   3.427  17.040  0.00  0.00    +0.000 A 
ATOM     16  O   UNL     1       1.041   3.418  17.875  0.00  0.00    +0.000 OA
ATOM     17  C   UNL     1       1.519   3.198  19.126  0.00  0.00    +0.000 A 
ATOM     18  C   UNL     1       0.747   3.147  20.285  0.00  0.00    +0.000 A 
ATOM     19  C   UNL     1       1.427   2.911  21.483  0.00  0.00    +0.000 A 
ATOM     20  C   UNL     1       2.809   2.716  21.500  0.00  0.00    +0.000 A 
ATOM     21  C   UNL     1       3.560   2.768  20.314  0.00  0.00    +0.000 A 
ATOM     22  C   UNL     1       2.903   3.037  19.096  0.00  0.00    +0.000 A 
ENDBRANCH  13  14
ENDBRANCH   1  13
TORSDOF 5
ENDMDL
MODEL 2
REMARK VINA RESULT:      -7.1      0.769      1.016
REMARK  Name = 
REMARK  7 active torsions:
REMARK  status: ('A' for Active; 'I' for Inactive)
REMARK    1  A    between atoms: C_1  and  C_2
REMARK    2  A    between atoms: C_7  and  C_8
REMARK    3  A    between atoms: C_9  and  C_10
REMARK    4  A    between atoms: C_10  and  N_11
REMARK    5  A    between atoms: N_11  and  C_12
REMARK    6  A    between atoms: N_11  and  C_13
REMARK    7  A    between atoms: C_13  and  C_14
REMARK                            x       y       z     vdW  Elec       q    Type
REMARK                         _______ _______ _______ _____ _____    ______ ____
ROOT
ATOM      1  N   UNL     1       5.553   4.911  17.533  0.00  0.00    +0.000 NA
ATOM      2  C   UNL     1       5.577   5.354  18.927  0.00  0.00    +0.000 C 
ENDROOT
BRANCH   1   3
ATOM      3  C   UNL     1       4.797   5.858  16.695  0.00  0.00    +0.000 C 
BRANCH   3   5
ATOM      4  C   UNL     1       2.864   6.929  17.927  0.00  0.00    +0.000 C 
ATOM      5  C   UNL     1       4.120   6.962  17.458  0.00  0.00    +0.000 C 
BRANCH   4  12
ATOM      6  C   UNL     1       1.707   6.736  20.818  0.00  0.00    +0.000 C 
ATOM      7  C   UNL     1       1.629   7.957  19.939  0.00  0.00    +0.000 A 
ATOM      8  C   UNL     1       0.982   9.090  20.472  0.00  0.00    +0.000 A 
ATOM      9  C   UNL     1       0.854  10.263  19.736  0.00  0.00    +0.000 A 
ATOM     10  C   UNL     1       1.390  10.333  18.459  0.00  0.00    +0.000 A 
ATOM     11  C   UNL     1       2.054   9.229  17.922  0.00  0.00    +0.000 A 
ATOM     12  C   UNL     1       2.189   8.029  18.644  0.00  0.00    +0.000 A 
ENDBRANCH   4  12
ENDBRANCH   3   5
ENDBRANCH   1   3
BRANCH   1  13
ATOM     13  C   UNL     1       5.116   3.509  17.424  0.00  0.00    +0.000 C 
BRANCH  13  14
ATOM     14  C   UNL     1       3.668   3.383  17.776  0.00  0.00    +0.000 A 
ATOM     15  C   UNL     1       2.605   3.503  16.901  0.00  0.00    +0.000 A 
ATOM     16  O   UNL     1       1.418   3.405  17.550  0.00  0.00    +0.000 OA
ATOM     17  C   UNL     1       1.701   3.206  18.862  0.00  0.00    +0.000 A 
ATOM     18  C   UNL     1       0.756   3.084  19.880  0.00  0.00    +0.000 A 
ATOM     19  C   UNL     1       1.248   2.885  21.173  0.00  0.00    +0.000 A 
ATOM     20  C   UNL     1       2.619   2.793  21.415  0.00  0.00    +0.000 A 
ATOM     21  C   UNL     1       3.547   2.914  20.368  0.00  0.00    +0.000 A 
ATOM     22  C   UNL     1       3.079   3.148  19.059  0.00  0.00    +0.000 A 
ENDBRANCH  13  14
ENDBRANCH   1  13
TORSDOF 5
ENDMDL
MODEL 3
REMARK VINA RESULT:      -7.0      4.976      6.192
REMARK  Name = 
REMARK  7 active torsions:
REMARK  status: ('A' for Active; 'I' for Inactive)
REMARK    1  A    between atoms: C_1  and  C_2
REMARK    2  A    between atoms: C_7  and  C_8
REMARK    3  A    between atoms: C_9  and  C_10
REMARK    4  A    between atoms: C_10  and  N_11
REMARK    5  A    between atoms: N_11  and  C_12
REMARK    6  A    between atoms: N_11  and  C_13
REMARK    7  A    between atoms: C_13  and  C_14
REMARK                            x       y       z     vdW  Elec       q    Type
REMARK                         _______ _______ _______ _____ _____    ______ ____
ROOT
ATOM      1  N   UNL     1       7.446   6.499  17.492  0.00  0.00    +0.000 NA
ATOM      2  C   UNL     1       7.372   5.929  18.837  0.00  0.00    +0.000 C 
ENDROOT
BRANCH   1   3
ATOM      3  C   UNL     1       7.257   7.959  17.530  0.00  0.00    +0.000 C 
BRANCH   3   5
ATOM      4  C   UNL     1       8.452  10.026  18.366  0.00  0.00    +0.000 C 
ATOM      5  C   UNL     1       8.449   8.729  18.025  0.00  0.00    +0.000 C 
BRANCH   4  12
ATOM      6  C   UNL     1       8.975  10.943  21.302  0.00  0.00    +0.000 C 
ATOM      7  C   UNL     1       9.876  11.244  20.132  0.00  0.00    +0.000 A 
ATOM      8  C   UNL     1      11.038  11.996  20.396  0.00  0.00    +0.000 A 
ATOM      9  C   UNL     1      11.929  12.330  19.381  0.00  0.00    +0.000 A 
ATOM     10  C   UNL     1      11.687  11.898  18.086  0.00  0.00    +0.000 A 
ATOM     11  C   UNL     1      10.552  11.132  17.809  0.00  0.00    +0.000 A 
ATOM     12  C   UNL     1       9.632  10.789  18.817  0.00  0.00    +0.000 A 
ENDBRANCH   4  12
ENDBRANCH   3   5
ENDBRANCH   1   3
BRANCH   1  13
ATOM     13  C   UNL     1       6.556   5.788  16.559  0.00  0.00    +0.000 C 
BRANCH  13  14
ATOM     14  C   UNL     1       5.138   5.863  17.029  0.00  0.00    +0.000 A 
ATOM     15  C   UNL     1       4.437   7.018  17.319  0.00  0.00    +0.000 A 
ATOM     16  O   UNL     1       3.196   6.738  17.788  0.00  0.00    +0.000 OA
ATOM     17  C   UNL     1       3.072   5.386  17.796  0.00  0.00    +0.000 A 
ATOM     18  C   UNL     1       1.954   4.682  18.239  0.00  0.00    +0.000 A 
ATOM     19  C   UNL     1       2.020   3.288  18.169  0.00  0.00    +0.000 A 
ATOM     20  C   UNL     1       3.149   2.646  17.658  0.00  0.00    +0.000 A 
ATOM     21  C   UNL     1       4.259   3.383  17.214  0.00  0.00    +0.000 A 
ATOM     22  C   UNL     1       4.231   4.789  17.303  0.00  0.00    +0.000 A 
ENDBRANCH  13  14
ENDBRANCH   1  13
TORSDOF 5
ENDMDL
MODEL 4
REMARK VINA RESULT:      -7.0      1.948      5.015
REMARK  Name = 
REMARK  7 active torsions:
REMARK  status: ('A' for Active; 'I' for Inactive)
REMARK    1  A    between atoms: C_1  and  C_2
REMARK    2  A    between atoms: C_7  and  C_8
REMARK    3  A    between atoms: C_9  and  C_10
REMARK    4  A    between atoms: C_10  and  N_11
REMARK    5  A    between atoms: N_11  and  C_12
REMARK    6  A    between atoms: N_11  and  C_13
REMARK    7  A    between atoms: C_13  and  C_14
REMARK                            x       y       z     vdW  Elec       q    Type
REMARK                         _______ _______ _______ _____ _____    ______ ____
ROOT
ATOM      1  N   UNL     1       1.900   7.162  20.357  0.00  0.00    +0.000 NA
ATOM      2  C   UNL     1       1.409   8.202  21.261  0.00  0.00    +0.000 C 
ENDROOT
BRANCH   1   3
ATOM      3  C   UNL     1       2.218   7.726  19.034  0.00  0.00    +0.000 C 
BRANCH   3   5
ATOM      4  C   UNL     1       4.437   6.710  18.369  0.00  0.00    +0.000 C 
ATOM      5  C   UNL     1       3.117   6.867  18.190  0.00  0.00    +0.000 C 
BRANCH   4  12
ATOM      6  C   UNL     1       7.207   5.571  19.244  0.00  0.00    +0.000 C 
ATOM      7  C   UNL     1       6.597   5.396  17.878  0.00  0.00    +0.000 A 
ATOM      8  C   UNL     1       7.341   4.662  16.933  0.00  0.00    +0.000 A 
ATOM      9  C   UNL     1       6.865   4.451  15.643  0.00  0.00    +0.000 A 
ATOM     10  C   UNL     1       5.624   4.952  15.280  0.00  0.00    +0.000 A 
ATOM     11  C   UNL     1       4.862   5.662  16.209  0.00  0.00    +0.000 A 
ATOM     12  C   UNL     1       5.325   5.896  17.517  0.00  0.00    +0.000 A 
ENDBRANCH   4  12
ENDBRANCH   3   5
ENDBRANCH   1   3
BRANCH   1  13
ATOM     13  C   UNL     1       0.991   6.004  20.329  0.00  0.00    +0.000 C 
BRANCH  13  14
ATOM     14  C   UNL     1       1.768   4.727  20.390  0.00  0.00    +0.000 A 
ATOM     15  C   UNL     1       2.275   4.137  21.532  0.00  0.00    +0.000 A 
ATOM     16  O   UNL     1       2.990   3.023  21.235  0.00  0.00    +0.000 OA
ATOM     17  C   UNL     1       2.945   2.871  19.887  0.00  0.00    +0.000 A 
ATOM     18  C   UNL     1       3.582   1.861  19.169  0.00  0.00    +0.000 A 
ATOM     19  C   UNL     1       3.416   1.876  17.781  0.00  0.00    +0.000 A 
ATOM     20  C   UNL     1       2.629   2.848  17.161  0.00  0.00    +0.000 A 
ATOM     21  C   UNL     1       1.994   3.850  17.913  0.00  0.00    +0.000 A 
ATOM     22  C   UNL     1       2.172   3.877  19.311  0.00  0.00    +0.000 A 
ENDBRANCH  13  14
ENDBRANCH   1  13
TORSDOF 5
ENDMDL
MODEL 5
REMARK VINA RESULT:      -6.8      2.470      5.956
REMARK  Name = 
REMARK  7 active torsions:
REMARK  status: ('A' for Active; 'I' for Inactive)
REMARK    1  A    between atoms: C_1  and  C_2
REMARK    2  A    between atoms: C_7  and  C_8
REMARK    3  A    between atoms: C_9  and  C_10
REMARK    4  A    between atoms: C_10  and  N_11
REMARK    5  A    between atoms: N_11  and  C_12
REMARK    6  A    between atoms: N_11  and  C_13
REMARK    7  A    between atoms: C_13  and  C_14
REMARK                            x       y       z     vdW  Elec       q    Type
REMARK                         _______ _______ _______ _____ _____    ______ ____
ROOT
ATOM      1  N   UNL     1       6.944   6.790  16.893  0.00  0.00    +0.000 NA
ATOM      2  C   UNL     1       7.712   7.560  17.872  0.00  0.00    +0.000 C 
ENDROOT
BRANCH   1   3
ATOM      3  C   UNL     1       5.519   7.159  16.939  0.00  0.00    +0.000 C 
BRANCH   3   5
ATOM      4  C   UNL     1       3.514   5.803  17.672  0.00  0.00    +0.000 C 
ATOM      5  C   UNL     1       4.703   6.370  17.924  0.00  0.00    +0.000 C 
BRANCH   4  12
ATOM      6  C   UNL     1       2.547   2.857  17.328  0.00  0.00    +0.000 C 
ATOM      7  C   UNL     1       2.219   3.738  18.505  0.00  0.00    +0.000 A 
ATOM      8  C   UNL     1       1.415   3.180  19.519  0.00  0.00    +0.000 A 
ATOM      9  C   UNL     1       1.053   3.917  20.642  0.00  0.00    +0.000 A 
ATOM     10  C   UNL     1       1.507   5.219  20.784  0.00  0.00    +0.000 A 
ATOM     11  C   UNL     1       2.324   5.782  19.800  0.00  0.00    +0.000 A 
ATOM     12  C   UNL     1       2.696   5.060  18.652  0.00  0.00    +0.000 A 
ENDBRANCH   4  12
ENDBRANCH   3   5
ENDBRANCH   1   3
BRANCH   1  13
ATOM     13  C   UNL     1       7.211   5.348  17.018  0.00  0.00    +0.000 C 
BRANCH  13  14
ATOM     14  C   UNL     1       6.665   4.611  15.837  0.00  0.00    +0.000 A 
ATOM     15  C   UNL     1       5.735   3.590  15.875  0.00  0.00    +0.000 A 
ATOM     16  O   UNL     1       5.504   3.086  14.637  0.00  0.00    +0.000 OA
ATOM     17  C   UNL     1       6.279   3.789  13.773  0.00  0.00    +0.000 A 
ATOM     18  C   UNL     1       6.363   3.566  12.400  0.00  0.00    +0.000 A 
ATOM     19  C   UNL     1       7.223   4.398  11.679  0.00  0.00    +0.000 A 
ATOM     20  C   UNL     1       7.940   5.414  12.312  0.00  0.00    +0.000 A 
ATOM     21  C   UNL     1       7.832   5.619  13.697  0.00  0.00    +0.000 A 
ATOM     22  C   UNL     1       6.996   4.772  14.454  0.00  0.00    +0.000 A 
ENDBRANCH  13  14
ENDBRANCH   1  13
TORSDOF 5
ENDMDL
MODEL 6
REMARK VINA RESULT:      -6.8      1.430      1.863
REMARK  Name = 
REMARK  7 active torsions:
REMARK  status: ('A' for Active; 'I' for Inactive)
REMARK    1  A    between atoms: C_1  and  C_2
REMARK    2  A    between atoms: C_7  and  C_8
REMARK    3  A    between atoms: C_9  and  C_10
REMARK    4  A    between atoms: C_10  and  N_11
REMARK    5  A    between atoms: N_11  and  C_12
REMARK    6  A    between atoms: N_11  and  C_13
REMARK    7  A    between atoms: C_13  and  C_14
REMARK                            x       y       z     vdW  Elec       q    Type
REMARK                         _______ _______ _______ _____ _____    ______ ____
ROOT
ATOM      1  N   UNL     1       5.476   5.945  17.376  0.00  0.00    +0.000 NA
ATOM      2  C   UNL     1       6.382   7.083  17.532  0.00  0.00    +0.000 C 
ENDROOT
BRANCH   1   3
ATOM      3  C   UNL     1       4.147   6.392  16.927  0.00  0.00    +0.000 C 
BRANCH   3   5
ATOM      4  C   UNL     1       2.335   7.710  18.103  0.00  0.00    +0.000 C 
ATOM      5  C   UNL     1       3.600   7.575  17.677  0.00  0.00    +0.000 C 
BRANCH   4  12
ATOM      6  C   UNL     1       1.261   7.705  21.032  0.00  0.00    +0.000 C 
ATOM      7  C   UNL     1       1.270   8.904  20.120  0.00  0.00    +0.000 A 
ATOM      8  C   UNL     1       0.751  10.107  20.640  0.00  0.00    +0.000 A 
ATOM      9  C   UNL     1       0.710  11.268  19.873  0.00  0.00    +0.000 A 
ATOM     10  C   UNL     1       1.208  11.252  18.579  0.00  0.00    +0.000 A 
ATOM     11  C   UNL     1       1.747  10.076  18.054  0.00  0.00    +0.000 A 
ATOM     12  C   UNL     1       1.791   8.888  18.807  0.00  0.00    +0.000 A 
ENDBRANCH   4  12
ENDBRANCH   3   5
ENDBRANCH   1   3
BRANCH   1  13
ATOM     13  C   UNL     1       5.466   5.100  18.581  0.00  0.00    +0.000 C 
BRANCH  13  14
ATOM     14  C   UNL     1       4.428   4.030  18.462  0.00  0.00    +0.000 A 
ATOM     15  C   UNL     1       4.437   2.986  17.557  0.00  0.00    +0.000 A 
ATOM     16  O   UNL     1       3.315   2.231  17.664  0.00  0.00    +0.000 OA
ATOM     17  C   UNL     1       2.566   2.774  18.656  0.00  0.00    +0.000 A 
ATOM     18  C   UNL     1       1.316   2.314  19.065  0.00  0.00    +0.000 A 
ATOM     19  C   UNL     1       0.699   3.012  20.107  0.00  0.00    +0.000 A 
ATOM     20  C   UNL     1       1.327   4.100  20.715  0.00  0.00    +0.000 A 
ATOM     21  C   UNL     1       2.591   4.537  20.285  0.00  0.00    +0.000 A 
ATOM     22  C   UNL     1       3.220   3.871  19.214  0.00  0.00    +0.000 A 
ENDBRANCH  13  14
ENDBRANCH   1  13
TORSDOF 5
ENDMDL
MODEL 7
REMARK VINA RESULT:      -6.8      1.207      2.166
REMARK  Name = 
REMARK  7 active torsions:
REMARK  status: ('A' for Active; 'I' for Inactive)
REMARK    1  A    between atoms: C_1  and  C_2
REMARK    2  A    between atoms: C_7  and  C_8
REMARK    3  A    between atoms: C_9  and  C_10
REMARK    4  A    between atoms: C_10  and  N_11
REMARK    5  A    between atoms: N_11  and  C_12
REMARK    6  A    between atoms: N_11  and  C_13
REMARK    7  A    between atoms: C_13  and  C_14
REMARK                            x       y       z     vdW  Elec       q    Type
REMARK                         _______ _______ _______ _____ _____    ______ ____
ROOT
ATOM      1  N   UNL     1       5.229   5.715  16.834  0.00  0.00    +0.000 NA
ATOM      2  C   UNL     1       6.585   5.892  16.314  0.00  0.00    +0.000 C 
ENDROOT
BRANCH   1   3
ATOM      3  C   UNL     1       4.455   6.962  16.714  0.00  0.00    +0.000 C 
BRANCH   3   5
ATOM      4  C   UNL     1       2.742   8.305  18.003  0.00  0.00    +0.000 C 
ATOM      5  C   UNL     1       3.459   7.186  17.816  0.00  0.00    +0.000 C 
BRANCH   4  12
ATOM      6  C   UNL     1       0.665  10.630  18.118  0.00  0.00    +0.000 C 
ATOM      7  C   UNL     1       0.864   9.599  19.198  0.00  0.00    +0.000 A 
ATOM      8  C   UNL     1       0.047   9.704  20.342  0.00  0.00    +0.000 A 
ATOM      9  C   UNL     1       0.160   8.804  21.397  0.00  0.00    +0.000 A 
ATOM     10  C   UNL     1       1.078   7.768  21.318  0.00  0.00    +0.000 A 
ATOM     11  C   UNL     1       1.881   7.634  20.183  0.00  0.00    +0.000 A 
ATOM     12  C   UNL     1       1.791   8.537  19.108  0.00  0.00    +0.000 A 
ENDBRANCH   4  12
ENDBRANCH   3   5
ENDBRANCH   1   3
BRANCH   1  13
ATOM     13  C   UNL     1       5.247   5.130  18.185  0.00  0.00    +0.000 C 
BRANCH  13  14
ATOM     14  C   UNL     1       4.239   4.031  18.293  0.00  0.00    +0.000 A 
ATOM     15  C   UNL     1       4.017   3.036  17.359  0.00  0.00    +0.000 A 
ATOM     16  O   UNL     1       2.985   2.236  17.726  0.00  0.00    +0.000 OA
ATOM     17  C   UNL     1       2.530   2.700  18.918  0.00  0.00    +0.000 A 
ATOM     18  C   UNL     1       1.451   2.175  19.628  0.00  0.00    +0.000 A 
ATOM     19  C   UNL     1       1.134   2.795  20.839  0.00  0.00    +0.000 A 
ATOM     20  C   UNL     1       1.884   3.872  21.314  0.00  0.00    +0.000 A 
ATOM     21  C   UNL     1       2.970   4.376  20.579  0.00  0.00    +0.000 A 
ATOM     22  C   UNL     1       3.290   3.790  19.338  0.00  0.00    +0.000 A 
ENDBRANCH  13  14
ENDBRANCH   1  13
TORSDOF 5
ENDMDL
MODEL 8
REMARK VINA RESULT:      -6.7      1.945      4.252
REMARK  Name = 
REMARK  7 active torsions:
REMARK  status: ('A' for Active; 'I' for Inactive)
REMARK    1  A    between atoms: C_1  and  C_2
REMARK    2  A    between atoms: C_7  and  C_8
REMARK    3  A    between atoms: C_9  and  C_10
REMARK    4  A    between atoms: C_10  and  N_11
REMARK    5  A    between atoms: N_11  and  C_12
REMARK    6  A    between atoms: N_11  and  C_13
REMARK    7  A    between atoms: C_13  and  C_14
REMARK                            x       y       z     vdW  Elec       q    Type
REMARK                         _______ _______ _______ _____ _____    ______ ____
ROOT
ATOM      1  N   UNL     1       2.027   3.113  19.323  0.00  0.00    +0.000 NA
ATOM      2  C   UNL     1       0.798   2.374  19.031  0.00  0.00    +0.000 C 
ENDROOT
BRANCH   1   3
ATOM      3  C   UNL     1       1.782   4.158  20.331  0.00  0.00    +0.000 C 
BRANCH   3   5
ATOM      4  C   UNL     1       1.868   6.685  20.415  0.00  0.00    +0.000 C 
ATOM      5  C   UNL     1       1.607   5.540  19.767  0.00  0.00    +0.000 C 
BRANCH   4  12
ATOM      6  C   UNL     1       0.434   9.014  21.916  0.00  0.00    +0.000 C 
ATOM      7  C   UNL     1       0.987   9.103  20.517  0.00  0.00    +0.000 A 
ATOM      8  C   UNL     1       0.838  10.333  19.847  0.00  0.00    +0.000 A 
ATOM      9  C   UNL     1       1.311  10.512  18.550  0.00  0.00    +0.000 A 
ATOM     10  C   UNL     1       1.960   9.469  17.907  0.00  0.00    +0.000 A 
ATOM     11  C   UNL     1       2.136   8.249  18.564  0.00  0.00    +0.000 A 
ATOM     12  C   UNL     1       1.661   8.042  19.871  0.00  0.00    +0.000 A 
ENDBRANCH   4  12
ENDBRANCH   3   5
ENDBRANCH   1   3
BRANCH   1  13
ATOM     13  C   UNL     1       2.672   3.588  18.089  0.00  0.00    +0.000 C 
BRANCH  13  14
ATOM     14  C   UNL     1       4.080   4.012  18.363  0.00  0.00    +0.000 A 
ATOM     15  C   UNL     1       4.949   3.415  19.256  0.00  0.00    +0.000 A 
ATOM     16  O   UNL     1       6.127   4.085  19.320  0.00  0.00    +0.000 OA
ATOM     17  C   UNL     1       6.038   5.125  18.453  0.00  0.00    +0.000 A 
ATOM     18  C   UNL     1       7.029   6.081  18.238  0.00  0.00    +0.000 A 
ATOM     19  C   UNL     1       6.746   7.080  17.302  0.00  0.00    +0.000 A 
ATOM     20  C   UNL     1       5.536   7.093  16.607  0.00  0.00    +0.000 A 
ATOM     21  C   UNL     1       4.558   6.112  16.841  0.00  0.00    +0.000 A 
ATOM     22  C   UNL     1       4.805   5.112  17.804  0.00  0.00    +0.000 A 
ENDBRANCH  13  14
ENDBRANCH   1  13
TORSDOF 5
ENDMDL
MODEL 9
REMARK VINA RESULT:      -6.7      3.611      7.813
REMARK  Name = 
REMARK  7 active torsions:
REMARK  status: ('A' for Active; 'I' for Inactive)
REMARK    1  A    between atoms: C_1  and  C_2
REMARK    2  A    between atoms: C_7  and  C_8
REMARK    3  A    between atoms: C_9  and  C_10
REMARK    4  A    between atoms: C_10  and  N_11
REMARK    5  A    between atoms: N_11  and  C_12
REMARK    6  A    between atoms: N_11  and  C_13
REMARK    7  A    between atoms: C_13  and  C_14
REMARK                            x       y       z     vdW  Elec       q    Type
REMARK                         _______ _______ _______ _____ _____    ______ ____
ROOT
ATOM      1  N   UNL     1       0.314   9.104  21.176  0.00  0.00    +0.000 NA
ATOM      2  C   UNL     1      -0.405   9.275  22.438  0.00  0.00    +0.000 C 
ENDROOT
BRANCH   1   3
ATOM      3  C   UNL     1       1.477   8.218  21.352  0.00  0.00    +0.000 C 
BRANCH   3   5
ATOM      4  C   UNL     1       1.746   5.767  20.785  0.00  0.00    +0.000 C 
ATOM      5  C   UNL     1       1.507   7.037  20.423  0.00  0.00    +0.000 C 
BRANCH   4  12
ATOM      6  C   UNL     1       1.522   2.778  21.648  0.00  0.00    +0.000 C 
ATOM      7  C   UNL     1       1.745   3.251  20.236  0.00  0.00    +0.000 A 
ATOM      8  C   UNL     1       1.860   2.262  19.239  0.00  0.00    +0.000 A 
ATOM      9  C   UNL     1       2.072   2.600  17.906  0.00  0.00    +0.000 A 
ATOM     10  C   UNL     1       2.152   3.935  17.541  0.00  0.00    +0.000 A 
ATOM     11  C   UNL     1       2.018   4.931  18.511  0.00  0.00    +0.000 A 
ATOM     12  C   UNL     1       1.811   4.614  19.867  0.00  0.00    +0.000 A 
ENDBRANCH   4  12
ENDBRANCH   3   5
ENDBRANCH   1   3
BRANCH   1  13
ATOM     13  C   UNL     1       0.619  10.403  20.554  0.00  0.00    +0.000 C 
BRANCH  13  14
ATOM     14  C   UNL     1      -0.632  11.050  20.052  0.00  0.00    +0.000 A 
ATOM     15  C   UNL     1      -1.344  12.047  20.690  0.00  0.00    +0.000 A 
ATOM     16  O   UNL     1      -2.470  12.366  20.004  0.00  0.00    +0.000 OA
ATOM     17  C   UNL     1      -2.494  11.581  18.897  0.00  0.00    +0.000 A 
ATOM     18  C   UNL     1      -3.504  11.572  17.937  0.00  0.00    +0.000 A 
ATOM     19  C   UNL     1      -3.347  10.687  16.867  0.00  0.00    +0.000 A 
ATOM     20  C   UNL     1      -2.218   9.874  16.766  0.00  0.00    +0.000 A 
ATOM     21  C   UNL     1      -1.213   9.908  17.746  0.00  0.00    +0.000 A 
ATOM     22  C   UNL     1      -1.362  10.769  18.853  0.00  0.00    +0.000 A 
ENDBRANCH  13  14
ENDBRANCH   1  13
TORSDOF 5
ENDMDL
