MODEL 1
REMARK VINA RESULT:      -6.0      0.000      0.000
REMARK  Name = 
REMARK  6 active torsions:
REMARK  status: ('A' for Active; 'I' for Inactive)
REMARK    1  A    between atoms: C_1  and  C_2
REMARK    2  A    between atoms: C_2  and  C_3
REMARK    3  A    between atoms: C_3  and  C_5
REMARK    4  A    between atoms: C_6  and  O_7
REMARK    5  A    between atoms: C_9  and  C_10
REMARK    6  A    between atoms: C_10  and  C_11
REMARK                            x       y       z     vdW  Elec       q    Type
REMARK                         _______ _______ _______ _____ _____    ______ ____
ROOT
ATOM      1  C   UNL     1       3.324   3.972  20.026  0.00  0.00    +0.000 A 
ATOM      2  C   UNL     1       4.451   3.455  19.494  0.00  0.00    +0.000 A 
ATOM      3  C   UNL     1       5.324   4.238  18.666  0.00  0.00    +0.000 A 
ATOM      4  C   UNL     1       4.993   5.496  18.362  0.00  0.00    +0.000 A 
ATOM      5  O   UNL     1       3.823   6.080  18.894  0.00  0.00    +0.000 OA
ATOM      6  C   UNL     1       3.011   5.397  19.758  0.00  0.00    +0.000 A 
ATOM      7  O   UNL     1       2.050   5.964  20.269  0.00  0.00    +0.000 OA
ENDROOT
BRANCH   1   8
ATOM      8  C   UNL     1       2.437   3.086  20.850  0.00  0.00    +0.000 C 
ATOM      9  O   UNL     1       2.881   2.589  21.892  0.00  0.00    +0.000 OA
BRANCH   8  11
ATOM     10  C   UNL     1       0.924   2.462  18.909  0.00  0.00    +0.000 C 
ATOM     11  C   UNL     1       1.016   2.809  20.386  0.00  0.00    +0.000 C 
ENDBRANCH   8  11
ENDBRANCH   1   8
BRANCH   2  12
ATOM     12  O   UNL     1       4.883   2.154  19.635  0.00  0.00    +0.000 OA
ATOM     13  H   UNL     1       4.145   1.551  19.390  0.00  0.00    +0.000 HD
ENDBRANCH   2  12
BRANCH   4  14
ATOM     14  C   UNL     1       5.764   6.380  17.426  0.00  0.00    +0.000 C 
ATOM     15  C   UNL     1       5.151   6.448  16.034  0.00  0.00    +0.000 C 
ENDBRANCH   4  14
TORSDOF 4
ENDMDL
MODEL 2
REMARK VINA RESULT:      -6.0      1.597      2.826
REMARK  Name = 
REMARK  6 active torsions:
REMARK  status: ('A' for Active; 'I' for Inactive)
REMARK    1  A    between atoms: C_1  and  C_2
REMARK    2  A    between atoms: C_2  and  C_3
REMARK    3  A    between atoms: C_3  and  C_5
REMARK    4  A    between atoms: C_6  and  O_7
REMARK    5  A    between atoms: C_9  and  C_10
REMARK    6  A    between atoms: C_10  and  C_11
REMARK                            x       y       z     vdW  Elec       q    Type
REMARK                         _______ _______ _______ _____ _____    ______ ____
ROOT
ATOM      1  C   UNL     1       3.388   4.350  18.982  0.00  0.00    +0.000 A 
ATOM      2  C   UNL     1       3.595   5.531  18.362  0.00  0.00    +0.000 A 
ATOM      3  C   UNL     1       4.917   6.010  18.075  0.00  0.00    +0.000 A 
ATOM      4  C   UNL     1       5.978   5.305  18.477  0.00  0.00    +0.000 A 
ATOM      5  O   UNL     1       5.810   4.065  19.130  0.00  0.00    +0.000 OA
ATOM      6  C   UNL     1       4.569   3.530  19.343  0.00  0.00    +0.000 A 
ATOM      7  O   UNL     1       4.464   2.410  19.835  0.00  0.00    +0.000 OA
ENDROOT
BRANCH   1   8
ATOM      8  C   UNL     1       1.980   3.928  19.286  0.00  0.00    +0.000 C 
ATOM      9  O   UNL     1       1.276   3.475  18.376  0.00  0.00    +0.000 OA
BRANCH   8  11
ATOM     10  C   UNL     1       1.422   2.762  21.471  0.00  0.00    +0.000 C 
ATOM     11  C   UNL     1       1.445   4.072  20.701  0.00  0.00    +0.000 C 
ENDBRANCH   8  11
ENDBRANCH   1   8
BRANCH   2  12
ATOM     12  O   UNL     1       2.615   6.416  17.969  0.00  0.00    +0.000 OA
ATOM     13  H   UNL     1       1.741   6.061  18.251  0.00  0.00    +0.000 HD
ENDBRANCH   2  12
BRANCH   4  14
ATOM     14  C   UNL     1       7.404   5.748  18.330  0.00  0.00    +0.000 C 
ATOM     15  C   UNL     1       7.535   7.127  17.697  0.00  0.00    +0.000 C 
ENDBRANCH   4  14
TORSDOF 4
ENDMDL
MODEL 3
REMARK VINA RESULT:      -6.0      2.389      5.262
REMARK  Name = 
REMARK  6 active torsions:
REMARK  status: ('A' for Active; 'I' for Inactive)
REMARK    1  A    between atoms: C_1  and  C_2
REMARK    2  A    between atoms: C_2  and  C_3
REMARK    3  A    between atoms: C_3  and  C_5
REMARK    4  A    between atoms: C_6  and  O_7
REMARK    5  A    between atoms: C_9  and  C_10
REMARK    6  A    between atoms: C_10  and  C_11
REMARK                            x       y       z     vdW  Elec       q    Type
REMARK                         _______ _______ _______ _____ _____    ______ ____
ROOT
ATOM      1  C   UNL     1       5.271   5.499  17.014  0.00  0.00    +0.000 A 
ATOM      2  C   UNL     1       5.014   4.189  16.814  0.00  0.00    +0.000 A 
ATOM      3  C   UNL     1       3.722   3.624  17.079  0.00  0.00    +0.000 A 
ATOM      4  C   UNL     1       2.757   4.393  17.589  0.00  0.00    +0.000 A 
ATOM      5  O   UNL     1       2.978   5.768  17.816  0.00  0.00    +0.000 OA
ATOM      6  C   UNL     1       4.167   6.365  17.494  0.00  0.00    +0.000 A 
ATOM      7  O   UNL     1       4.295   7.578  17.624  0.00  0.00    +0.000 OA
ENDROOT
BRANCH   1   8
ATOM      8  C   UNL     1       6.655   6.015  16.753  0.00  0.00    +0.000 C 
ATOM      9  O   UNL     1       7.134   5.912  15.618  0.00  0.00    +0.000 OA
BRANCH   8  11
ATOM     10  C   UNL     1       7.814   8.099  17.627  0.00  0.00    +0.000 C 
ATOM     11  C   UNL     1       7.444   6.647  17.888  0.00  0.00    +0.000 C 
ENDBRANCH   8  11
ENDBRANCH   1   8
BRANCH   2  12
ATOM     12  O   UNL     1       5.925   3.248  16.383  0.00  0.00    +0.000 OA
ATOM     13  H   UNL     1       6.722   3.716  16.044  0.00  0.00    +0.000 HD
ENDBRANCH   2  12
BRANCH   4  14
ATOM     14  C   UNL     1       1.402   3.900  18.006  0.00  0.00    +0.000 C 
ATOM     15  C   UNL     1       1.335   3.524  19.480  0.00  0.00    +0.000 C 
ENDBRANCH   4  14
TORSDOF 4
ENDMDL
MODEL 4
REMARK VINA RESULT:      -6.0      1.512      1.856
REMARK  Name = 
REMARK  6 active torsions:
REMARK  status: ('A' for Active; 'I' for Inactive)
REMARK    1  A    between atoms: C_1  and  C_2
REMARK    2  A    between atoms: C_2  and  C_3
REMARK    3  A    between atoms: C_3  and  C_5
REMARK    4  A    between atoms: C_6  and  O_7
REMARK    5  A    between atoms: C_9  and  C_10
REMARK    6  A    between atoms: C_10  and  C_11
REMARK                            x       y       z     vdW  Elec       q    Type
REMARK                         _______ _______ _______ _____ _____    ______ ____
ROOT
ATOM      1  C   UNL     1       3.365   3.782  18.754  0.00  0.00    +0.000 A 
ATOM      2  C   UNL     1       4.674   3.685  19.065  0.00  0.00    +0.000 A 
ATOM      3  C   UNL     1       5.627   4.670  18.637  0.00  0.00    +0.000 A 
ATOM      4  C   UNL     1       5.227   5.683  17.864  0.00  0.00    +0.000 A 
ATOM      5  O   UNL     1       3.867   5.826  17.512  0.00  0.00    +0.000 OA
ATOM      6  C   UNL     1       2.914   4.959  17.973  0.00  0.00    +0.000 A 
ATOM      7  O   UNL     1       1.731   5.163  17.719  0.00  0.00    +0.000 OA
ENDROOT
BRANCH   1   8
ATOM      8  C   UNL     1       2.431   2.696  19.202  0.00  0.00    +0.000 C 
ATOM      9  O   UNL     1       2.539   1.567  18.710  0.00  0.00    +0.000 OA
BRANCH   8  11
ATOM     10  C   UNL     1       1.888   2.951  21.669  0.00  0.00    +0.000 C 
ATOM     11  C   UNL     1       1.367   3.006  20.242  0.00  0.00    +0.000 C 
ENDBRANCH   8  11
ENDBRANCH   1   8
BRANCH   2  12
ATOM     12  O   UNL     1       5.259   2.657  19.772  0.00  0.00    +0.000 OA
ATOM     13  H   UNL     1       4.716   2.479  20.573  0.00  0.00    +0.000 HD
ENDBRANCH   2  12
BRANCH   4  14
ATOM     14  C   UNL     1       6.139   6.715  17.267  0.00  0.00    +0.000 C 
ATOM     15  C   UNL     1       7.505   6.757  17.939  0.00  0.00    +0.000 C 
ENDBRANCH   4  14
TORSDOF 4
ENDMDL
MODEL 5
REMARK VINA RESULT:      -6.0      1.183      2.452
REMARK  Name = 
REMARK  6 active torsions:
REMARK  status: ('A' for Active; 'I' for Inactive)
REMARK    1  A    between atoms: C_1  and  C_2
REMARK    2  A    between atoms: C_2  and  C_3
REMARK    3  A    between atoms: C_3  and  C_5
REMARK    4  A    between atoms: C_6  and  O_7
REMARK    5  A    between atoms: C_9  and  C_10
REMARK    6  A    between atoms: C_10  and  C_11
REMARK                            x       y       z     vdW  Elec       q    Type
REMARK                         _______ _______ _______ _____ _____    ______ ____
ROOT
ATOM      1  C   UNL     1       3.351   3.972  20.125  0.00  0.00    +0.000 A 
ATOM      2  C   UNL     1       3.502   5.277  19.818  0.00  0.00    +0.000 A 
ATOM      3  C   UNL     1       4.673   5.765  19.147  0.00  0.00    +0.000 A 
ATOM      4  C   UNL     1       5.671   4.923  18.863  0.00  0.00    +0.000 A 
ATOM      5  O   UNL     1       5.559   3.549  19.165  0.00  0.00    +0.000 OA
ATOM      6  C   UNL     1       4.423   3.029  19.724  0.00  0.00    +0.000 A 
ATOM      7  O   UNL     1       4.326   1.817  19.892  0.00  0.00    +0.000 OA
ENDROOT
BRANCH   1   8
ATOM      8  C   UNL     1       2.119   3.537  20.862  0.00  0.00    +0.000 C 
ATOM      9  O   UNL     1       2.195   3.286  22.070  0.00  0.00    +0.000 OA
BRANCH   8  11
ATOM     10  C   UNL     1       0.900   2.509  18.886  0.00  0.00    +0.000 C 
ATOM     11  C   UNL     1       0.804   3.405  20.109  0.00  0.00    +0.000 C 
ENDBRANCH   8  11
ENDBRANCH   1   8
BRANCH   2  12
ATOM     12  O   UNL     1       2.611   6.283  20.126  0.00  0.00    +0.000 OA
ATOM     13  H   UNL     1       3.047   7.149  19.956  0.00  0.00    +0.000 HD
ENDBRANCH   2  12
BRANCH   4  14
ATOM     14  C   UNL     1       6.985   5.327  18.261  0.00  0.00    +0.000 C 
ATOM     15  C   UNL     1       7.273   4.625  16.941  0.00  0.00    +0.000 C 
ENDBRANCH   4  14
TORSDOF 4
ENDMDL
MODEL 6
REMARK VINA RESULT:      -5.9      2.399      5.250
REMARK  Name = 
REMARK  6 active torsions:
REMARK  status: ('A' for Active; 'I' for Inactive)
REMARK    1  A    between atoms: C_1  and  C_2
REMARK    2  A    between atoms: C_2  and  C_3
REMARK    3  A    between atoms: C_3  and  C_5
REMARK    4  A    between atoms: C_6  and  O_7
REMARK    5  A    between atoms: C_9  and  C_10
REMARK    6  A    between atoms: C_10  and  C_11
REMARK                            x       y       z     vdW  Elec       q    Type
REMARK                         _______ _______ _______ _____ _____    ______ ____
ROOT
ATOM      1  C   UNL     1       5.752   4.600  17.597  0.00  0.00    +0.000 A 
ATOM      2  C   UNL     1       4.884   4.159  16.662  0.00  0.00    +0.000 A 
ATOM      3  C   UNL     1       3.632   3.555  17.018  0.00  0.00    +0.000 A 
ATOM      4  C   UNL     1       3.332   3.369  18.307  0.00  0.00    +0.000 A 
ATOM      5  O   UNL     1       4.208   3.812  19.320  0.00  0.00    +0.000 OA
ATOM      6  C   UNL     1       5.370   4.472  19.024  0.00  0.00    +0.000 A 
ATOM      7  O   UNL     1       6.064   4.920  19.931  0.00  0.00    +0.000 OA
ENDROOT
BRANCH   1   8
ATOM      8  C   UNL     1       7.060   5.186  17.154  0.00  0.00    +0.000 C 
ATOM      9  O   UNL     1       7.987   4.428  16.847  0.00  0.00    +0.000 OA
BRANCH   8  11
ATOM     10  C   UNL     1       8.019   7.256  18.267  0.00  0.00    +0.000 C 
ATOM     11  C   UNL     1       7.223   6.696  17.099  0.00  0.00    +0.000 C 
ENDBRANCH   8  11
ENDBRANCH   1   8
BRANCH   2  12
ATOM     12  O   UNL     1       5.086   4.193  15.298  0.00  0.00    +0.000 OA
ATOM     13  H   UNL     1       4.719   3.367  14.907  0.00  0.00    +0.000 HD
ENDBRANCH   2  12
BRANCH   4  14
ATOM     14  C   UNL     1       2.107   2.658  18.804  0.00  0.00    +0.000 C 
ATOM     15  C   UNL     1       1.241   3.528  19.704  0.00  0.00    +0.000 C 
ENDBRANCH   4  14
TORSDOF 4
ENDMDL
MODEL 7
REMARK VINA RESULT:      -5.9      2.425      5.253
REMARK  Name = 
REMARK  6 active torsions:
REMARK  status: ('A' for Active; 'I' for Inactive)
REMARK    1  A    between atoms: C_1  and  C_2
REMARK    2  A    between atoms: C_2  and  C_3
REMARK    3  A    between atoms: C_3  and  C_5
REMARK    4  A    between atoms: C_6  and  O_7
REMARK    5  A    between atoms: C_9  and  C_10
REMARK    6  A    between atoms: C_10  and  C_11
REMARK                            x       y       z     vdW  Elec       q    Type
REMARK                         _______ _______ _______ _____ _____    ______ ____
ROOT
ATOM      1  C   UNL     1       5.760   4.512  17.522  0.00  0.00    +0.000 A 
ATOM      2  C   UNL     1       5.367   4.357  18.804  0.00  0.00    +0.000 A 
ATOM      3  C   UNL     1       4.054   3.885  19.139  0.00  0.00    +0.000 A 
ATOM      4  C   UNL     1       3.170   3.645  18.166  0.00  0.00    +0.000 A 
ATOM      5  O   UNL     1       3.535   3.795  16.811  0.00  0.00    +0.000 OA
ATOM      6  C   UNL     1       4.803   4.155  16.447  0.00  0.00    +0.000 A 
ATOM      7  O   UNL     1       5.110   4.191  15.259  0.00  0.00    +0.000 OA
ENDROOT
BRANCH   1   8
ATOM      8  C   UNL     1       7.135   5.046  17.244  0.00  0.00    +0.000 C 
ATOM      9  O   UNL     1       8.095   4.267  17.238  0.00  0.00    +0.000 OA
BRANCH   8  11
ATOM     10  C   UNL     1       7.917   7.277  18.168  0.00  0.00    +0.000 C 
ATOM     11  C   UNL     1       7.322   6.532  16.985  0.00  0.00    +0.000 C 
ENDBRANCH   8  11
ENDBRANCH   1   8
BRANCH   2  12
ATOM     12  O   UNL     1       6.124   4.649  19.918  0.00  0.00    +0.000 OA
ATOM     13  H   UNL     1       7.067   4.726  19.645  0.00  0.00    +0.000 HD
ENDBRANCH   2  12
BRANCH   4  14
ATOM     14  C   UNL     1       1.739   3.251  18.391  0.00  0.00    +0.000 C 
ATOM     15  C   UNL     1       1.202   3.711  19.739  0.00  0.00    +0.000 C 
ENDBRANCH   4  14
TORSDOF 4
ENDMDL
MODEL 8
REMARK VINA RESULT:      -5.8      3.118      4.545
REMARK  Name = 
REMARK  6 active torsions:
REMARK  status: ('A' for Active; 'I' for Inactive)
REMARK    1  A    between atoms: C_1  and  C_2
REMARK    2  A    between atoms: C_2  and  C_3
REMARK    3  A    between atoms: C_3  and  C_5
REMARK    4  A    between atoms: C_6  and  O_7
REMARK    5  A    between atoms: C_9  and  C_10
REMARK    6  A    between atoms: C_10  and  C_11
REMARK                            x       y       z     vdW  Elec       q    Type
REMARK                         _______ _______ _______ _____ _____    ______ ____
ROOT
ATOM      1  C   UNL     1       6.088   5.077  17.343  0.00  0.00    +0.000 A 
ATOM      2  C   UNL     1       5.630   3.978  16.707  0.00  0.00    +0.000 A 
ATOM      3  C   UNL     1       5.956   3.708  15.336  0.00  0.00    +0.000 A 
ATOM      4  C   UNL     1       6.685   4.588  14.644  0.00  0.00    +0.000 A 
ATOM      5  O   UNL     1       7.185   5.752  15.266  0.00  0.00    +0.000 OA
ATOM      6  C   UNL     1       6.972   6.003  16.594  0.00  0.00    +0.000 A 
ATOM      7  O   UNL     1       7.495   6.980  17.122  0.00  0.00    +0.000 OA
ENDROOT
BRANCH   1   8
ATOM      8  C   UNL     1       5.676   5.318  18.765  0.00  0.00    +0.000 C 
ATOM      9  O   UNL     1       6.512   5.182  19.666  0.00  0.00    +0.000 OA
BRANCH   8  11
ATOM     10  C   UNL     1       3.635   6.633  18.023  0.00  0.00    +0.000 C 
ATOM     11  C   UNL     1       4.241   5.715  19.072  0.00  0.00    +0.000 C 
ENDBRANCH   8  11
ENDBRANCH   1   8
BRANCH   2  12
ATOM     12  O   UNL     1       4.794   3.026  17.250  0.00  0.00    +0.000 OA
ATOM     13  H   UNL     1       3.920   3.085  16.802  0.00  0.00    +0.000 HD
ENDBRANCH   2  12
BRANCH   4  14
ATOM     14  C   UNL     1       7.003   4.472  13.182  0.00  0.00    +0.000 C 
ATOM     15  C   UNL     1       6.142   3.439  12.468  0.00  0.00    +0.000 C 
ENDBRANCH   4  14
TORSDOF 4
ENDMDL
MODEL 9
REMARK VINA RESULT:      -5.8      2.059      2.258
REMARK  Name = 
REMARK  6 active torsions:
REMARK  status: ('A' for Active; 'I' for Inactive)
REMARK    1  A    between atoms: C_1  and  C_2
REMARK    2  A    between atoms: C_2  and  C_3
REMARK    3  A    between atoms: C_3  and  C_5
REMARK    4  A    between atoms: C_6  and  O_7
REMARK    5  A    between atoms: C_9  and  C_10
REMARK    6  A    between atoms: C_10  and  C_11
REMARK                            x       y       z     vdW  Elec       q    Type
REMARK                         _______ _______ _______ _____ _____    ______ ____
ROOT
ATOM      1  C   UNL     1       2.471   3.771  18.394  0.00  0.00    +0.000 A 
ATOM      2  C   UNL     1       3.297   2.869  17.824  0.00  0.00    +0.000 A 
ATOM      3  C   UNL     1       4.398   3.271  16.996  0.00  0.00    +0.000 A 
ATOM      4  C   UNL     1       4.587   4.567  16.731  0.00  0.00    +0.000 A 
ATOM      5  O   UNL     1       3.748   5.547  17.304  0.00  0.00    +0.000 OA
ATOM      6  C   UNL     1       2.743   5.212  18.169  0.00  0.00    +0.000 A 
ATOM      7  O   UNL     1       2.090   6.095  18.717  0.00  0.00    +0.000 OA
ENDROOT
BRANCH   1   8
ATOM      8  C   UNL     1       1.316   3.280  19.217  0.00  0.00    +0.000 C 
ATOM      9  O   UNL     1       0.482   2.529  18.697  0.00  0.00    +0.000 OA
BRANCH   8  11
ATOM     10  C   UNL     1       1.677   2.674  21.655  0.00  0.00    +0.000 C 
ATOM     11  C   UNL     1       1.189   3.720  20.666  0.00  0.00    +0.000 C 
ENDBRANCH   8  11
ENDBRANCH   1   8
BRANCH   2  12
ATOM     12  O   UNL     1       3.182   1.499  17.922  0.00  0.00    +0.000 OA
ATOM     13  H   UNL     1       2.238   1.275  18.087  0.00  0.00    +0.000 HD
ENDBRANCH   2  12
BRANCH   4  14
ATOM     14  C   UNL     1       5.634   5.105  15.800  0.00  0.00    +0.000 C 
ATOM     15  C   UNL     1       5.933   4.166  14.639  0.00  0.00    +0.000 C 
ENDBRANCH   4  14
TORSDOF 4
ENDMDL
