MODEL 1
REMARK VINA RESULT:      -5.7      0.000      0.000
REMARK  Name = 
REMARK  14 active torsions:
REMARK  status: ('A' for Active; 'I' for Inactive)
REMARK    1  A    between atoms: C_1  and  C_2
REMARK    2  A    between atoms: C_2  and  N_3
REMARK    3  A    between atoms: N_3  and  C_4
REMARK    4  A    between atoms: N_3  and  C_6
REMARK    5  A    between atoms: C_4  and  C_5
REMARK    6  A    between atoms: C_6  and  C_7
REMARK    7  A    between atoms: C_9  and  O_10
REMARK    8  A    between atoms: C_11  and  C_12
REMARK    9  A    between atoms: C_12  and  N_13
REMARK   10  A    between atoms: N_13  and  C_14
REMARK   11  A    between atoms: N_13  and  C_16
REMARK   12  A    between atoms: C_14  and  C_15
REMARK   13  A    between atoms: C_16  and  C_17
REMARK   14  A    between atoms: C_19  and  O_20
REMARK                            x       y       z     vdW  Elec       q    Type
REMARK                         _______ _______ _______ _____ _____    ______ ____
ROOT
ATOM      1  C   UNL     1       1.559   9.133  19.530  0.00  0.00    +0.000 A 
ATOM      2  C   UNL     1       1.660   8.072  20.441  0.00  0.00    +0.000 A 
ATOM      3  C   UNL     1       2.052   6.802  20.002  0.00  0.00    +0.000 A 
ATOM      4  C   UNL     1       2.350   6.555  18.656  0.00  0.00    +0.000 A 
ATOM      5  C   UNL     1       2.364   7.645  17.772  0.00  0.00    +0.000 A 
ATOM      6  C   UNL     1       1.978   8.914  18.211  0.00  0.00    +0.000 A 
ENDROOT
BRANCH   3   7
ATOM      7  O   UNL     1       2.098   5.766  20.893  0.00  0.00    +0.000 OA
ATOM      8  H   UNL     1       2.901   5.858  21.431  0.00  0.00    +0.000 HD
ENDBRANCH   3   7
BRANCH   6   9
ATOM      9  O   UNL     1       1.969   9.960  17.329  0.00  0.00    +0.000 OA
ATOM     10  H   UNL     1       1.434   9.706  16.559  0.00  0.00    +0.000 HD
ENDBRANCH   6   9
BRANCH   1  11
ATOM     11  C   UNL     1       0.899  10.435  19.943  0.00  0.00    +0.000 C 
BRANCH  11  12
ATOM     12  N   UNL     1      -0.508  10.337  20.383  0.00  0.00    +0.000 NA
BRANCH  12  14
ATOM     13  C   UNL     1      -0.582   9.874  22.860  0.00  0.00    +0.000 C 
ATOM     14  C   UNL     1      -0.665  10.902  21.740  0.00  0.00    +0.000 C 
ENDBRANCH  12  14
BRANCH  12  15
ATOM     15  C   UNL     1      -1.402  10.950  19.379  0.00  0.00    +0.000 C 
ATOM     16  C   UNL     1      -1.585  10.201  18.059  0.00  0.00    +0.000 C 
ENDBRANCH  12  15
ENDBRANCH  11  12
ENDBRANCH   1  11
BRANCH   4  17
ATOM     17  C   UNL     1       2.470   5.141  18.122  0.00  0.00    +0.000 C 
BRANCH  17  18
ATOM     18  N   UNL     1       3.313   4.208  18.903  0.00  0.00    +0.000 NA
BRANCH  18  19
ATOM     19  C   UNL     1       2.747   2.850  18.949  0.00  0.00    +0.000 C 
ATOM     20  C   UNL     1       1.276   2.695  18.559  0.00  0.00    +0.000 C 
ENDBRANCH  18  19
BRANCH  18  21
ATOM     21  C   UNL     1       4.683   4.262  18.346  0.00  0.00    +0.000 C 
ATOM     22  C   UNL     1       4.784   4.045  16.840  0.00  0.00    +0.000 C 
ENDBRANCH  18  21
ENDBRANCH  17  18
ENDBRANCH   4  17
TORSDOF 10
ENDMDL
MODEL 2
REMARK VINA RESULT:      -5.6      1.253      7.106
REMARK  Name = 
REMARK  14 active torsions:
REMARK  status: ('A' for Active; 'I' for Inactive)
REMARK    1  A    between atoms: C_1  and  C_2
REMARK    2  A    between atoms: C_2  and  N_3
REMARK    3  A    between atoms: N_3  and  C_4
REMARK    4  A    between atoms: N_3  and  C_6
REMARK    5  A    between atoms: C_4  and  C_5
REMARK    6  A    between atoms: C_6  and  C_7
REMARK    7  A    between atoms: C_9  and  O_10
REMARK    8  A    between atoms: C_11  and  C_12
REMARK    9  A    between atoms: C_12  and  N_13
REMARK   10  A    between atoms: N_13  and  C_14
REMARK   11  A    between atoms: N_13  and  C_16
REMARK   12  A    between atoms: C_14  and  C_15
REMARK   13  A    between atoms: C_16  and  C_17
REMARK   14  A    between atoms: C_19  and  O_20
REMARK                            x       y       z     vdW  Elec       q    Type
REMARK                         _______ _______ _______ _____ _____    ______ ____
ROOT
ATOM      1  C   UNL     1       2.791   6.941  18.484  0.00  0.00    +0.000 A 
ATOM      2  C   UNL     1       2.604   8.102  17.718  0.00  0.00    +0.000 A 
ATOM      3  C   UNL     1       1.878   9.179  18.238  0.00  0.00    +0.000 A 
ATOM      4  C   UNL     1       1.323   9.132  19.524  0.00  0.00    +0.000 A 
ATOM      5  C   UNL     1       1.616   8.021  20.329  0.00  0.00    +0.000 A 
ATOM      6  C   UNL     1       2.345   6.947  19.811  0.00  0.00    +0.000 A 
ENDROOT
BRANCH   3   7
ATOM      7  O   UNL     1       1.662  10.283  17.461  0.00  0.00    +0.000 OA
ATOM      8  H   UNL     1       2.098  11.044  17.880  0.00  0.00    +0.000 HD
ENDBRANCH   3   7
BRANCH   6   9
ATOM      9  O   UNL     1       2.595   5.858  20.601  0.00  0.00    +0.000 OA
ATOM     10  H   UNL     1       2.450   6.113  21.528  0.00  0.00    +0.000 HD
ENDBRANCH   6   9
BRANCH   1  11
ATOM     11  C   UNL     1       3.351   5.686  17.844  0.00  0.00    +0.000 C 
BRANCH  11  12
ATOM     12  N   UNL     1       4.692   5.268  18.304  0.00  0.00    +0.000 NA
BRANCH  12  14
ATOM     13  C   UNL     1       3.602   3.035  17.876  0.00  0.00    +0.000 C 
ATOM     14  C   UNL     1       4.719   3.811  18.560  0.00  0.00    +0.000 C 
ENDBRANCH  12  14
BRANCH  12  15
ATOM     15  C   UNL     1       5.725   5.720  17.349  0.00  0.00    +0.000 C 
ATOM     16  C   UNL     1       5.266   6.041  15.926  0.00  0.00    +0.000 C 
ENDBRANCH  12  15
ENDBRANCH  11  12
ENDBRANCH   1  11
BRANCH   4  17
ATOM     17  C   UNL     1       0.291  10.147  19.973  0.00  0.00    +0.000 C 
BRANCH  17  18
ATOM     18  N   UNL     1       0.675  11.032  21.095  0.00  0.00    +0.000 NA
BRANCH  18  19
ATOM     19  C   UNL     1       1.133  12.353  20.633  0.00  0.00    +0.000 C 
ATOM     20  C   UNL     1       0.391  12.970  19.447  0.00  0.00    +0.000 C 
ENDBRANCH  18  19
BRANCH  18  21
ATOM     21  C   UNL     1      -0.466  11.093  22.035  0.00  0.00    +0.000 C 
ATOM     22  C   UNL     1      -0.532   9.964  23.056  0.00  0.00    +0.000 C 
ENDBRANCH  18  21
ENDBRANCH  17  18
ENDBRANCH   4  17
TORSDOF 10
ENDMDL
MODEL 3
REMARK VINA RESULT:      -5.6      1.327      2.081
REMARK  Name = 
REMARK  14 active torsions:
REMARK  status: ('A' for Active; 'I' for Inactive)
REMARK    1  A    between atoms: C_1  and  C_2
REMARK    2  A    between atoms: C_2  and  N_3
REMARK    3  A    between atoms: N_3  and  C_4
REMARK    4  A    between atoms: N_3  and  C_6
REMARK    5  A    between atoms: C_4  and  C_5
REMARK    6  A    between atoms: C_6  and  C_7
REMARK    7  A    between atoms: C_9  and  O_10
REMARK    8  A    between atoms: C_11  and  C_12
REMARK    9  A    between atoms: C_12  and  N_13
REMARK   10  A    between atoms: N_13  and  C_14
REMARK   11  A    between atoms: N_13  and  C_16
REMARK   12  A    between atoms: C_14  and  C_15
REMARK   13  A    between atoms: C_16  and  C_17
REMARK   14  A    between atoms: C_19  and  O_20
REMARK                            x       y       z     vdW  Elec       q    Type
REMARK                         _______ _______ _______ _____ _____    ______ ____
ROOT
ATOM      1  C   UNL     1       1.199   9.621  19.407  0.00  0.00    +0.000 A 
ATOM      2  C   UNL     1       1.229   8.580  20.346  0.00  0.00    +0.000 A 
ATOM      3  C   UNL     1       1.885   7.380  20.046  0.00  0.00    +0.000 A 
ATOM      4  C   UNL     1       2.523   7.186  18.814  0.00  0.00    +0.000 A 
ATOM      5  C   UNL     1       2.594   8.271  17.929  0.00  0.00    +0.000 A 
ATOM      6  C   UNL     1       1.943   9.471  18.230  0.00  0.00    +0.000 A 
ENDROOT
BRANCH   3   7
ATOM      7  O   UNL     1       1.863   6.356  20.952  0.00  0.00    +0.000 OA
ATOM      8  H   UNL     1       2.186   6.693  21.804  0.00  0.00    +0.000 HD
ENDBRANCH   3   7
BRANCH   6   9
ATOM      9  O   UNL     1       1.998  10.509  17.341  0.00  0.00    +0.000 OA
ATOM     10  H   UNL     1       2.601  10.264  16.620  0.00  0.00    +0.000 HD
ENDBRANCH   6   9
BRANCH   1  11
ATOM     11  C   UNL     1       0.287  10.814  19.618  0.00  0.00    +0.000 C 
BRANCH  11  12
ATOM     12  N   UNL     1      -0.539  11.211  18.458  0.00  0.00    +0.000 NA
BRANCH  12  14
ATOM     13  C   UNL     1      -2.046   9.848  16.965  0.00  0.00    +0.000 C 
ATOM     14  C   UNL     1      -1.744  10.359  18.368  0.00  0.00    +0.000 C 
ENDBRANCH  12  14
BRANCH  12  15
ATOM     15  C   UNL     1      -0.839  12.657  18.514  0.00  0.00    +0.000 C 
ATOM     16  C   UNL     1       0.348  13.609  18.668  0.00  0.00    +0.000 C 
ENDBRANCH  12  15
ENDBRANCH  11  12
ENDBRANCH   1  11
BRANCH   4  17
ATOM     17  C   UNL     1       2.960   5.806  18.363  0.00  0.00    +0.000 C 
BRANCH  17  18
ATOM     18  N   UNL     1       3.713   4.995  19.347  0.00  0.00    +0.000 NA
BRANCH  18  19
ATOM     19  C   UNL     1       3.343   3.571  19.297  0.00  0.00    +0.000 C 
ATOM     20  C   UNL     1       2.132   3.197  18.441  0.00  0.00    +0.000 C 
ENDBRANCH  18  19
BRANCH  18  21
ATOM     21  C   UNL     1       5.156   5.242  19.128  0.00  0.00    +0.000 C 
ATOM     22  C   UNL     1       5.562   5.490  17.680  0.00  0.00    +0.000 C 
ENDBRANCH  18  21
ENDBRANCH  17  18
ENDBRANCH   4  17
TORSDOF 10
ENDMDL
MODEL 4
REMARK VINA RESULT:      -5.6      4.451      7.543
REMARK  Name = 
REMARK  14 active torsions:
REMARK  status: ('A' for Active; 'I' for Inactive)
REMARK    1  A    between atoms: C_1  and  C_2
REMARK    2  A    between atoms: C_2  and  N_3
REMARK    3  A    between atoms: N_3  and  C_4
REMARK    4  A    between atoms: N_3  and  C_6
REMARK    5  A    between atoms: C_4  and  C_5
REMARK    6  A    between atoms: C_6  and  C_7
REMARK    7  A    between atoms: C_9  and  O_10
REMARK    8  A    between atoms: C_11  and  C_12
REMARK    9  A    between atoms: C_12  and  N_13
REMARK   10  A    between atoms: N_13  and  C_14
REMARK   11  A    between atoms: N_13  and  C_16
REMARK   12  A    between atoms: C_14  and  C_15
REMARK   13  A    between atoms: C_16  and  C_17
REMARK   14  A    between atoms: C_19  and  O_20
REMARK                            x       y       z     vdW  Elec       q    Type
REMARK                         _______ _______ _______ _____ _____    ______ ____
ROOT
ATOM      1  C   UNL     1       6.152   5.028  16.125  0.00  0.00    +0.000 A 
ATOM      2  C   UNL     1       6.128   3.999  17.078  0.00  0.00    +0.000 A 
ATOM      3  C   UNL     1       5.165   4.002  18.092  0.00  0.00    +0.000 A 
ATOM      4  C   UNL     1       4.207   5.020  18.186  0.00  0.00    +0.000 A 
ATOM      5  C   UNL     1       4.159   5.978  17.162  0.00  0.00    +0.000 A 
ATOM      6  C   UNL     1       5.118   5.973  16.146  0.00  0.00    +0.000 A 
ENDROOT
BRANCH   3   7
ATOM      7  O   UNL     1       5.186   3.020  19.043  0.00  0.00    +0.000 OA
ATOM      8  H   UNL     1       5.293   2.163  18.598  0.00  0.00    +0.000 HD
ENDBRANCH   3   7
BRANCH   6   9
ATOM      9  O   UNL     1       5.074   6.933  15.172  0.00  0.00    +0.000 OA
ATOM     10  H   UNL     1       4.356   7.551  15.385  0.00  0.00    +0.000 HD
ENDBRANCH   6   9
BRANCH   1  11
ATOM     11  C   UNL     1       7.332   5.170  15.183  0.00  0.00    +0.000 C 
BRANCH  11  12
ATOM     12  N   UNL     1       7.021   5.106  13.740  0.00  0.00    +0.000 NA
BRANCH  12  14
ATOM     13  C   UNL     1       7.869   6.131  11.598  0.00  0.00    +0.000 C 
ATOM     14  C   UNL     1       8.203   5.493  12.940  0.00  0.00    +0.000 C 
ENDBRANCH  12  14
BRANCH  12  15
ATOM     15  C   UNL     1       6.480   3.776  13.391  0.00  0.00    +0.000 C 
ATOM     16  C   UNL     1       5.202   3.742  12.552  0.00  0.00    +0.000 C 
ENDBRANCH  12  15
ENDBRANCH  11  12
ENDBRANCH   1  11
BRANCH   4  17
ATOM     17  C   UNL     1       3.370   5.200  19.437  0.00  0.00    +0.000 C 
BRANCH  17  18
ATOM     18  N   UNL     1       2.529   4.051  19.844  0.00  0.00    +0.000 NA
BRANCH  18  19
ATOM     19  C   UNL     1       2.067   4.163  21.237  0.00  0.00    +0.000 C 
ATOM     20  C   UNL     1       1.878   2.859  22.014  0.00  0.00    +0.000 C 
ENDBRANCH  18  19
BRANCH  18  21
ATOM     21  C   UNL     1       1.429   3.925  18.861  0.00  0.00    +0.000 C 
ATOM     22  C   UNL     1       0.927   2.506  18.623  0.00  0.00    +0.000 C 
ENDBRANCH  18  21
ENDBRANCH  17  18
ENDBRANCH   4  17
TORSDOF 10
ENDMDL
MODEL 5
REMARK VINA RESULT:      -5.5      3.693      6.368
REMARK  Name = 
REMARK  14 active torsions:
REMARK  status: ('A' for Active; 'I' for Inactive)
REMARK    1  A    between atoms: C_1  and  C_2
REMARK    2  A    between atoms: C_2  and  N_3
REMARK    3  A    between atoms: N_3  and  C_4
REMARK    4  A    between atoms: N_3  and  C_6
REMARK    5  A    between atoms: C_4  and  C_5
REMARK    6  A    between atoms: C_6  and  C_7
REMARK    7  A    between atoms: C_9  and  O_10
REMARK    8  A    between atoms: C_11  and  C_12
REMARK    9  A    between atoms: C_12  and  N_13
REMARK   10  A    between atoms: N_13  and  C_14
REMARK   11  A    between atoms: N_13  and  C_16
REMARK   12  A    between atoms: C_14  and  C_15
REMARK   13  A    between atoms: C_16  and  C_17
REMARK   14  A    between atoms: C_19  and  O_20
REMARK                            x       y       z     vdW  Elec       q    Type
REMARK                         _______ _______ _______ _____ _____    ______ ____
ROOT
ATOM      1  C   UNL     1       4.564   5.758  17.308  0.00  0.00    +0.000 A 
ATOM      2  C   UNL     1       3.747   6.766  17.840  0.00  0.00    +0.000 A 
ATOM      3  C   UNL     1       3.028   6.541  19.020  0.00  0.00    +0.000 A 
ATOM      4  C   UNL     1       3.101   5.317  19.696  0.00  0.00    +0.000 A 
ATOM      5  C   UNL     1       4.011   4.356  19.227  0.00  0.00    +0.000 A 
ATOM      6  C   UNL     1       4.733   4.583  18.052  0.00  0.00    +0.000 A 
ENDROOT
BRANCH   3   7
ATOM      7  O   UNL     1       2.198   7.516  19.499  0.00  0.00    +0.000 OA
ATOM      8  H   UNL     1       1.861   8.030  18.746  0.00  0.00    +0.000 HD
ENDBRANCH   3   7
BRANCH   6   9
ATOM      9  O   UNL     1       5.593   3.623  17.593  0.00  0.00    +0.000 OA
ATOM     10  H   UNL     1       6.297   3.504  18.252  0.00  0.00    +0.000 HD
ENDBRANCH   6   9
BRANCH   1  11
ATOM     11  C   UNL     1       5.141   5.899  15.913  0.00  0.00    +0.000 C 
BRANCH  11  12
ATOM     12  N   UNL     1       6.606   6.077  15.834  0.00  0.00    +0.000 NA
BRANCH  12  14
ATOM     13  C   UNL     1       7.624   7.737  17.437  0.00  0.00    +0.000 C 
ATOM     14  C   UNL     1       7.171   6.306  17.182  0.00  0.00    +0.000 C 
ENDBRANCH  12  14
BRANCH  12  15
ATOM     15  C   UNL     1       7.223   4.941  15.119  0.00  0.00    +0.000 C 
ATOM     16  C   UNL     1       6.309   4.104  14.223  0.00  0.00    +0.000 C 
ENDBRANCH  12  15
ENDBRANCH  11  12
ENDBRANCH   1  11
BRANCH   4  17
ATOM     17  C   UNL     1       2.106   4.956  20.781  0.00  0.00    +0.000 C 
BRANCH  17  18
ATOM     18  N   UNL     1       1.006   4.044  20.395  0.00  0.00    +0.000 NA
BRANCH  18  19
ATOM     19  C   UNL     1       1.010   3.741  18.955  0.00  0.00    +0.000 C 
ATOM     20  C   UNL     1       1.066   2.267  18.554  0.00  0.00    +0.000 C 
ENDBRANCH  18  19
BRANCH  18  21
ATOM     21  C   UNL     1       1.091   2.842  21.255  0.00  0.00    +0.000 C 
ATOM     22  C   UNL     1       2.446   2.605  21.911  0.00  0.00    +0.000 C 
ENDBRANCH  18  21
ENDBRANCH  17  18
ENDBRANCH   4  17
TORSDOF 10
ENDMDL
MODEL 6
REMARK VINA RESULT:      -5.5      4.280      6.546
REMARK  Name = 
REMARK  14 active torsions:
REMARK  status: ('A' for Active; 'I' for Inactive)
REMARK    1  A    between atoms: C_1  and  C_2
REMARK    2  A    between atoms: C_2  and  N_3
REMARK    3  A    between atoms: N_3  and  C_4
REMARK    4  A    between atoms: N_3  and  C_6
REMARK    5  A    between atoms: C_4  and  C_5
REMARK    6  A    between atoms: C_6  and  C_7
REMARK    7  A    between atoms: C_9  and  O_10
REMARK    8  A    between atoms: C_11  and  C_12
REMARK    9  A    between atoms: C_12  and  N_13
REMARK   10  A    between atoms: N_13  and  C_14
REMARK   11  A    between atoms: N_13  and  C_16
REMARK   12  A    between atoms: C_14  and  C_15
REMARK   13  A    between atoms: C_16  and  C_17
REMARK   14  A    between atoms: C_19  and  O_20
REMARK                            x       y       z     vdW  Elec       q    Type
REMARK                         _______ _______ _______ _____ _____    ______ ____
ROOT
ATOM      1  C   UNL     1       5.106   5.570  18.524  0.00  0.00    +0.000 A 
ATOM      2  C   UNL     1       6.311   4.861  18.636  0.00  0.00    +0.000 A 
ATOM      3  C   UNL     1       7.157   4.731  17.529  0.00  0.00    +0.000 A 
ATOM      4  C   UNL     1       6.830   5.298  16.291  0.00  0.00    +0.000 A 
ATOM      5  C   UNL     1       5.686   6.106  16.215  0.00  0.00    +0.000 A 
ATOM      6  C   UNL     1       4.843   6.240  17.322  0.00  0.00    +0.000 A 
ENDROOT
BRANCH   3   7
ATOM      7  O   UNL     1       8.303   3.995  17.641  0.00  0.00    +0.000 OA
ATOM      8  H   UNL     1       8.323   3.588  18.523  0.00  0.00    +0.000 HD
ENDBRANCH   3   7
BRANCH   6   9
ATOM      9  O   UNL     1       3.716   7.009  17.222  0.00  0.00    +0.000 OA
ATOM     10  H   UNL     1       2.978   6.523  17.626  0.00  0.00    +0.000 HD
ENDBRANCH   6   9
BRANCH   1  11
ATOM     11  C   UNL     1       4.073   5.503  19.633  0.00  0.00    +0.000 C 
BRANCH  11  12
ATOM     12  N   UNL     1       2.807   4.820  19.298  0.00  0.00    +0.000 NA
BRANCH  12  14
ATOM     13  C   UNL     1       2.580   3.314  17.288  0.00  0.00    +0.000 C 
ATOM     14  C   UNL     1       3.078   3.487  18.717  0.00  0.00    +0.000 C 
ENDBRANCH  12  14
BRANCH  12  15
ATOM     15  C   UNL     1       1.918   4.781  20.478  0.00  0.00    +0.000 C 
ATOM     16  C   UNL     1       0.794   3.744  20.470  0.00  0.00    +0.000 C 
ENDBRANCH  12  15
ENDBRANCH  11  12
ENDBRANCH   1  11
BRANCH   4  17
ATOM     17  C   UNL     1       7.570   4.908  15.026  0.00  0.00    +0.000 C 
BRANCH  17  18
ATOM     18  N   UNL     1       6.804   4.974  13.762  0.00  0.00    +0.000 NA
BRANCH  18  19
ATOM     19  C   UNL     1       7.678   5.113  12.585  0.00  0.00    +0.000 C 
ATOM     20  C   UNL     1       8.825   6.119  12.686  0.00  0.00    +0.000 C 
ENDBRANCH  18  19
BRANCH  18  21
ATOM     21  C   UNL     1       5.916   3.791  13.707  0.00  0.00    +0.000 C 
ATOM     22  C   UNL     1       5.636   3.250  12.309  0.00  0.00    +0.000 C 
ENDBRANCH  18  21
ENDBRANCH  17  18
ENDBRANCH   4  17
TORSDOF 10
ENDMDL
MODEL 7
REMARK VINA RESULT:      -5.5      1.383      2.171
REMARK  Name = 
REMARK  14 active torsions:
REMARK  status: ('A' for Active; 'I' for Inactive)
REMARK    1  A    between atoms: C_1  and  C_2
REMARK    2  A    between atoms: C_2  and  N_3
REMARK    3  A    between atoms: N_3  and  C_4
REMARK    4  A    between atoms: N_3  and  C_6
REMARK    5  A    between atoms: C_4  and  C_5
REMARK    6  A    between atoms: C_6  and  C_7
REMARK    7  A    between atoms: C_9  and  O_10
REMARK    8  A    between atoms: C_11  and  C_12
REMARK    9  A    between atoms: C_12  and  N_13
REMARK   10  A    between atoms: N_13  and  C_14
REMARK   11  A    between atoms: N_13  and  C_16
REMARK   12  A    between atoms: C_14  and  C_15
REMARK   13  A    between atoms: C_16  and  C_17
REMARK   14  A    between atoms: C_19  and  O_20
REMARK                            x       y       z     vdW  Elec       q    Type
REMARK                         _______ _______ _______ _____ _____    ______ ____
ROOT
ATOM      1  C   UNL     1       1.456   9.125  19.472  0.00  0.00    +0.000 A 
ATOM      2  C   UNL     1       1.593   8.048  20.360  0.00  0.00    +0.000 A 
ATOM      3  C   UNL     1       2.173   6.850  19.929  0.00  0.00    +0.000 A 
ATOM      4  C   UNL     1       2.628   6.692  18.613  0.00  0.00    +0.000 A 
ATOM      5  C   UNL     1       2.600   7.809  17.766  0.00  0.00    +0.000 A 
ATOM      6  C   UNL     1       2.025   9.008  18.198  0.00  0.00    +0.000 A 
ENDROOT
BRANCH   3   7
ATOM      7  O   UNL     1       2.254   5.792  20.791  0.00  0.00    +0.000 OA
ATOM      8  H   UNL     1       2.043   6.107  21.686  0.00  0.00    +0.000 HD
ENDBRANCH   3   7
BRANCH   6   9
ATOM      9  O   UNL     1       1.979  10.078  17.348  0.00  0.00    +0.000 OA
ATOM     10  H   UNL     1       2.731  10.016  16.736  0.00  0.00    +0.000 HD
ENDBRANCH   6   9
BRANCH   1  11
ATOM     11  C   UNL     1       0.610  10.325  19.852  0.00  0.00    +0.000 C 
BRANCH  11  12
ATOM     12  N   UNL     1      -0.173  10.938  18.759  0.00  0.00    +0.000 NA
BRANCH  12  14
ATOM     13  C   UNL     1      -1.842   9.933  17.158  0.00  0.00    +0.000 C 
ATOM     14  C   UNL     1      -1.469  10.244  18.601  0.00  0.00    +0.000 C 
ENDBRANCH  12  14
BRANCH  12  15
ATOM     15  C   UNL     1      -0.302  12.394  18.975  0.00  0.00    +0.000 C 
ATOM     16  C   UNL     1       0.835  13.278  18.462  0.00  0.00    +0.000 C 
ENDBRANCH  12  15
ENDBRANCH  11  12
ENDBRANCH   1  11
BRANCH   4  17
ATOM     17  C   UNL     1       2.966   5.323  18.056  0.00  0.00    +0.000 C 
BRANCH  17  18
ATOM     18  N   UNL     1       4.403   5.023  17.861  0.00  0.00    +0.000 NA
BRANCH  18  19
ATOM     19  C   UNL     1       5.010   4.399  19.049  0.00  0.00    +0.000 C 
ATOM     20  C   UNL     1       4.423   3.065  19.510  0.00  0.00    +0.000 C 
ENDBRANCH  18  19
BRANCH  18  21
ATOM     21  C   UNL     1       4.532   4.210  16.631  0.00  0.00    +0.000 C 
ATOM     22  C   UNL     1       5.885   4.294  15.933  0.00  0.00    +0.000 C 
ENDBRANCH  18  21
ENDBRANCH  17  18
ENDBRANCH   4  17
TORSDOF 10
ENDMDL
MODEL 8
REMARK VINA RESULT:      -5.5      1.430      7.050
REMARK  Name = 
REMARK  14 active torsions:
REMARK  status: ('A' for Active; 'I' for Inactive)
REMARK    1  A    between atoms: C_1  and  C_2
REMARK    2  A    between atoms: C_2  and  N_3
REMARK    3  A    between atoms: N_3  and  C_4
REMARK    4  A    between atoms: N_3  and  C_6
REMARK    5  A    between atoms: C_4  and  C_5
REMARK    6  A    between atoms: C_6  and  C_7
REMARK    7  A    between atoms: C_9  and  O_10
REMARK    8  A    between atoms: C_11  and  C_12
REMARK    9  A    between atoms: C_12  and  N_13
REMARK   10  A    between atoms: N_13  and  C_14
REMARK   11  A    between atoms: N_13  and  C_16
REMARK   12  A    between atoms: C_14  and  C_15
REMARK   13  A    between atoms: C_16  and  C_17
REMARK   14  A    between atoms: C_19  and  O_20
REMARK                            x       y       z     vdW  Elec       q    Type
REMARK                         _______ _______ _______ _____ _____    ______ ____
ROOT
ATOM      1  C   UNL     1       2.761   7.055  18.631  0.00  0.00    +0.000 A 
ATOM      2  C   UNL     1       2.723   8.185  17.801  0.00  0.00    +0.000 A 
ATOM      3  C   UNL     1       1.981   9.310  18.176  0.00  0.00    +0.000 A 
ATOM      4  C   UNL     1       1.262   9.342  19.378  0.00  0.00    +0.000 A 
ATOM      5  C   UNL     1       1.401   8.259  20.259  0.00  0.00    +0.000 A 
ATOM      6  C   UNL     1       2.146   7.137  19.887  0.00  0.00    +0.000 A 
ENDROOT
BRANCH   3   7
ATOM      7  O   UNL     1       1.913  10.384  17.333  0.00  0.00    +0.000 OA
ATOM      8  H   UNL     1       1.564  10.082  16.478  0.00  0.00    +0.000 HD
ENDBRANCH   3   7
BRANCH   6   9
ATOM      9  O   UNL     1       2.246   6.078  20.746  0.00  0.00    +0.000 OA
ATOM     10  H   UNL     1       2.889   5.447  20.382  0.00  0.00    +0.000 HD
ENDBRANCH   6   9
BRANCH   1  11
ATOM     11  C   UNL     1       3.348   5.752  18.122  0.00  0.00    +0.000 C 
BRANCH  11  12
ATOM     12  N   UNL     1       4.608   5.317  18.760  0.00  0.00    +0.000 NA
BRANCH  12  14
ATOM     13  C   UNL     1       3.574   3.119  18.083  0.00  0.00    +0.000 C 
ATOM     14  C   UNL     1       4.631   3.845  18.903  0.00  0.00    +0.000 C 
ENDBRANCH  12  14
BRANCH  12  15
ATOM     15  C   UNL     1       5.769   5.859  18.024  0.00  0.00    +0.000 C 
ATOM     16  C   UNL     1       7.137   5.254  18.340  0.00  0.00    +0.000 C 
ENDBRANCH  12  15
ENDBRANCH  11  12
ENDBRANCH   1  11
BRANCH   4  17
ATOM     17  C   UNL     1       0.222  10.412  19.645  0.00  0.00    +0.000 C 
BRANCH  17  18
ATOM     18  N   UNL     1      -0.565  10.877  18.480  0.00  0.00    +0.000 NA
BRANCH  18  19
ATOM     19  C   UNL     1      -1.745  10.034  18.230  0.00  0.00    +0.000 C 
ATOM     20  C   UNL     1      -2.232   9.929  16.785  0.00  0.00    +0.000 C 
ENDBRANCH  18  19
BRANCH  18  21
ATOM     21  C   UNL     1      -0.889  12.305  18.695  0.00  0.00    +0.000 C 
ATOM     22  C   UNL     1      -0.817  12.780  20.141  0.00  0.00    +0.000 C 
ENDBRANCH  18  21
ENDBRANCH  17  18
ENDBRANCH   4  17
TORSDOF 10
ENDMDL
MODEL 9
REMARK VINA RESULT:      -5.4      1.476      7.188
REMARK  Name = 
REMARK  14 active torsions:
REMARK  status: ('A' for Active; 'I' for Inactive)
REMARK    1  A    between atoms: C_1  and  C_2
REMARK    2  A    between atoms: C_2  and  N_3
REMARK    3  A    between atoms: N_3  and  C_4
REMARK    4  A    between atoms: N_3  and  C_6
REMARK    5  A    between atoms: C_4  and  C_5
REMARK    6  A    between atoms: C_6  and  C_7
REMARK    7  A    between atoms: C_9  and  O_10
REMARK    8  A    between atoms: C_11  and  C_12
REMARK    9  A    between atoms: C_12  and  N_13
REMARK   10  A    between atoms: N_13  and  C_14
REMARK   11  A    between atoms: N_13  and  C_16
REMARK   12  A    between atoms: C_14  and  C_15
REMARK   13  A    between atoms: C_16  and  C_17
REMARK   14  A    between atoms: C_19  and  O_20
REMARK                            x       y       z     vdW  Elec       q    Type
REMARK                         _______ _______ _______ _____ _____    ______ ____
ROOT
ATOM      1  C   UNL     1       2.803   6.771  18.599  0.00  0.00    +0.000 A 
ATOM      2  C   UNL     1       2.637   7.887  17.766  0.00  0.00    +0.000 A 
ATOM      3  C   UNL     1       1.926   9.004  18.219  0.00  0.00    +0.000 A 
ATOM      4  C   UNL     1       1.366   9.041  19.502  0.00  0.00    +0.000 A 
ATOM      5  C   UNL     1       1.638   7.975  20.372  0.00  0.00    +0.000 A 
ATOM      6  C   UNL     1       2.352   6.861  19.922  0.00  0.00    +0.000 A 
ENDROOT
BRANCH   3   7
ATOM      7  O   UNL     1       1.729  10.064  17.378  0.00  0.00    +0.000 OA
ATOM      8  H   UNL     1       2.398  10.741  17.574  0.00  0.00    +0.000 HD
ENDBRANCH   3   7
BRANCH   6   9
ATOM      9  O   UNL     1       2.582   5.817  20.775  0.00  0.00    +0.000 OA
ATOM     10  H   UNL     1       1.730   5.406  20.993  0.00  0.00    +0.000 HD
ENDBRANCH   6   9
BRANCH   1  11
ATOM     11  C   UNL     1       3.346   5.472  18.036  0.00  0.00    +0.000 C 
BRANCH  11  12
ATOM     12  N   UNL     1       4.782   5.467  17.687  0.00  0.00    +0.000 NA
BRANCH  12  14
ATOM     13  C   UNL     1       6.978   5.511  18.925  0.00  0.00    +0.000 C 
ATOM     14  C   UNL     1       5.582   4.917  18.803  0.00  0.00    +0.000 C 
ENDBRANCH  12  14
BRANCH  12  15
ATOM     15  C   UNL     1       4.995   4.767  16.404  0.00  0.00    +0.000 C 
ATOM     16  C   UNL     1       5.508   5.603  15.231  0.00  0.00    +0.000 C 
ENDBRANCH  12  15
ENDBRANCH  11  12
ENDBRANCH   1  11
BRANCH   4  17
ATOM     17  C   UNL     1       0.347  10.096  19.886  0.00  0.00    +0.000 C 
BRANCH  17  18
ATOM     18  N   UNL     1       0.679  10.943  21.055  0.00  0.00    +0.000 NA
BRANCH  18  19
ATOM     19  C   UNL     1       1.017  12.322  20.666  0.00  0.00    +0.000 C 
ATOM     20  C   UNL     1       0.414  13.450  21.504  0.00  0.00    +0.000 C 
ENDBRANCH  18  19
BRANCH  18  21
ATOM     21  C   UNL     1      -0.447  10.855  22.012  0.00  0.00    +0.000 C 
ATOM     22  C   UNL     1      -0.329   9.752  23.057  0.00  0.00    +0.000 C 
ENDBRANCH  18  21
ENDBRANCH  17  18
ENDBRANCH   4  17
TORSDOF 10
ENDMDL
