MODEL 1
REMARK VINA RESULT:      -8.4      0.000      0.000
REMARK  Name = 
REMARK  3 active torsions:
REMARK  status: ('A' for Active; 'I' for Inactive)
REMARK    1  A    between atoms: C_7  and  O_8
REMARK    2  A    between atoms: O_8  and  C_9
REMARK    3  A    between atoms: C_9  and  C_10
REMARK                            x       y       z     vdW  Elec       q    Type
REMARK                         _______ _______ _______ _____ _____    ______ ____
ROOT
ATOM      1  N   UNL     1       8.840   5.220  20.230  0.00  0.00    +0.000 N 
ATOM      2  C   UNL     1       7.759   5.117  19.379  0.00  0.00    +0.000 A 
ATOM      3  N   UNL     1       6.560   5.410  19.874  0.00  0.00    +0.000 NA
ATOM      4  C   UNL     1       5.517   5.283  19.038  0.00  0.00    +0.000 A 
ATOM      5  N   UNL     1       4.294   5.688  19.587  0.00  0.00    +0.000 N 
ATOM      6  C   UNL     1       5.629   4.867  17.700  0.00  0.00    +0.000 A 
ATOM      7  C   UNL     1       4.564   4.652  16.768  0.00  0.00    +0.000 A 
ATOM      8  C   UNL     1       4.844   4.211  15.472  0.00  0.00    +0.000 A 
ATOM      9  C   UNL     1       6.163   4.026  15.080  0.00  0.00    +0.000 A 
ATOM     10  C   UNL     1       7.196   4.240  15.992  0.00  0.00    +0.000 A 
ATOM     11  C   UNL     1       6.951   4.637  17.299  0.00  0.00    +0.000 A 
ATOM     12  N   UNL     1       8.001   4.769  18.118  0.00  0.00    +0.000 NA
ATOM     13  H   UNL     1       8.621   5.856  20.983  0.00  0.00    +0.000 HD
ATOM     14  H   UNL     1       9.678   5.401  19.696  0.00  0.00    +0.000 HD
ATOM     15  H   UNL     1       4.418   5.813  20.587  0.00  0.00    +0.000 HD
ATOM     16  H   UNL     1       3.552   5.043  19.333  0.00  0.00    +0.000 HD
ENDROOT
BRANCH   7  17
ATOM     17  O   UNL     1       3.281   4.769  17.243  0.00  0.00    +0.000 OA
BRANCH  17  18
ATOM     18  C   UNL     1       2.499   3.579  17.384  0.00  0.00    +0.000 C 
BRANCH  18  19
ATOM     19  C   UNL     1       2.278   3.312  18.849  0.00  0.00    +0.000 A 
ATOM     20  C   UNL     1       1.156   3.834  19.513  0.00  0.00    +0.000 A 
ATOM     21  C   UNL     1       0.953   3.585  20.872  0.00  0.00    +0.000 A 
ATOM     22  C   UNL     1       1.867   2.811  21.585  0.00  0.00    +0.000 A 
ATOM     23  C   UNL     1       2.982   2.284  20.938  0.00  0.00    +0.000 A 
ATOM     24  C   UNL     1       3.179   2.536  19.581  0.00  0.00    +0.000 A 
ATOM     25  F   UNL     1       4.258   2.015  18.978  0.00  0.00    +0.000 F 
ENDBRANCH  18  19
ENDBRANCH  17  18
ENDBRANCH   7  17
TORSDOF 3
ENDMDL
MODEL 2
REMARK VINA RESULT:      -7.7      1.633      1.650
REMARK  Name = 
REMARK  3 active torsions:
REMARK  status: ('A' for Active; 'I' for Inactive)
REMARK    1  A    between atoms: C_7  and  O_8
REMARK    2  A    between atoms: O_8  and  C_9
REMARK    3  A    between atoms: C_9  and  C_10
REMARK                            x       y       z     vdW  Elec       q    Type
REMARK                         _______ _______ _______ _____ _____    ______ ____
ROOT
ATOM      1  N   UNL     1       8.130   8.239  17.892  0.00  0.00    +0.000 N 
ATOM      2  C   UNL     1       7.255   7.261  17.464  0.00  0.00    +0.000 A 
ATOM      3  N   UNL     1       6.136   7.093  18.163  0.00  0.00    +0.000 NA
ATOM      4  C   UNL     1       5.307   6.123  17.747  0.00  0.00    +0.000 A 
ATOM      5  N   UNL     1       4.109   6.049  18.466  0.00  0.00    +0.000 N 
ATOM      6  C   UNL     1       5.559   5.299  16.635  0.00  0.00    +0.000 A 
ATOM      7  C   UNL     1       4.756   4.211  16.165  0.00  0.00    +0.000 A 
ATOM      8  C   UNL     1       5.162   3.470  15.052  0.00  0.00    +0.000 A 
ATOM      9  C   UNL     1       6.322   3.824  14.377  0.00  0.00    +0.000 A 
ATOM     10  C   UNL     1       7.098   4.887  14.839  0.00  0.00    +0.000 A 
ATOM     11  C   UNL     1       6.747   5.617  15.966  0.00  0.00    +0.000 A 
ATOM     12  N   UNL     1       7.578   6.587  16.364  0.00  0.00    +0.000 NA
ATOM     13  H   UNL     1       7.631   8.928  18.435  0.00  0.00    +0.000 HD
ATOM     14  H   UNL     1       8.679   8.570  17.112  0.00  0.00    +0.000 HD
ATOM     15  H   UNL     1       4.197   6.628  19.295  0.00  0.00    +0.000 HD
ATOM     16  H   UNL     1       3.857   5.083  18.652  0.00  0.00    +0.000 HD
ENDROOT
BRANCH   7  17
ATOM     17  O   UNL     1       3.669   3.859  16.926  0.00  0.00    +0.000 OA
BRANCH  17  18
ATOM     18  C   UNL     1       3.744   2.657  17.701  0.00  0.00    +0.000 C 
BRANCH  18  19
ATOM     19  C   UNL     1       2.905   2.824  18.939  0.00  0.00    +0.000 A 
ATOM     20  C   UNL     1       1.572   3.256  18.851  0.00  0.00    +0.000 A 
ATOM     21  C   UNL     1       0.795   3.409  20.002  0.00  0.00    +0.000 A 
ATOM     22  C   UNL     1       1.339   3.132  21.255  0.00  0.00    +0.000 A 
ATOM     23  C   UNL     1       2.660   2.699  21.356  0.00  0.00    +0.000 A 
ATOM     24  C   UNL     1       3.429   2.548  20.204  0.00  0.00    +0.000 A 
ATOM     25  F   UNL     1       4.696   2.126  20.325  0.00  0.00    +0.000 F 
ENDBRANCH  18  19
ENDBRANCH  17  18
ENDBRANCH   7  17
TORSDOF 3
ENDMDL
MODEL 3
REMARK VINA RESULT:      -7.7      1.633      1.943
REMARK  Name = 
REMARK  3 active torsions:
REMARK  status: ('A' for Active; 'I' for Inactive)
REMARK    1  A    between atoms: C_7  and  O_8
REMARK    2  A    between atoms: O_8  and  C_9
REMARK    3  A    between atoms: C_9  and  C_10
REMARK                            x       y       z     vdW  Elec       q    Type
REMARK                         _______ _______ _______ _____ _____    ______ ____
ROOT
ATOM      1  N   UNL     1       8.573   7.676  18.684  0.00  0.00    +0.000 N 
ATOM      2  C   UNL     1       7.689   6.727  18.213  0.00  0.00    +0.000 A 
ATOM      3  N   UNL     1       7.067   5.970  19.113  0.00  0.00    +0.000 NA
ATOM      4  C   UNL     1       6.229   5.037  18.637  0.00  0.00    +0.000 A 
ATOM      5  N   UNL     1       5.538   4.331  19.629  0.00  0.00    +0.000 N 
ATOM      6  C   UNL     1       5.981   4.828  17.269  0.00  0.00    +0.000 A 
ATOM      7  C   UNL     1       5.150   3.821  16.683  0.00  0.00    +0.000 A 
ATOM      8  C   UNL     1       5.029   3.731  15.294  0.00  0.00    +0.000 A 
ATOM      9  C   UNL     1       5.683   4.653  14.487  0.00  0.00    +0.000 A 
ATOM     10  C   UNL     1       6.489   5.632  15.064  0.00  0.00    +0.000 A 
ATOM     11  C   UNL     1       6.665   5.724  16.438  0.00  0.00    +0.000 A 
ATOM     12  N   UNL     1       7.497   6.665  16.899  0.00  0.00    +0.000 NA
ATOM     13  H   UNL     1       8.341   7.914  19.637  0.00  0.00    +0.000 HD
ATOM     14  H   UNL     1       8.646   8.434  18.020  0.00  0.00    +0.000 HD
ATOM     15  H   UNL     1       5.966   4.539  20.526  0.00  0.00    +0.000 HD
ATOM     16  H   UNL     1       5.494   3.342  19.404  0.00  0.00    +0.000 HD
ENDROOT
BRANCH   7  17
ATOM     17  O   UNL     1       4.602   2.889  17.530  0.00  0.00    +0.000 OA
BRANCH  17  18
ATOM     18  C   UNL     1       3.202   2.613  17.420  0.00  0.00    +0.000 C 
BRANCH  18  19
ATOM     19  C   UNL     1       2.540   2.917  18.737  0.00  0.00    +0.000 A 
ATOM     20  C   UNL     1       2.941   2.259  19.911  0.00  0.00    +0.000 A 
ATOM     21  C   UNL     1       2.326   2.543  21.132  0.00  0.00    +0.000 A 
ATOM     22  C   UNL     1       1.303   3.488  21.197  0.00  0.00    +0.000 A 
ATOM     23  C   UNL     1       0.899   4.151  20.040  0.00  0.00    +0.000 A 
ATOM     24  C   UNL     1       1.516   3.863  18.825  0.00  0.00    +0.000 A 
ATOM     25  F   UNL     1       1.113   4.516  17.725  0.00  0.00    +0.000 F 
ENDBRANCH  18  19
ENDBRANCH  17  18
ENDBRANCH   7  17
TORSDOF 3
ENDMDL
MODEL 4
REMARK VINA RESULT:      -7.7      2.530      5.466
REMARK  Name = 
REMARK  3 active torsions:
REMARK  status: ('A' for Active; 'I' for Inactive)
REMARK    1  A    between atoms: C_7  and  O_8
REMARK    2  A    between atoms: O_8  and  C_9
REMARK    3  A    between atoms: C_9  and  C_10
REMARK                            x       y       z     vdW  Elec       q    Type
REMARK                         _______ _______ _______ _____ _____    ______ ____
ROOT
ATOM      1  N   UNL     1       1.855   2.599  22.059  0.00  0.00    +0.000 N 
ATOM      2  C   UNL     1       2.281   3.281  20.937  0.00  0.00    +0.000 A 
ATOM      3  N   UNL     1       2.919   2.583  20.002  0.00  0.00    +0.000 NA
ATOM      4  C   UNL     1       3.346   3.265  18.928  0.00  0.00    +0.000 A 
ATOM      5  N   UNL     1       3.932   2.465  17.940  0.00  0.00    +0.000 N 
ATOM      6  C   UNL     1       3.155   4.647  18.749  0.00  0.00    +0.000 A 
ATOM      7  C   UNL     1       3.628   5.453  17.665  0.00  0.00    +0.000 A 
ATOM      8  C   UNL     1       3.373   6.826  17.648  0.00  0.00    +0.000 A 
ATOM      9  C   UNL     1       2.618   7.397  18.665  0.00  0.00    +0.000 A 
ATOM     10  C   UNL     1       2.158   6.605  19.716  0.00  0.00    +0.000 A 
ATOM     11  C   UNL     1       2.430   5.246  19.786  0.00  0.00    +0.000 A 
ATOM     12  N   UNL     1       1.989   4.576  20.858  0.00  0.00    +0.000 NA
ATOM     13  H   UNL     1       1.753   1.619  21.843  0.00  0.00    +0.000 HD
ATOM     14  H   UNL     1       1.060   3.073  22.463  0.00  0.00    +0.000 HD
ATOM     15  H   UNL     1       4.093   1.542  18.329  0.00  0.00    +0.000 HD
ATOM     16  H   UNL     1       4.761   2.911  17.558  0.00  0.00    +0.000 HD
ENDROOT
BRANCH   7  17
ATOM     17  O   UNL     1       4.440   4.845  16.740  0.00  0.00    +0.000 OA
BRANCH  17  18
ATOM     18  C   UNL     1       5.400   5.650  16.046  0.00  0.00    +0.000 C 
BRANCH  18  19
ATOM     19  C   UNL     1       6.431   6.133  17.030  0.00  0.00    +0.000 A 
ATOM     20  C   UNL     1       6.841   7.477  17.039  0.00  0.00    +0.000 A 
ATOM     21  C   UNL     1       7.799   7.923  17.953  0.00  0.00    +0.000 A 
ATOM     22  C   UNL     1       8.358   7.034  18.870  0.00  0.00    +0.000 A 
ATOM     23  C   UNL     1       7.957   5.700  18.874  0.00  0.00    +0.000 A 
ATOM     24  C   UNL     1       7.002   5.261  17.960  0.00  0.00    +0.000 A 
ATOM     25  F   UNL     1       6.628   3.973  17.984  0.00  0.00    +0.000 F 
ENDBRANCH  18  19
ENDBRANCH  17  18
ENDBRANCH   7  17
TORSDOF 3
ENDMDL
MODEL 5
REMARK VINA RESULT:      -7.6      1.425      1.610
REMARK  Name = 
REMARK  3 active torsions:
REMARK  status: ('A' for Active; 'I' for Inactive)
REMARK    1  A    between atoms: C_7  and  O_8
REMARK    2  A    between atoms: O_8  and  C_9
REMARK    3  A    between atoms: C_9  and  C_10
REMARK                            x       y       z     vdW  Elec       q    Type
REMARK                         _______ _______ _______ _____ _____    ______ ____
ROOT
ATOM      1  N   UNL     1       8.594   6.939  19.181  0.00  0.00    +0.000 N 
ATOM      2  C   UNL     1       7.650   6.148  18.558  0.00  0.00    +0.000 A 
ATOM      3  N   UNL     1       6.888   5.381  19.331  0.00  0.00    +0.000 NA
ATOM      4  C   UNL     1       5.991   4.601  18.707  0.00  0.00    +0.000 A 
ATOM      5  N   UNL     1       5.159   3.882  19.574  0.00  0.00    +0.000 N 
ATOM      6  C   UNL     1       5.823   4.559  17.312  0.00  0.00    +0.000 A 
ATOM      7  C   UNL     1       4.933   3.717  16.572  0.00  0.00    +0.000 A 
ATOM      8  C   UNL     1       4.905   3.781  15.176  0.00  0.00    +0.000 A 
ATOM      9  C   UNL     1       5.710   4.698  14.514  0.00  0.00    +0.000 A 
ATOM     10  C   UNL     1       6.572   5.517  15.242  0.00  0.00    +0.000 A 
ATOM     11  C   UNL     1       6.657   5.450  16.626  0.00  0.00    +0.000 A 
ATOM     12  N   UNL     1       7.549   6.240  17.235  0.00  0.00    +0.000 NA
ATOM     13  H   UNL     1       8.320   7.105  20.138  0.00  0.00    +0.000 HD
ATOM     14  H   UNL     1       8.795   7.745  18.607  0.00  0.00    +0.000 HD
ATOM     15  H   UNL     1       5.540   3.949  20.513  0.00  0.00    +0.000 HD
ATOM     16  H   UNL     1       5.025   2.932  19.242  0.00  0.00    +0.000 HD
ENDROOT
BRANCH   7  17
ATOM     17  O   UNL     1       4.229   2.774  17.279  0.00  0.00    +0.000 OA
BRANCH  17  18
ATOM     18  C   UNL     1       2.801   2.772  17.172  0.00  0.00    +0.000 C 
BRANCH  18  19
ATOM     19  C   UNL     1       2.222   3.459  18.379  0.00  0.00    +0.000 A 
ATOM     20  C   UNL     1       2.180   4.861  18.456  0.00  0.00    +0.000 A 
ATOM     21  C   UNL     1       1.641   5.496  19.578  0.00  0.00    +0.000 A 
ATOM     22  C   UNL     1       1.137   4.740  20.635  0.00  0.00    +0.000 A 
ATOM     23  C   UNL     1       1.169   3.349  20.568  0.00  0.00    +0.000 A 
ATOM     24  C   UNL     1       1.708   2.721  19.447  0.00  0.00    +0.000 A 
ATOM     25  F   UNL     1       1.725   1.381  19.404  0.00  0.00    +0.000 F 
ENDBRANCH  18  19
ENDBRANCH  17  18
ENDBRANCH   7  17
TORSDOF 3
ENDMDL
MODEL 6
REMARK VINA RESULT:      -7.6      2.014      3.263
REMARK  Name = 
REMARK  3 active torsions:
REMARK  status: ('A' for Active; 'I' for Inactive)
REMARK    1  A    between atoms: C_7  and  O_8
REMARK    2  A    between atoms: O_8  and  C_9
REMARK    3  A    between atoms: C_9  and  C_10
REMARK                            x       y       z     vdW  Elec       q    Type
REMARK                         _______ _______ _______ _____ _____    ______ ____
ROOT
ATOM      1  N   UNL     1       7.657   5.492  13.887  0.00  0.00    +0.000 N 
ATOM      2  C   UNL     1       6.992   5.484  15.096  0.00  0.00    +0.000 A 
ATOM      3  N   UNL     1       7.509   4.747  16.075  0.00  0.00    +0.000 NA
ATOM      4  C   UNL     1       6.837   4.732  17.237  0.00  0.00    +0.000 A 
ATOM      5  N   UNL     1       7.473   4.012  18.254  0.00  0.00    +0.000 N 
ATOM      6  C   UNL     1       5.645   5.443  17.463  0.00  0.00    +0.000 A 
ATOM      7  C   UNL     1       4.842   5.433  18.648  0.00  0.00    +0.000 A 
ATOM      8  C   UNL     1       3.664   6.180  18.704  0.00  0.00    +0.000 A 
ATOM      9  C   UNL     1       3.298   6.968  17.620  0.00  0.00    +0.000 A 
ATOM     10  C   UNL     1       4.085   6.975  16.470  0.00  0.00    +0.000 A 
ATOM     11  C   UNL     1       5.240   6.211  16.365  0.00  0.00    +0.000 A 
ATOM     12  N   UNL     1       5.905   6.243  15.204  0.00  0.00    +0.000 NA
ATOM     13  H   UNL     1       8.626   5.247  14.031  0.00  0.00    +0.000 HD
ATOM     14  H   UNL     1       7.462   6.352  13.396  0.00  0.00    +0.000 HD
ATOM     15  H   UNL     1       8.229   3.475  17.842  0.00  0.00    +0.000 HD
ATOM     16  H   UNL     1       6.802   3.458  18.779  0.00  0.00    +0.000 HD
ENDROOT
BRANCH   7  17
ATOM     17  O   UNL     1       5.212   4.568  19.648  0.00  0.00    +0.000 OA
BRANCH  17  18
ATOM     18  C   UNL     1       4.805   3.199  19.547  0.00  0.00    +0.000 C 
BRANCH  18  19
ATOM     19  C   UNL     1       3.306   3.128  19.666  0.00  0.00    +0.000 A 
ATOM     20  C   UNL     1       2.664   3.458  20.870  0.00  0.00    +0.000 A 
ATOM     21  C   UNL     1       1.273   3.390  20.978  0.00  0.00    +0.000 A 
ATOM     22  C   UNL     1       0.505   2.995  19.884  0.00  0.00    +0.000 A 
ATOM     23  C   UNL     1       1.129   2.669  18.682  0.00  0.00    +0.000 A 
ATOM     24  C   UNL     1       2.517   2.737  18.581  0.00  0.00    +0.000 A 
ATOM     25  F   UNL     1       3.096   2.423  17.413  0.00  0.00    +0.000 F 
ENDBRANCH  18  19
ENDBRANCH  17  18
ENDBRANCH   7  17
TORSDOF 3
ENDMDL
MODEL 7
REMARK VINA RESULT:      -7.5      1.115      1.459
REMARK  Name = 
REMARK  3 active torsions:
REMARK  status: ('A' for Active; 'I' for Inactive)
REMARK    1  A    between atoms: C_7  and  O_8
REMARK    2  A    between atoms: O_8  and  C_9
REMARK    3  A    between atoms: C_9  and  C_10
REMARK                            x       y       z     vdW  Elec       q    Type
REMARK                         _______ _______ _______ _____ _____    ______ ____
ROOT
ATOM      1  N   UNL     1       8.921   5.135  20.274  0.00  0.00    +0.000 N 
ATOM      2  C   UNL     1       7.856   5.076  19.399  0.00  0.00    +0.000 A 
ATOM      3  N   UNL     1       6.650   5.363  19.882  0.00  0.00    +0.000 NA
ATOM      4  C   UNL     1       5.623   5.279  19.022  0.00  0.00    +0.000 A 
ATOM      5  N   UNL     1       4.394   5.676  19.563  0.00  0.00    +0.000 N 
ATOM      6  C   UNL     1       5.757   4.914  17.671  0.00  0.00    +0.000 A 
ATOM      7  C   UNL     1       4.709   4.746  16.711  0.00  0.00    +0.000 A 
ATOM      8  C   UNL     1       5.009   4.353  15.405  0.00  0.00    +0.000 A 
ATOM      9  C   UNL     1       6.334   4.169  15.031  0.00  0.00    +0.000 A 
ATOM     10  C   UNL     1       7.350   4.336  15.971  0.00  0.00    +0.000 A 
ATOM     11  C   UNL     1       7.084   4.685  17.287  0.00  0.00    +0.000 A 
ATOM     12  N   UNL     1       8.119   4.774  18.130  0.00  0.00    +0.000 NA
ATOM     13  H   UNL     1       8.694   5.743  21.046  0.00  0.00    +0.000 HD
ATOM     14  H   UNL     1       9.771   5.327  19.764  0.00  0.00    +0.000 HD
ATOM     15  H   UNL     1       4.499   5.761  20.569  0.00  0.00    +0.000 HD
ATOM     16  H   UNL     1       3.651   5.048  19.270  0.00  0.00    +0.000 HD
ENDROOT
BRANCH   7  17
ATOM     17  O   UNL     1       3.418   4.859  17.166  0.00  0.00    +0.000 OA
BRANCH  17  18
ATOM     18  C   UNL     1       2.591   3.690  17.156  0.00  0.00    +0.000 C 
BRANCH  18  19
ATOM     19  C   UNL     1       2.136   3.404  18.562  0.00  0.00    +0.000 A 
ATOM     20  C   UNL     1       2.351   2.144  19.144  0.00  0.00    +0.000 A 
ATOM     21  C   UNL     1       1.927   1.880  20.448  0.00  0.00    +0.000 A 
ATOM     22  C   UNL     1       1.286   2.871  21.189  0.00  0.00    +0.000 A 
ATOM     23  C   UNL     1       1.070   4.127  20.625  0.00  0.00    +0.000 A 
ATOM     24  C   UNL     1       1.495   4.384  19.323  0.00  0.00    +0.000 A 
ATOM     25  F   UNL     1       1.280   5.600  18.802  0.00  0.00    +0.000 F 
ENDBRANCH  18  19
ENDBRANCH  17  18
ENDBRANCH   7  17
TORSDOF 3
ENDMDL
MODEL 8
REMARK VINA RESULT:      -7.5      2.640      5.653
REMARK  Name = 
REMARK  3 active torsions:
REMARK  status: ('A' for Active; 'I' for Inactive)
REMARK    1  A    between atoms: C_7  and  O_8
REMARK    2  A    between atoms: O_8  and  C_9
REMARK    3  A    between atoms: C_9  and  C_10
REMARK                            x       y       z     vdW  Elec       q    Type
REMARK                         _______ _______ _______ _____ _____    ______ ____
ROOT
ATOM      1  N   UNL     1       0.918   8.508  21.463  0.00  0.00    +0.000 N 
ATOM      2  C   UNL     1       1.439   7.476  20.709  0.00  0.00    +0.000 A 
ATOM      3  N   UNL     1       2.135   7.802  19.624  0.00  0.00    +0.000 NA
ATOM      4  C   UNL     1       2.615   6.787  18.890  0.00  0.00    +0.000 A 
ATOM      5  N   UNL     1       3.411   7.189  17.811  0.00  0.00    +0.000 N 
ATOM      6  C   UNL     1       2.424   5.430  19.206  0.00  0.00    +0.000 A 
ATOM      7  C   UNL     1       2.852   4.295  18.447  0.00  0.00    +0.000 A 
ATOM      8  C   UNL     1       2.559   3.003  18.890  0.00  0.00    +0.000 A 
ATOM      9  C   UNL     1       1.889   2.825  20.093  0.00  0.00    +0.000 A 
ATOM     10  C   UNL     1       1.477   3.935  20.829  0.00  0.00    +0.000 A 
ATOM     11  C   UNL     1       1.715   5.233  20.397  0.00  0.00    +0.000 A 
ATOM     12  N   UNL     1       1.238   6.236  21.144  0.00  0.00    +0.000 NA
ATOM     13  H   UNL     1       1.449   9.351  21.300  0.00  0.00    +0.000 HD
ATOM     14  H   UNL     1       0.805   8.207  22.421  0.00  0.00    +0.000 HD
ATOM     15  H   UNL     1       3.300   8.191  17.687  0.00  0.00    +0.000 HD
ATOM     16  H   UNL     1       3.204   6.638  16.983  0.00  0.00    +0.000 HD
ENDROOT
BRANCH   7  17
ATOM     17  O   UNL     1       3.431   4.540  17.226  0.00  0.00    +0.000 OA
BRANCH  17  18
ATOM     18  C   UNL     1       4.710   3.957  16.953  0.00  0.00    +0.000 C 
BRANCH  18  19
ATOM     19  C   UNL     1       5.785   4.897  17.428  0.00  0.00    +0.000 A 
ATOM     20  C   UNL     1       6.306   4.794  18.728  0.00  0.00    +0.000 A 
ATOM     21  C   UNL     1       7.304   5.669  19.166  0.00  0.00    +0.000 A 
ATOM     22  C   UNL     1       7.794   6.655  18.312  0.00  0.00    +0.000 A 
ATOM     23  C   UNL     1       7.288   6.765  17.019  0.00  0.00    +0.000 A 
ATOM     24  C   UNL     1       6.293   5.891  16.587  0.00  0.00    +0.000 A 
ATOM     25  F   UNL     1       5.824   6.013  15.337  0.00  0.00    +0.000 F 
ENDBRANCH  18  19
ENDBRANCH  17  18
ENDBRANCH   7  17
TORSDOF 3
ENDMDL
MODEL 9
REMARK VINA RESULT:      -7.4      2.459      5.533
REMARK  Name = 
REMARK  3 active torsions:
REMARK  status: ('A' for Active; 'I' for Inactive)
REMARK    1  A    between atoms: C_7  and  O_8
REMARK    2  A    between atoms: O_8  and  C_9
REMARK    3  A    between atoms: C_9  and  C_10
REMARK                            x       y       z     vdW  Elec       q    Type
REMARK                         _______ _______ _______ _____ _____    ______ ____
ROOT
ATOM      1  N   UNL     1       0.916   8.712  21.444  0.00  0.00    +0.000 N 
ATOM      2  C   UNL     1       1.425   7.681  20.680  0.00  0.00    +0.000 A 
ATOM      3  N   UNL     1       2.105   8.009  19.586  0.00  0.00    +0.000 NA
ATOM      4  C   UNL     1       2.574   6.994  18.843  0.00  0.00    +0.000 A 
ATOM      5  N   UNL     1       3.354   7.398  17.754  0.00  0.00    +0.000 N 
ATOM      6  C   UNL     1       2.385   5.637  19.160  0.00  0.00    +0.000 A 
ATOM      7  C   UNL     1       2.801   4.503  18.391  0.00  0.00    +0.000 A 
ATOM      8  C   UNL     1       2.513   3.211  18.836  0.00  0.00    +0.000 A 
ATOM      9  C   UNL     1       1.861   3.031  20.049  0.00  0.00    +0.000 A 
ATOM     10  C   UNL     1       1.460   4.140  20.792  0.00  0.00    +0.000 A 
ATOM     11  C   UNL     1       1.693   5.438  20.360  0.00  0.00    +0.000 A 
ATOM     12  N   UNL     1       1.229   6.440  21.116  0.00  0.00    +0.000 NA
ATOM     13  H   UNL     1       1.446   9.554  21.275  0.00  0.00    +0.000 HD
ATOM     14  H   UNL     1       0.816   8.409  22.403  0.00  0.00    +0.000 HD
ATOM     15  H   UNL     1       3.242   8.400  17.633  0.00  0.00    +0.000 HD
ATOM     16  H   UNL     1       3.135   6.849  16.928  0.00  0.00    +0.000 HD
ENDROOT
BRANCH   7  17
ATOM     17  O   UNL     1       3.363   4.750  17.163  0.00  0.00    +0.000 OA
BRANCH  17  18
ATOM     18  C   UNL     1       4.621   4.138  16.857  0.00  0.00    +0.000 C 
BRANCH  18  19
ATOM     19  C   UNL     1       5.727   5.005  17.395  0.00  0.00    +0.000 A 
ATOM     20  C   UNL     1       6.322   5.992  16.592  0.00  0.00    +0.000 A 
ATOM     21  C   UNL     1       7.349   6.795  17.094  0.00  0.00    +0.000 A 
ATOM     22  C   UNL     1       7.793   6.624  18.404  0.00  0.00    +0.000 A 
ATOM     23  C   UNL     1       7.209   5.652  19.213  0.00  0.00    +0.000 A 
ATOM     24  C   UNL     1       6.185   4.854  18.706  0.00  0.00    +0.000 A 
ATOM     25  F   UNL     1       5.635   3.927  19.504  0.00  0.00    +0.000 F 
ENDBRANCH  18  19
ENDBRANCH  17  18
ENDBRANCH   7  17
TORSDOF 3
ENDMDL
