MODEL 1
REMARK VINA RESULT:      -8.2      0.000      0.000
REMARK  Name = 
REMARK  6 active torsions:
REMARK  status: ('A' for Active; 'I' for Inactive)
REMARK    1  A    between atoms: C_1  and  O_2
REMARK    2  A    between atoms: O_2  and  C_3
REMARK    3  A    between atoms: C_6  and  C_7
REMARK    4  A    between atoms: N_13  and  C_14
REMARK    5  A    between atoms: C_19  and  C_20
REMARK    6  A    between atoms: C_20  and  N_21
REMARK                            x       y       z     vdW  Elec       q    Type
REMARK                         _______ _______ _______ _____ _____    ______ ____
ROOT
ATOM      1  C   UNL     1       6.205   5.050  17.343  0.00  0.00    +0.000 C 
ATOM      2  C   UNL     1       5.171   4.267  18.164  0.00  0.00    +0.000 C 
ATOM      3  C   UNL     1       3.752   4.821  18.080  0.00  0.00    +0.000 C 
ATOM      4  N   UNL     1       3.686   6.272  18.290  0.00  0.00    +0.000 N 
ATOM      5  C   UNL     1       2.580   6.755  19.000  0.00  0.00    +0.000 C 
ATOM      6  O   UNL     1       1.831   5.956  19.605  0.00  0.00    +0.000 OA
ATOM      7  N   UNL     1       2.368   8.108  18.991  0.00  0.00    +0.000 N 
ATOM      8  C   UNL     1       4.604   7.062  17.462  0.00  0.00    +0.000 C 
ATOM      9  C   UNL     1       6.043   6.560  17.560  0.00  0.00    +0.000 C 
ATOM     10  H   UNL     1       2.959   8.675  18.400  0.00  0.00    +0.000 HD
ENDROOT
BRANCH   7  11
ATOM     11  C   UNL     1       1.330   8.813  19.657  0.00  0.00    +0.000 A 
ATOM     12  C   UNL     1       0.899   8.622  20.963  0.00  0.00    +0.000 A 
ATOM     13  C   UNL     1       0.152   9.645  21.592  0.00  0.00    +0.000 A 
ATOM     14  C   UNL     1      -0.312  10.755  20.808  0.00  0.00    +0.000 A 
ATOM     15  C   UNL     1      -0.764  12.117  21.008  0.00  0.00    +0.000 A 
ATOM     16  C   UNL     1      -1.399  12.829  19.939  0.00  0.00    +0.000 A 
ATOM     17  C   UNL     1      -2.195  11.899  19.365  0.00  0.00    +0.000 A 
ATOM     18  N   UNL     1      -1.584  10.818  18.868  0.00  0.00    +0.000 NA
ATOM     19  C   UNL     1      -0.452  10.420  19.500  0.00  0.00    +0.000 A 
ATOM     20  C   UNL     1       0.637   9.772  18.927  0.00  0.00    +0.000 A 
BRANCH  16  21
ATOM     21  C   UNL     1      -0.555  13.365  18.663  0.00  0.00    +0.000 C 
BRANCH  21  22
ATOM     22  N   UNL     1       0.825  13.760  18.889  0.00  0.00    +0.000 NA
ATOM     23  C   UNL     1       1.107  15.115  19.281  0.00  0.00    +0.000 C 
ATOM     24  C   UNL     1       2.339  15.453  18.466  0.00  0.00    +0.000 C 
ATOM     25  C   UNL     1       3.104  14.142  18.458  0.00  0.00    +0.000 C 
ATOM     26  C   UNL     1       1.986  13.109  18.292  0.00  0.00    +0.000 C 
ENDBRANCH  21  22
ENDBRANCH  16  21
ENDBRANCH   7  11
BRANCH   1  30
ATOM     27  C   UNL     1       6.512   3.917  13.152  0.00  0.00    +0.000 A 
ATOM     28  C   UNL     1       5.539   3.336  13.959  0.00  0.00    +0.000 A 
ATOM     29  C   UNL     1       5.417   3.706  15.300  0.00  0.00    +0.000 A 
ATOM     30  C   UNL     1       6.282   4.643  15.878  0.00  0.00    +0.000 A 
ATOM     31  C   UNL     1       7.266   5.216  15.053  0.00  0.00    +0.000 A 
ATOM     32  C   UNL     1       7.379   4.857  13.704  0.00  0.00    +0.000 A 
BRANCH  27  34
ATOM     33  C   UNL     1       5.659   2.395  11.568  0.00  0.00    +0.000 C 
ATOM     34  O   UNL     1       6.544   3.471  11.861  0.00  0.00    +0.000 OA
ENDBRANCH  27  34
ENDBRANCH   1  30
TORSDOF 5
ENDMDL
MODEL 2
REMARK VINA RESULT:      -8.0      2.794     10.759
REMARK  Name = 
REMARK  6 active torsions:
REMARK  status: ('A' for Active; 'I' for Inactive)
REMARK    1  A    between atoms: C_1  and  O_2
REMARK    2  A    between atoms: O_2  and  C_3
REMARK    3  A    between atoms: C_6  and  C_7
REMARK    4  A    between atoms: N_13  and  C_14
REMARK    5  A    between atoms: C_19  and  C_20
REMARK    6  A    between atoms: C_20  and  N_21
REMARK                            x       y       z     vdW  Elec       q    Type
REMARK                         _______ _______ _______ _____ _____    ______ ____
ROOT
ATOM      1  C   UNL     1      -0.406  11.950  21.875  0.00  0.00    +0.000 C 
ATOM      2  C   UNL     1       0.362  11.898  20.546  0.00  0.00    +0.000 C 
ATOM      3  C   UNL     1       0.276  10.559  19.823  0.00  0.00    +0.000 C 
ATOM      4  N   UNL     1       0.547   9.412  20.698  0.00  0.00    +0.000 N 
ATOM      5  C   UNL     1       1.257   8.345  20.134  0.00  0.00    +0.000 C 
ATOM      6  O   UNL     1       1.814   8.485  19.022  0.00  0.00    +0.000 OA
ATOM      7  N   UNL     1       1.303   7.174  20.843  0.00  0.00    +0.000 N 
ATOM      8  C   UNL     1      -0.229   9.383  21.942  0.00  0.00    +0.000 C 
ATOM      9  C   UNL     1      -0.127  10.696  22.714  0.00  0.00    +0.000 C 
ATOM     10  H   UNL     1       0.748   7.109  21.684  0.00  0.00    +0.000 HD
ENDROOT
BRANCH   7  11
ATOM     11  C   UNL     1       1.980   5.980  20.475  0.00  0.00    +0.000 A 
ATOM     12  C   UNL     1       1.665   4.688  20.873  0.00  0.00    +0.000 A 
ATOM     13  C   UNL     1       2.171   3.600  20.125  0.00  0.00    +0.000 A 
ATOM     14  C   UNL     1       3.151   3.850  19.105  0.00  0.00    +0.000 A 
ATOM     15  C   UNL     1       3.679   3.204  17.919  0.00  0.00    +0.000 A 
ATOM     16  C   UNL     1       4.874   3.696  17.304  0.00  0.00    +0.000 A 
ATOM     17  C   UNL     1       5.671   4.003  18.353  0.00  0.00    +0.000 A 
ATOM     18  N   UNL     1       5.205   4.924  19.203  0.00  0.00    +0.000 NA
ATOM     19  C   UNL     1       3.858   4.980  19.356  0.00  0.00    +0.000 A 
ATOM     20  C   UNL     1       3.102   6.105  19.663  0.00  0.00    +0.000 A 
BRANCH  16  21
ATOM     21  C   UNL     1       4.885   5.088  16.471  0.00  0.00    +0.000 C 
BRANCH  21  22
ATOM     22  N   UNL     1       5.606   5.108  15.210  0.00  0.00    +0.000 NA
ATOM     23  C   UNL     1       5.051   4.411  14.079  0.00  0.00    +0.000 C 
ATOM     24  C   UNL     1       6.268   3.758  13.456  0.00  0.00    +0.000 C 
ATOM     25  C   UNL     1       7.351   4.799  13.666  0.00  0.00    +0.000 C 
ATOM     26  C   UNL     1       7.043   5.318  15.074  0.00  0.00    +0.000 C 
ENDBRANCH  21  22
ENDBRANCH  16  21
ENDBRANCH   7  11
BRANCH   1  30
ATOM     27  C   UNL     1      -4.639  12.910  21.560  0.00  0.00    +0.000 A 
ATOM     28  C   UNL     1      -3.837  12.925  20.423  0.00  0.00    +0.000 A 
ATOM     29  C   UNL     1      -2.481  12.598  20.508  0.00  0.00    +0.000 A 
ATOM     30  C   UNL     1      -1.886  12.279  21.733  0.00  0.00    +0.000 A 
ATOM     31  C   UNL     1      -2.705  12.277  22.875  0.00  0.00    +0.000 A 
ATOM     32  C   UNL     1      -4.068  12.588  22.789  0.00  0.00    +0.000 A 
BRANCH  27  34
ATOM     33  C   UNL     1      -6.454  12.978  20.059  0.00  0.00    +0.000 C 
ATOM     34  O   UNL     1      -5.945  13.257  21.358  0.00  0.00    +0.000 OA
ENDBRANCH  27  34
ENDBRANCH   1  30
TORSDOF 5
ENDMDL
MODEL 3
REMARK VINA RESULT:      -7.8      2.549     10.561
REMARK  Name = 
REMARK  6 active torsions:
REMARK  status: ('A' for Active; 'I' for Inactive)
REMARK    1  A    between atoms: C_1  and  O_2
REMARK    2  A    between atoms: O_2  and  C_3
REMARK    3  A    between atoms: C_6  and  C_7
REMARK    4  A    between atoms: N_13  and  C_14
REMARK    5  A    between atoms: C_19  and  C_20
REMARK    6  A    between atoms: C_20  and  N_21
REMARK                            x       y       z     vdW  Elec       q    Type
REMARK                         _______ _______ _______ _____ _____    ______ ____
ROOT
ATOM      1  C   UNL     1      -1.300  11.869  19.842  0.00  0.00    +0.000 C 
ATOM      2  C   UNL     1      -0.973  11.088  21.123  0.00  0.00    +0.000 C 
ATOM      3  C   UNL     1       0.408  10.441  21.127  0.00  0.00    +0.000 C 
ATOM      4  N   UNL     1       0.699   9.693  19.898  0.00  0.00    +0.000 N 
ATOM      5  C   UNL     1       1.428   8.507  20.041  0.00  0.00    +0.000 C 
ATOM      6  O   UNL     1       1.607   8.018  21.179  0.00  0.00    +0.000 OA
ATOM      7  N   UNL     1       1.923   7.931  18.902  0.00  0.00    +0.000 N 
ATOM      8  C   UNL     1       0.476  10.435  18.652  0.00  0.00    +0.000 C 
ATOM      9  C   UNL     1      -0.917  11.059  18.597  0.00  0.00    +0.000 C 
ATOM     10  H   UNL     1       1.820   8.436  18.033  0.00  0.00    +0.000 HD
ENDROOT
BRANCH   7  11
ATOM     11  C   UNL     1       2.666   6.722  18.810  0.00  0.00    +0.000 A 
ATOM     12  C   UNL     1       2.365   5.512  19.420  0.00  0.00    +0.000 A 
ATOM     13  C   UNL     1       2.960   4.329  18.923  0.00  0.00    +0.000 A 
ATOM     14  C   UNL     1       4.004   4.432  17.942  0.00  0.00    +0.000 A 
ATOM     15  C   UNL     1       4.639   3.604  16.935  0.00  0.00    +0.000 A 
ATOM     16  C   UNL     1       5.860   4.030  16.319  0.00  0.00    +0.000 A 
ATOM     17  C   UNL     1       6.566   4.562  17.343  0.00  0.00    +0.000 A 
ATOM     18  N   UNL     1       6.009   5.601  17.973  0.00  0.00    +0.000 NA
ATOM     19  C   UNL     1       4.653   5.621  18.024  0.00  0.00    +0.000 A 
ATOM     20  C   UNL     1       3.839   6.748  18.065  0.00  0.00    +0.000 A 
BRANCH  16  21
ATOM     21  C   UNL     1       5.886   5.244  15.245  0.00  0.00    +0.000 C 
BRANCH  21  22
ATOM     22  N   UNL     1       6.135   4.903  13.854  0.00  0.00    +0.000 NA
ATOM     23  C   UNL     1       5.213   4.031  13.175  0.00  0.00    +0.000 C 
ATOM     24  C   UNL     1       6.130   3.129  12.374  0.00  0.00    +0.000 C 
ATOM     25  C   UNL     1       7.244   4.071  11.956  0.00  0.00    +0.000 C 
ATOM     26  C   UNL     1       7.444   4.924  13.212  0.00  0.00    +0.000 C 
ENDBRANCH  21  22
ENDBRANCH  16  21
ENDBRANCH   7  11
BRANCH   1  30
ATOM     27  C   UNL     1       0.199  15.955  19.897  0.00  0.00    +0.000 A 
ATOM     28  C   UNL     1       0.149  15.249  18.700  0.00  0.00    +0.000 A 
ATOM     29  C   UNL     1      -0.350  13.945  18.665  0.00  0.00    +0.000 A 
ATOM     30  C   UNL     1      -0.782  13.301  19.830  0.00  0.00    +0.000 A 
ATOM     31  C   UNL     1      -0.718  14.022  21.035  0.00  0.00    +0.000 A 
ATOM     32  C   UNL     1      -0.233  15.335  21.068  0.00  0.00    +0.000 A 
BRANCH  27  34
ATOM     33  C   UNL     1       1.702  17.403  18.804  0.00  0.00    +0.000 C 
ATOM     34  O   UNL     1       0.714  17.217  19.812  0.00  0.00    +0.000 OA
ENDBRANCH  27  34
ENDBRANCH   1  30
TORSDOF 5
ENDMDL
MODEL 4
REMARK VINA RESULT:      -7.7      3.172     10.297
REMARK  Name = 
REMARK  6 active torsions:
REMARK  status: ('A' for Active; 'I' for Inactive)
REMARK    1  A    between atoms: C_1  and  O_2
REMARK    2  A    between atoms: O_2  and  C_3
REMARK    3  A    between atoms: C_6  and  C_7
REMARK    4  A    between atoms: N_13  and  C_14
REMARK    5  A    between atoms: C_19  and  C_20
REMARK    6  A    between atoms: C_20  and  N_21
REMARK                            x       y       z     vdW  Elec       q    Type
REMARK                         _______ _______ _______ _____ _____    ______ ____
ROOT
ATOM      1  C   UNL     1      -1.084  11.607  19.937  0.00  0.00    +0.000 C 
ATOM      2  C   UNL     1      -0.606  10.721  21.096  0.00  0.00    +0.000 C 
ATOM      3  C   UNL     1       0.788  10.133  20.903  0.00  0.00    +0.000 C 
ATOM      4  N   UNL     1       0.977   9.517  19.584  0.00  0.00    +0.000 N 
ATOM      5  C   UNL     1       1.753   8.353  19.539  0.00  0.00    +0.000 C 
ATOM      6  O   UNL     1       2.060   7.767  20.600  0.00  0.00    +0.000 OA
ATOM      7  N   UNL     1       2.148   7.908  18.305  0.00  0.00    +0.000 N 
ATOM      8  C   UNL     1       0.607  10.364  18.445  0.00  0.00    +0.000 C 
ATOM      9  C   UNL     1      -0.803  10.934  18.586  0.00  0.00    +0.000 C 
ATOM     10  H   UNL     1       1.942   8.489  17.505  0.00  0.00    +0.000 HD
ENDROOT
BRANCH   7  11
ATOM     11  C   UNL     1       2.914   6.744  18.023  0.00  0.00    +0.000 A 
ATOM     12  C   UNL     1       4.292   6.672  17.869  0.00  0.00    +0.000 A 
ATOM     13  C   UNL     1       4.927   5.414  17.987  0.00  0.00    +0.000 A 
ATOM     14  C   UNL     1       4.121   4.228  18.062  0.00  0.00    +0.000 A 
ATOM     15  C   UNL     1       4.241   2.854  18.509  0.00  0.00    +0.000 A 
ATOM     16  C   UNL     1       3.238   1.894  18.160  0.00  0.00    +0.000 A 
ATOM     17  C   UNL     1       2.943   2.194  16.874  0.00  0.00    +0.000 A 
ATOM     18  N   UNL     1       2.470   3.422  16.644  0.00  0.00    +0.000 NA
ATOM     19  C   UNL     1       2.914   4.405  17.467  0.00  0.00    +0.000 A 
ATOM     20  C   UNL     1       2.222   5.552  17.842  0.00  0.00    +0.000 A 
BRANCH  16  21
ATOM     21  C   UNL     1       1.768   1.919  18.844  0.00  0.00    +0.000 C 
BRANCH  21  22
ATOM     22  N   UNL     1       1.645   2.554  20.145  0.00  0.00    +0.000 NA
ATOM     23  C   UNL     1       0.839   3.739  20.269  0.00  0.00    +0.000 C 
ATOM     24  C   UNL     1       1.666   4.616  21.187  0.00  0.00    +0.000 C 
ATOM     25  C   UNL     1       2.276   3.611  22.147  0.00  0.00    +0.000 C 
ATOM     26  C   UNL     1       2.620   2.439  21.224  0.00  0.00    +0.000 C 
ENDBRANCH  21  22
ENDBRANCH  16  21
ENDBRANCH   7  11
BRANCH   1  30
ATOM     27  C   UNL     1       0.219  15.756  20.080  0.00  0.00    +0.000 A 
ATOM     28  C   UNL     1       0.176  15.002  21.247  0.00  0.00    +0.000 A 
ATOM     29  C   UNL     1      -0.220  13.663  21.211  0.00  0.00    +0.000 A 
ATOM     30  C   UNL     1      -0.614  13.053  20.015  0.00  0.00    +0.000 A 
ATOM     31  C   UNL     1      -0.574  13.829  18.844  0.00  0.00    +0.000 A 
ATOM     32  C   UNL     1      -0.161  15.167  18.876  0.00  0.00    +0.000 A 
BRANCH  27  34
ATOM     33  C   UNL     1       1.636  17.492  19.350  0.00  0.00    +0.000 C 
ATOM     34  O   UNL     1       0.612  17.056  20.237  0.00  0.00    +0.000 OA
ENDBRANCH  27  34
ENDBRANCH   1  30
TORSDOF 5
ENDMDL
MODEL 5
REMARK VINA RESULT:      -7.6      1.057      1.490
REMARK  Name = 
REMARK  6 active torsions:
REMARK  status: ('A' for Active; 'I' for Inactive)
REMARK    1  A    between atoms: C_1  and  O_2
REMARK    2  A    between atoms: O_2  and  C_3
REMARK    3  A    between atoms: C_6  and  C_7
REMARK    4  A    between atoms: N_13  and  C_14
REMARK    5  A    between atoms: C_19  and  C_20
REMARK    6  A    between atoms: C_20  and  N_21
REMARK                            x       y       z     vdW  Elec       q    Type
REMARK                         _______ _______ _______ _____ _____    ______ ____
ROOT
ATOM      1  C   UNL     1       6.195   5.176  17.558  0.00  0.00    +0.000 C 
ATOM      2  C   UNL     1       5.290   4.310  18.447  0.00  0.00    +0.000 C 
ATOM      3  C   UNL     1       3.829   4.744  18.467  0.00  0.00    +0.000 C 
ATOM      4  N   UNL     1       3.658   6.185  18.691  0.00  0.00    +0.000 N 
ATOM      5  C   UNL     1       2.569   6.573  19.481  0.00  0.00    +0.000 C 
ATOM      6  O   UNL     1       1.935   5.715  20.134  0.00  0.00    +0.000 OA
ATOM      7  N   UNL     1       2.246   7.904  19.496  0.00  0.00    +0.000 N 
ATOM      8  C   UNL     1       4.445   7.048  17.805  0.00  0.00    +0.000 C 
ATOM      9  C   UNL     1       5.924   6.667  17.796  0.00  0.00    +0.000 C 
ATOM     10  H   UNL     1       2.744   8.519  18.868  0.00  0.00    +0.000 HD
ENDROOT
BRANCH   7  11
ATOM     11  C   UNL     1       1.203   8.520  20.240  0.00  0.00    +0.000 A 
ATOM     12  C   UNL     1       0.532   7.987  21.331  0.00  0.00    +0.000 A 
ATOM     13  C   UNL     1      -0.181   8.858  22.188  0.00  0.00    +0.000 A 
ATOM     14  C   UNL     1      -0.359  10.229  21.798  0.00  0.00    +0.000 A 
ATOM     15  C   UNL     1      -0.666  11.505  22.413  0.00  0.00    +0.000 A 
ATOM     16  C   UNL     1      -1.012  12.631  21.598  0.00  0.00    +0.000 A 
ATOM     17  C   UNL     1      -1.805  12.101  20.640  0.00  0.00    +0.000 A 
ATOM     18  N   UNL     1      -1.257  11.156  19.870  0.00  0.00    +0.000 NA
ATOM     19  C   UNL     1      -0.310  10.377  20.450  0.00  0.00    +0.000 A 
ATOM     20  C   UNL     1       0.773   9.774  19.819  0.00  0.00    +0.000 A 
BRANCH  16  21
ATOM     21  C   UNL     1       0.101  13.402  20.706  0.00  0.00    +0.000 C 
BRANCH  21  22
ATOM     22  N   UNL     1      -0.349  14.516  19.889  0.00  0.00    +0.000 NA
ATOM     23  C   UNL     1       0.319  14.780  18.642  0.00  0.00    +0.000 C 
ATOM     24  C   UNL     1       0.422  16.292  18.628  0.00  0.00    +0.000 C 
ATOM     25  C   UNL     1      -0.882  16.722  19.275  0.00  0.00    +0.000 C 
ATOM     26  C   UNL     1      -1.051  15.691  20.395  0.00  0.00    +0.000 C 
ENDBRANCH  21  22
ENDBRANCH  16  21
ENDBRANCH   7  11
BRANCH   1  30
ATOM     27  C   UNL     1       6.300   4.050  13.356  0.00  0.00    +0.000 A 
ATOM     28  C   UNL     1       5.224   3.669  14.150  0.00  0.00    +0.000 A 
ATOM     29  C   UNL     1       5.168   4.042  15.495  0.00  0.00    +0.000 A 
ATOM     30  C   UNL     1       6.200   4.777  16.089  0.00  0.00    +0.000 A 
ATOM     31  C   UNL     1       7.286   5.148  15.278  0.00  0.00    +0.000 A 
ATOM     32  C   UNL     1       7.335   4.788  13.925  0.00  0.00    +0.000 A 
BRANCH  27  34
ATOM     33  C   UNL     1       5.099   2.860  11.714  0.00  0.00    +0.000 C 
ATOM     34  O   UNL     1       6.252   3.620  12.060  0.00  0.00    +0.000 OA
ENDBRANCH  27  34
ENDBRANCH   1  30
TORSDOF 5
ENDMDL
MODEL 6
REMARK VINA RESULT:      -7.6      2.790     10.588
REMARK  Name = 
REMARK  6 active torsions:
REMARK  status: ('A' for Active; 'I' for Inactive)
REMARK    1  A    between atoms: C_1  and  O_2
REMARK    2  A    between atoms: O_2  and  C_3
REMARK    3  A    between atoms: C_6  and  C_7
REMARK    4  A    between atoms: N_13  and  C_14
REMARK    5  A    between atoms: C_19  and  C_20
REMARK    6  A    between atoms: C_20  and  N_21
REMARK                            x       y       z     vdW  Elec       q    Type
REMARK                         _______ _______ _______ _____ _____    ______ ____
ROOT
ATOM      1  C   UNL     1      -1.352  12.556  20.129  0.00  0.00    +0.000 C 
ATOM      2  C   UNL     1      -1.206  11.864  21.492  0.00  0.00    +0.000 C 
ATOM      3  C   UNL     1       0.091  11.081  21.664  0.00  0.00    +0.000 C 
ATOM      4  N   UNL     1       0.388  10.199  20.528  0.00  0.00    +0.000 N 
ATOM      5  C   UNL     1       0.971   8.962  20.828  0.00  0.00    +0.000 C 
ATOM      6  O   UNL     1       1.011   8.563  22.012  0.00  0.00    +0.000 OA
ATOM      7  N   UNL     1       1.482   8.238  19.784  0.00  0.00    +0.000 N 
ATOM      8  C   UNL     1       0.339  10.845  19.211  0.00  0.00    +0.000 C 
ATOM      9  C   UNL     1      -0.969  11.601  18.990  0.00  0.00    +0.000 C 
ATOM     10  H   UNL     1       1.498   8.671  18.871  0.00  0.00    +0.000 HD
ENDROOT
BRANCH   7  11
ATOM     11  C   UNL     1       2.092   6.956  19.853  0.00  0.00    +0.000 A 
ATOM     12  C   UNL     1       1.718   5.899  20.671  0.00  0.00    +0.000 A 
ATOM     13  C   UNL     1       2.156   4.595  20.345  0.00  0.00    +0.000 A 
ATOM     14  C   UNL     1       3.131   4.425  19.304  0.00  0.00    +0.000 A 
ATOM     15  C   UNL     1       3.606   3.383  18.416  0.00  0.00    +0.000 A 
ATOM     16  C   UNL     1       4.815   3.569  17.671  0.00  0.00    +0.000 A 
ATOM     17  C   UNL     1       5.643   4.176  18.552  0.00  0.00    +0.000 A 
ATOM     18  N   UNL     1       5.239   5.356  19.030  0.00  0.00    +0.000 NA
ATOM     19  C   UNL     1       3.899   5.533  19.152  0.00  0.00    +0.000 A 
ATOM     20  C   UNL     1       3.206   6.734  19.050  0.00  0.00    +0.000 A 
BRANCH  16  21
ATOM     21  C   UNL     1       4.884   4.585  16.410  0.00  0.00    +0.000 C 
BRANCH  21  22
ATOM     22  N   UNL     1       5.732   4.210  15.291  0.00  0.00    +0.000 NA
ATOM     23  C   UNL     1       7.101   4.652  15.277  0.00  0.00    +0.000 C 
ATOM     24  C   UNL     1       7.313   5.048  13.829  0.00  0.00    +0.000 C 
ATOM     25  C   UNL     1       6.496   4.013  13.077  0.00  0.00    +0.000 C 
ATOM     26  C   UNL     1       5.250   3.872  13.957  0.00  0.00    +0.000 C 
ENDBRANCH  21  22
ENDBRANCH  16  21
ENDBRANCH   7  11
BRANCH   1  30
ATOM     27  C   UNL     1       0.582  16.451  19.972  0.00  0.00    +0.000 A 
ATOM     28  C   UNL     1       0.484  15.678  18.820  0.00  0.00    +0.000 A 
ATOM     29  C   UNL     1      -0.153  14.435  18.853  0.00  0.00    +0.000 A 
ATOM     30  C   UNL     1      -0.680  13.919  20.042  0.00  0.00    +0.000 A 
ATOM     31  C   UNL     1      -0.565  14.707  21.201  0.00  0.00    +0.000 A 
ATOM     32  C   UNL     1       0.059  15.960  21.165  0.00  0.00    +0.000 A 
BRANCH  27  34
ATOM     33  C   UNL     1       1.071  18.563  20.896  0.00  0.00    +0.000 C 
ATOM     34  O   UNL     1       1.235  17.643  19.823  0.00  0.00    +0.000 OA
ENDBRANCH  27  34
ENDBRANCH   1  30
TORSDOF 5
ENDMDL
MODEL 7
REMARK VINA RESULT:      -7.6      2.581     10.606
REMARK  Name = 
REMARK  6 active torsions:
REMARK  status: ('A' for Active; 'I' for Inactive)
REMARK    1  A    between atoms: C_1  and  O_2
REMARK    2  A    between atoms: O_2  and  C_3
REMARK    3  A    between atoms: C_6  and  C_7
REMARK    4  A    between atoms: N_13  and  C_14
REMARK    5  A    between atoms: C_19  and  C_20
REMARK    6  A    between atoms: C_20  and  N_21
REMARK                            x       y       z     vdW  Elec       q    Type
REMARK                         _______ _______ _______ _____ _____    ______ ____
ROOT
ATOM      1  C   UNL     1      -0.222  12.027  20.140  0.00  0.00    +0.000 C 
ATOM      2  C   UNL     1       0.501  11.885  18.794  0.00  0.00    +0.000 C 
ATOM      3  C   UNL     1       0.568  10.456  18.264  0.00  0.00    +0.000 C 
ATOM      4  N   UNL     1       1.017   9.488  19.272  0.00  0.00    +0.000 N 
ATOM      5  C   UNL     1       1.842   8.450  18.822  0.00  0.00    +0.000 C 
ATOM      6  O   UNL     1       2.338   8.500  17.675  0.00  0.00    +0.000 OA
ATOM      7  N   UNL     1       2.064   7.406  19.681  0.00  0.00    +0.000 N 
ATOM      8  C   UNL     1       0.293   9.538  20.547  0.00  0.00    +0.000 C 
ATOM      9  C   UNL     1       0.247  10.949  21.127  0.00  0.00    +0.000 C 
ATOM     10  H   UNL     1       1.551   7.392  20.551  0.00  0.00    +0.000 HD
ENDROOT
BRANCH   7  11
ATOM     11  C   UNL     1       2.881   6.267  19.445  0.00  0.00    +0.000 A 
ATOM     12  C   UNL     1       2.810   5.043  20.097  0.00  0.00    +0.000 A 
ATOM     13  C   UNL     1       3.404   3.911  19.491  0.00  0.00    +0.000 A 
ATOM     14  C   UNL     1       4.230   4.093  18.330  0.00  0.00    +0.000 A 
ATOM     15  C   UNL     1       4.735   3.311  17.219  0.00  0.00    +0.000 A 
ATOM     16  C   UNL     1       5.773   3.835  16.384  0.00  0.00    +0.000 A 
ATOM     17  C   UNL     1       6.610   4.440  17.257  0.00  0.00    +0.000 A 
ATOM     18  N   UNL     1       6.092   5.434  17.985  0.00  0.00    +0.000 NA
ATOM     19  C   UNL     1       4.774   5.335  18.292  0.00  0.00    +0.000 A 
ATOM     20  C   UNL     1       3.885   6.386  18.491  0.00  0.00    +0.000 A 
BRANCH  16  21
ATOM     21  C   UNL     1       5.487   5.032  15.328  0.00  0.00    +0.000 C 
BRANCH  21  22
ATOM     22  N   UNL     1       5.895   4.821  13.949  0.00  0.00    +0.000 NA
ATOM     23  C   UNL     1       5.099   3.964  13.111  0.00  0.00    +0.000 C 
ATOM     24  C   UNL     1       6.144   3.180  12.343  0.00  0.00    +0.000 C 
ATOM     25  C   UNL     1       7.237   4.208  12.120  0.00  0.00    +0.000 C 
ATOM     26  C   UNL     1       7.259   4.961  13.453  0.00  0.00    +0.000 C 
ENDBRANCH  21  22
ENDBRANCH  16  21
ENDBRANCH   7  11
BRANCH   1  30
ATOM     27  C   UNL     1      -4.549  12.425  19.895  0.00  0.00    +0.000 A 
ATOM     28  C   UNL     1      -3.838  11.899  18.822  0.00  0.00    +0.000 A 
ATOM     29  C   UNL     1      -2.452  11.747  18.896  0.00  0.00    +0.000 A 
ATOM     30  C   UNL     1      -1.736  12.144  20.031  0.00  0.00    +0.000 A 
ATOM     31  C   UNL     1      -2.466  12.682  21.106  0.00  0.00    +0.000 A 
ATOM     32  C   UNL     1      -3.858  12.820  21.038  0.00  0.00    +0.000 A 
BRANCH  27  34
ATOM     33  C   UNL     1      -6.679  11.486  20.264  0.00  0.00    +0.000 C 
ATOM     34  O   UNL     1      -5.898  12.537  19.706  0.00  0.00    +0.000 OA
ENDBRANCH  27  34
ENDBRANCH   1  30
TORSDOF 5
ENDMDL
MODEL 8
REMARK VINA RESULT:      -7.6      3.144     10.603
REMARK  Name = 
REMARK  6 active torsions:
REMARK  status: ('A' for Active; 'I' for Inactive)
REMARK    1  A    between atoms: C_1  and  O_2
REMARK    2  A    between atoms: O_2  and  C_3
REMARK    3  A    between atoms: C_6  and  C_7
REMARK    4  A    between atoms: N_13  and  C_14
REMARK    5  A    between atoms: C_19  and  C_20
REMARK    6  A    between atoms: C_20  and  N_21
REMARK                            x       y       z     vdW  Elec       q    Type
REMARK                         _______ _______ _______ _____ _____    ______ ____
ROOT
ATOM      1  C   UNL     1      -0.317  12.146  20.728  0.00  0.00    +0.000 C 
ATOM      2  C   UNL     1       0.386  12.342  19.377  0.00  0.00    +0.000 C 
ATOM      3  C   UNL     1       0.435  11.091  18.507  0.00  0.00    +0.000 C 
ATOM      4  N   UNL     1       0.892   9.900  19.234  0.00  0.00    +0.000 N 
ATOM      5  C   UNL     1       1.703   9.004  18.528  0.00  0.00    +0.000 C 
ATOM      6  O   UNL     1       2.183   9.338  17.422  0.00  0.00    +0.000 OA
ATOM      7  N   UNL     1       1.930   7.779  19.095  0.00  0.00    +0.000 N 
ATOM      8  C   UNL     1       0.186   9.633  20.493  0.00  0.00    +0.000 C 
ATOM      9  C   UNL     1       0.158  10.855  21.407  0.00  0.00    +0.000 C 
ATOM     10  H   UNL     1       1.429   7.550  19.942  0.00  0.00    +0.000 HD
ENDROOT
BRANCH   7  11
ATOM     11  C   UNL     1       2.735   6.732  18.570  0.00  0.00    +0.000 A 
ATOM     12  C   UNL     1       4.096   6.783  18.301  0.00  0.00    +0.000 A 
ATOM     13  C   UNL     1       4.811   5.570  18.165  0.00  0.00    +0.000 A 
ATOM     14  C   UNL     1       4.084   4.333  18.108  0.00  0.00    +0.000 A 
ATOM     15  C   UNL     1       4.323   2.918  18.315  0.00  0.00    +0.000 A 
ATOM     16  C   UNL     1       3.351   1.956  17.892  0.00  0.00    +0.000 A 
ATOM     17  C   UNL     1       2.928   2.432  16.699  0.00  0.00    +0.000 A 
ATOM     18  N   UNL     1       2.366   3.644  16.708  0.00  0.00    +0.000 NA
ATOM     19  C   UNL     1       2.822   4.515  17.643  0.00  0.00    +0.000 A 
ATOM     20  C   UNL     1       2.101   5.536  18.251  0.00  0.00    +0.000 A 
BRANCH  16  21
ATOM     21  C   UNL     1       1.947   1.768  18.681  0.00  0.00    +0.000 C 
BRANCH  21  22
ATOM     22  N   UNL     1       1.852   2.323  20.021  0.00  0.00    +0.000 NA
ATOM     23  C   UNL     1       0.784   3.241  20.321  0.00  0.00    +0.000 C 
ATOM     24  C   UNL     1       1.473   4.294  21.165  0.00  0.00    +0.000 C 
ATOM     25  C   UNL     1       2.465   3.478  21.974  0.00  0.00    +0.000 C 
ATOM     26  C   UNL     1       2.970   2.460  20.948  0.00  0.00    +0.000 C 
ENDBRANCH  21  22
ENDBRANCH  16  21
ENDBRANCH   7  11
BRANCH   1  30
ATOM     27  C   UNL     1      -4.644  12.613  20.653  0.00  0.00    +0.000 A 
ATOM     28  C   UNL     1      -3.961  12.282  19.488  0.00  0.00    +0.000 A 
ATOM     29  C   UNL     1      -2.575  12.109  19.503  0.00  0.00    +0.000 A 
ATOM     30  C   UNL     1      -1.832  12.292  20.675  0.00  0.00    +0.000 A 
ATOM     31  C   UNL     1      -2.533  12.636  21.843  0.00  0.00    +0.000 A 
ATOM     32  C   UNL     1      -3.925  12.793  21.832  0.00  0.00    +0.000 A 
BRANCH  27  34
ATOM     33  C   UNL     1      -6.749  11.560  20.546  0.00  0.00    +0.000 C 
ATOM     34  O   UNL     1      -5.995  12.767  20.516  0.00  0.00    +0.000 OA
ENDBRANCH  27  34
ENDBRANCH   1  30
TORSDOF 5
ENDMDL
MODEL 9
REMARK VINA RESULT:      -7.5      0.861      1.454
REMARK  Name = 
REMARK  6 active torsions:
REMARK  status: ('A' for Active; 'I' for Inactive)
REMARK    1  A    between atoms: C_1  and  O_2
REMARK    2  A    between atoms: O_2  and  C_3
REMARK    3  A    between atoms: C_6  and  C_7
REMARK    4  A    between atoms: N_13  and  C_14
REMARK    5  A    between atoms: C_19  and  C_20
REMARK    6  A    between atoms: C_20  and  N_21
REMARK                            x       y       z     vdW  Elec       q    Type
REMARK                         _______ _______ _______ _____ _____    ______ ____
ROOT
ATOM      1  C   UNL     1       6.179   5.045  17.473  0.00  0.00    +0.000 C 
ATOM      2  C   UNL     1       5.194   4.235  18.329  0.00  0.00    +0.000 C 
ATOM      3  C   UNL     1       3.760   4.751  18.293  0.00  0.00    +0.000 C 
ATOM      4  N   UNL     1       3.662   6.200  18.508  0.00  0.00    +0.000 N 
ATOM      5  C   UNL     1       2.569   6.653  19.255  0.00  0.00    +0.000 C 
ATOM      6  O   UNL     1       1.863   5.835  19.885  0.00  0.00    +0.000 OA
ATOM      7  N   UNL     1       2.321   8.000  19.255  0.00  0.00    +0.000 N 
ATOM      8  C   UNL     1       4.531   7.015  17.650  0.00  0.00    +0.000 C 
ATOM      9  C   UNL     1       5.985   6.551  17.698  0.00  0.00    +0.000 C 
ATOM     10  H   UNL     1       2.876   8.583  18.645  0.00  0.00    +0.000 HD
ENDROOT
BRANCH   7  11
ATOM     11  C   UNL     1       1.288   8.677  19.958  0.00  0.00    +0.000 A 
ATOM     12  C   UNL     1       0.768   8.342  21.201  0.00  0.00    +0.000 A 
ATOM     13  C   UNL     1       0.046   9.319  21.925  0.00  0.00    +0.000 A 
ATOM     14  C   UNL     1      -0.303  10.553  21.278  0.00  0.00    +0.000 A 
ATOM     15  C   UNL     1      -0.685  11.903  21.640  0.00  0.00    +0.000 A 
ATOM     16  C   UNL     1      -1.210  12.792  20.648  0.00  0.00    +0.000 A 
ATOM     17  C   UNL     1      -2.024  12.003  19.910  0.00  0.00    +0.000 A 
ATOM     18  N   UNL     1      -1.449  10.961  19.302  0.00  0.00    +0.000 NA
ATOM     19  C   UNL     1      -0.383  10.407  19.931  0.00  0.00    +0.000 A 
ATOM     20  C   UNL     1       0.698   9.770  19.331  0.00  0.00    +0.000 A 
BRANCH  16  21
ATOM     21  C   UNL     1      -0.261  13.438  19.503  0.00  0.00    +0.000 C 
BRANCH  21  22
ATOM     22  N   UNL     1       0.001  14.865  19.575  0.00  0.00    +0.000 NA
ATOM     23  C   UNL     1      -1.078  15.755  19.919  0.00  0.00    +0.000 C 
ATOM     24  C   UNL     1      -0.868  16.920  18.973  0.00  0.00    +0.000 C 
ATOM     25  C   UNL     1       0.644  17.023  18.899  0.00  0.00    +0.000 C 
ATOM     26  C   UNL     1       1.074  15.553  18.866  0.00  0.00    +0.000 C 
ENDBRANCH  21  22
ENDBRANCH  16  21
ENDBRANCH   7  11
BRANCH   1  30
ATOM     27  C   UNL     1       6.196   3.876  13.282  0.00  0.00    +0.000 A 
ATOM     28  C   UNL     1       7.246   4.628  13.797  0.00  0.00    +0.000 A 
ATOM     29  C   UNL     1       7.263   4.992  15.145  0.00  0.00    +0.000 A 
ATOM     30  C   UNL     1       6.217   4.641  16.006  0.00  0.00    +0.000 A 
ATOM     31  C   UNL     1       5.157   3.889  15.470  0.00  0.00    +0.000 A 
ATOM     32  C   UNL     1       5.147   3.510  14.122  0.00  0.00    +0.000 A 
BRANCH  27  34
ATOM     33  C   UNL     1       6.111   2.216  11.611  0.00  0.00    +0.000 C 
ATOM     34  O   UNL     1       6.281   3.588  11.948  0.00  0.00    +0.000 OA
ENDBRANCH  27  34
ENDBRANCH   1  30
TORSDOF 5
ENDMDL
