MODEL 1
REMARK VINA RESULT:      -7.9      0.000      0.000
REMARK  Name = 
REMARK  7 active torsions:
REMARK  status: ('A' for Active; 'I' for Inactive)
REMARK    1  A    between atoms: C_1  and  O_2
REMARK    2  A    between atoms: O_2  and  C_3
REMARK    3  A    between atoms: C_9  and  O_10
REMARK    4  A    between atoms: O_10  and  C_11
REMARK    5  A    between atoms: C_11  and  C_12
REMARK    6  A    between atoms: C_18  and  C_19
REMARK    7  A    between atoms: N_27  and  C_28
REMARK                            x       y       z     vdW  Elec       q    Type
REMARK                         _______ _______ _______ _____ _____    ______ ____
ROOT
ATOM      1  C   UNL     1       6.178   3.647  13.366  0.00  0.00    +0.000 A 
ATOM      2  C   UNL     1       7.248   4.467  13.687  0.00  0.00    +0.000 A 
ATOM      3  C   UNL     1       7.232   5.236  14.852  0.00  0.00    +0.000 A 
ATOM      4  C   UNL     1       6.091   5.223  15.684  0.00  0.00    +0.000 A 
ATOM      5  C   UNL     1       5.016   4.385  15.390  0.00  0.00    +0.000 A 
ATOM      6  C   UNL     1       5.058   3.609  14.205  0.00  0.00    +0.000 A 
ATOM      7  C   UNL     1       4.069   4.520  16.441  0.00  0.00    +0.000 A 
ATOM      8  C   UNL     1       4.555   5.442  17.366  0.00  0.00    +0.000 A 
ATOM      9  N   UNL     1       5.802   5.887  16.885  0.00  0.00    +0.000 N 
ENDROOT
BRANCH   8  10
ATOM     10  C   UNL     1       3.916   6.017  18.540  0.00  0.00    +0.000 C 
ATOM     11  O   UNL     1       4.139   5.575  19.661  0.00  0.00    +0.000 OA
ATOM     12  N   UNL     1       3.057   7.057  18.282  0.00  0.00    +0.000 N 
ATOM     13  C   UNL     1       2.331   7.689  19.259  0.00  0.00    +0.000 A 
ATOM     14  N   UNL     1       2.378   7.393  20.595  0.00  0.00    +0.000 NA
ATOM     15  N   UNL     1       1.503   8.186  21.195  0.00  0.00    +0.000 NA
ATOM     16  N   UNL     1       0.975   8.910  20.207  0.00  0.00    +0.000 N 
ATOM     17  N   UNL     1       1.466   8.671  18.976  0.00  0.00    +0.000 NA
ATOM     18  H   UNL     1       2.906   7.395  17.344  0.00  0.00    +0.000 HD
ATOM     19  H   UNL     1       0.238   9.587  20.382  0.00  0.00    +0.000 HD
ENDBRANCH   8  10
BRANCH   9  20
ATOM     20  C   UNL     1       6.710   6.803  17.529  0.00  0.00    +0.000 A 
ATOM     21  C   UNL     1       7.592   6.370  18.526  0.00  0.00    +0.000 A 
ATOM     22  C   UNL     1       8.516   7.260  19.087  0.00  0.00    +0.000 A 
ATOM     23  C   UNL     1       8.586   8.579  18.643  0.00  0.00    +0.000 A 
ATOM     24  C   UNL     1       7.707   9.024  17.662  0.00  0.00    +0.000 A 
ATOM     25  C   UNL     1       6.758   8.149  17.128  0.00  0.00    +0.000 A 
ENDBRANCH   9  20
BRANCH   1  27
ATOM     26  C   UNL     1       4.883   2.884  11.543  0.00  0.00    +0.000 C 
ATOM     27  O   UNL     1       6.119   2.849  12.254  0.00  0.00    +0.000 OA
ENDBRANCH   1  27
BRANCH   7  28
ATOM     28  O   UNL     1       2.913   3.799  16.454  0.00  0.00    +0.000 OA
BRANCH  28  29
ATOM     29  C   UNL     1       2.910   2.619  17.255  0.00  0.00    +0.000 C 
BRANCH  29  30
ATOM     30  C   UNL     1       2.477   2.845  18.689  0.00  0.00    +0.000 A 
ATOM     31  C   UNL     1       3.176   2.358  19.803  0.00  0.00    +0.000 A 
ATOM     32  C   UNL     1       2.697   2.597  21.092  0.00  0.00    +0.000 A 
ATOM     33  C   UNL     1       1.518   3.317  21.287  0.00  0.00    +0.000 A 
ATOM     34  C   UNL     1       0.819   3.810  20.192  0.00  0.00    +0.000 A 
ATOM     35  C   UNL     1       1.295   3.579  18.902  0.00  0.00    +0.000 A 
ENDBRANCH  29  30
ENDBRANCH  28  29
ENDBRANCH   7  28
TORSDOF 6
ENDMDL
MODEL 2
REMARK VINA RESULT:      -7.5      7.391     10.889
REMARK  Name = 
REMARK  7 active torsions:
REMARK  status: ('A' for Active; 'I' for Inactive)
REMARK    1  A    between atoms: C_1  and  O_2
REMARK    2  A    between atoms: O_2  and  C_3
REMARK    3  A    between atoms: C_9  and  O_10
REMARK    4  A    between atoms: O_10  and  C_11
REMARK    5  A    between atoms: C_11  and  C_12
REMARK    6  A    between atoms: C_18  and  C_19
REMARK    7  A    between atoms: N_27  and  C_28
REMARK                            x       y       z     vdW  Elec       q    Type
REMARK                         _______ _______ _______ _____ _____    ______ ____
ROOT
ATOM      1  C   UNL     1      -3.045  10.440  16.564  0.00  0.00    +0.000 A 
ATOM      2  C   UNL     1      -4.306  10.954  16.824  0.00  0.00    +0.000 A 
ATOM      3  C   UNL     1      -4.544  11.710  17.974  0.00  0.00    +0.000 A 
ATOM      4  C   UNL     1      -3.506  11.905  18.912  0.00  0.00    +0.000 A 
ATOM      5  C   UNL     1      -2.226  11.417  18.654  0.00  0.00    +0.000 A 
ATOM      6  C   UNL     1      -2.006  10.658  17.478  0.00  0.00    +0.000 A 
ATOM      7  C   UNL     1      -1.385  11.841  19.719  0.00  0.00    +0.000 A 
ATOM      8  C   UNL     1      -2.147  12.574  20.626  0.00  0.00    +0.000 A 
ATOM      9  N   UNL     1      -3.465  12.599  20.129  0.00  0.00    +0.000 N 
ENDROOT
BRANCH   8  10
ATOM     10  C   UNL     1      -1.789  13.114  21.929  0.00  0.00    +0.000 C 
ATOM     11  O   UNL     1      -1.988  12.472  22.954  0.00  0.00    +0.000 OA
ATOM     12  N   UNL     1      -1.239  14.372  21.905  0.00  0.00    +0.000 N 
ATOM     13  C   UNL     1      -0.886  15.057  23.039  0.00  0.00    +0.000 A 
ATOM     14  N   UNL     1      -1.008  14.584  24.318  0.00  0.00    +0.000 NA
ATOM     15  N   UNL     1      -0.607  15.554  25.127  0.00  0.00    +0.000 NA
ATOM     16  N   UNL     1      -0.270  16.553  24.309  0.00  0.00    +0.000 N 
ATOM     17  N   UNL     1      -0.394  16.301  22.992  0.00  0.00    +0.000 NA
ATOM     18  H   UNL     1      -1.086  14.863  21.037  0.00  0.00    +0.000 HD
ATOM     19  H   UNL     1       0.044  17.449  24.669  0.00  0.00    +0.000 HD
ENDBRANCH   8  10
BRANCH   9  20
ATOM     20  C   UNL     1      -4.599  13.285  20.696  0.00  0.00    +0.000 A 
ATOM     21  C   UNL     1      -4.822  14.645  20.448  0.00  0.00    +0.000 A 
ATOM     22  C   UNL     1      -5.967  15.276  20.947  0.00  0.00    +0.000 A 
ATOM     23  C   UNL     1      -6.912  14.553  21.674  0.00  0.00    +0.000 A 
ATOM     24  C   UNL     1      -6.697  13.205  21.936  0.00  0.00    +0.000 A 
ATOM     25  C   UNL     1      -5.535  12.582  21.472  0.00  0.00    +0.000 A 
ENDBRANCH   9  20
BRANCH   1  27
ATOM     26  C   UNL     1      -3.402  10.073  14.258  0.00  0.00    +0.000 C 
ATOM     27  O   UNL     1      -2.721   9.704  15.456  0.00  0.00    +0.000 OA
ENDBRANCH   1  27
BRANCH   7  28
ATOM     28  O   UNL     1      -0.056  11.542  19.739  0.00  0.00    +0.000 OA
BRANCH  28  29
ATOM     29  C   UNL     1       0.337  10.451  20.568  0.00  0.00    +0.000 C 
BRANCH  29  30
ATOM     30  C   UNL     1       1.098   9.362  19.840  0.00  0.00    +0.000 A 
ATOM     31  C   UNL     1       1.526   8.170  20.442  0.00  0.00    +0.000 A 
ATOM     32  C   UNL     1       2.239   7.226  19.701  0.00  0.00    +0.000 A 
ATOM     33  C   UNL     1       2.536   7.457  18.358  0.00  0.00    +0.000 A 
ATOM     34  C   UNL     1       2.113   8.632  17.748  0.00  0.00    +0.000 A 
ATOM     35  C   UNL     1       1.397   9.577  18.482  0.00  0.00    +0.000 A 
ENDBRANCH  29  30
ENDBRANCH  28  29
ENDBRANCH   7  28
TORSDOF 6
ENDMDL
MODEL 3
REMARK VINA RESULT:      -7.5      7.414     10.894
REMARK  Name = 
REMARK  7 active torsions:
REMARK  status: ('A' for Active; 'I' for Inactive)
REMARK    1  A    between atoms: C_1  and  O_2
REMARK    2  A    between atoms: O_2  and  C_3
REMARK    3  A    between atoms: C_9  and  O_10
REMARK    4  A    between atoms: O_10  and  C_11
REMARK    5  A    between atoms: C_11  and  C_12
REMARK    6  A    between atoms: C_18  and  C_19
REMARK    7  A    between atoms: N_27  and  C_28
REMARK                            x       y       z     vdW  Elec       q    Type
REMARK                         _______ _______ _______ _____ _____    ______ ____
ROOT
ATOM      1  C   UNL     1      -3.102  10.495  16.470  0.00  0.00    +0.000 A 
ATOM      2  C   UNL     1      -4.366  10.998  16.736  0.00  0.00    +0.000 A 
ATOM      3  C   UNL     1      -4.612  11.726  17.901  0.00  0.00    +0.000 A 
ATOM      4  C   UNL     1      -3.578  11.905  18.847  0.00  0.00    +0.000 A 
ATOM      5  C   UNL     1      -2.294  11.429  18.584  0.00  0.00    +0.000 A 
ATOM      6  C   UNL     1      -2.067  10.697  17.391  0.00  0.00    +0.000 A 
ATOM      7  C   UNL     1      -1.459  11.833  19.660  0.00  0.00    +0.000 A 
ATOM      8  C   UNL     1      -2.228  12.542  20.581  0.00  0.00    +0.000 A 
ATOM      9  N   UNL     1      -3.545  12.572  20.080  0.00  0.00    +0.000 N 
ENDROOT
BRANCH   8  10
ATOM     10  C   UNL     1      -1.878  13.054  21.897  0.00  0.00    +0.000 C 
ATOM     11  O   UNL     1      -2.058  12.381  22.905  0.00  0.00    +0.000 OA
ATOM     12  N   UNL     1      -1.356  14.325  21.905  0.00  0.00    +0.000 N 
ATOM     13  C   UNL     1      -1.014  14.987  23.056  0.00  0.00    +0.000 A 
ATOM     14  N   UNL     1      -1.120  14.477  24.323  0.00  0.00    +0.000 NA
ATOM     15  N   UNL     1      -0.738  15.433  25.156  0.00  0.00    +0.000 NA
ATOM     16  N   UNL     1      -0.428  16.461  24.364  0.00  0.00    +0.000 N 
ATOM     17  N   UNL     1      -0.551  16.243  23.041  0.00  0.00    +0.000 NA
ATOM     18  H   UNL     1      -1.218  14.843  21.051  0.00  0.00    +0.000 HD
ATOM     19  H   UNL     1      -0.133  17.354  24.748  0.00  0.00    +0.000 HD
ENDBRANCH   8  10
BRANCH   9  20
ATOM     20  C   UNL     1      -4.684  13.240  20.658  0.00  0.00    +0.000 A 
ATOM     21  C   UNL     1      -5.571  12.562  21.501  0.00  0.00    +0.000 A 
ATOM     22  C   UNL     1      -6.630  13.247  22.111  0.00  0.00    +0.000 A 
ATOM     23  C   UNL     1      -6.798  14.615  21.905  0.00  0.00    +0.000 A 
ATOM     24  C   UNL     1      -5.930  15.297  21.061  0.00  0.00    +0.000 A 
ATOM     25  C   UNL     1      -4.896  14.608  20.420  0.00  0.00    +0.000 A 
ENDBRANCH   9  20
BRANCH   1  27
ATOM     26  C   UNL     1      -3.553  10.074  14.189  0.00  0.00    +0.000 C 
ATOM     27  O   UNL     1      -2.771   9.785  15.346  0.00  0.00    +0.000 OA
ENDBRANCH   1  27
BRANCH   7  28
ATOM     28  O   UNL     1      -0.129  11.539  19.678  0.00  0.00    +0.000 OA
BRANCH  28  29
ATOM     29  C   UNL     1       0.260  10.406  20.451  0.00  0.00    +0.000 C 
BRANCH  29  30
ATOM     30  C   UNL     1       1.076   9.385  19.683  0.00  0.00    +0.000 A 
ATOM     31  C   UNL     1       1.425   9.520  18.331  0.00  0.00    +0.000 A 
ATOM     32  C   UNL     1       2.165   8.521  17.695  0.00  0.00    +0.000 A 
ATOM     33  C   UNL     1       2.561   7.380  18.392  0.00  0.00    +0.000 A 
ATOM     34  C   UNL     1       2.225   7.237  19.733  0.00  0.00    +0.000 A 
ATOM     35  C   UNL     1       1.491   8.233  20.376  0.00  0.00    +0.000 A 
ENDBRANCH  29  30
ENDBRANCH  28  29
ENDBRANCH   7  28
TORSDOF 6
ENDMDL
MODEL 4
REMARK VINA RESULT:      -7.3      6.986     10.255
REMARK  Name = 
REMARK  7 active torsions:
REMARK  status: ('A' for Active; 'I' for Inactive)
REMARK    1  A    between atoms: C_1  and  O_2
REMARK    2  A    between atoms: O_2  and  C_3
REMARK    3  A    between atoms: C_9  and  O_10
REMARK    4  A    between atoms: O_10  and  C_11
REMARK    5  A    between atoms: C_11  and  C_12
REMARK    6  A    between atoms: C_18  and  C_19
REMARK    7  A    between atoms: N_27  and  C_28
REMARK                            x       y       z     vdW  Elec       q    Type
REMARK                         _______ _______ _______ _____ _____    ______ ____
ROOT
ATOM      1  C   UNL     1      -4.347  10.993  17.905  0.00  0.00    +0.000 A 
ATOM      2  C   UNL     1      -3.638   9.850  17.569  0.00  0.00    +0.000 A 
ATOM      3  C   UNL     1      -2.315   9.684  17.984  0.00  0.00    +0.000 A 
ATOM      4  C   UNL     1      -1.673  10.716  18.705  0.00  0.00    +0.000 A 
ATOM      5  C   UNL     1      -2.379  11.860  19.074  0.00  0.00    +0.000 A 
ATOM      6  C   UNL     1      -3.722  12.003  18.647  0.00  0.00    +0.000 A 
ATOM      7  C   UNL     1      -1.508  12.665  19.858  0.00  0.00    +0.000 A 
ATOM      8  C   UNL     1      -0.276  12.023  19.960  0.00  0.00    +0.000 A 
ATOM      9  N   UNL     1      -0.377  10.821  19.230  0.00  0.00    +0.000 N 
ENDROOT
BRANCH   8  10
ATOM     10  C   UNL     1       0.975  12.483  20.542  0.00  0.00    +0.000 C 
ATOM     11  O   UNL     1       1.492  11.888  21.480  0.00  0.00    +0.000 OA
ATOM     12  N   UNL     1       1.498  13.618  19.971  0.00  0.00    +0.000 N 
ATOM     13  C   UNL     1       2.644  14.223  20.420  0.00  0.00    +0.000 A 
ATOM     14  N   UNL     1       3.418  13.778  21.458  0.00  0.00    +0.000 NA
ATOM     15  N   UNL     1       4.399  14.655  21.609  0.00  0.00    +0.000 NA
ATOM     16  N   UNL     1       4.172  15.576  20.671  0.00  0.00    +0.000 N 
ATOM     17  N   UNL     1       3.108  15.355  19.875  0.00  0.00    +0.000 NA
ATOM     18  H   UNL     1       1.043  14.074  19.195  0.00  0.00    +0.000 HD
ATOM     19  H   UNL     1       4.763  16.397  20.581  0.00  0.00    +0.000 HD
ENDBRANCH   8  10
BRANCH   9  20
ATOM     20  C   UNL     1       0.626   9.796  19.092  0.00  0.00    +0.000 A 
ATOM     21  C   UNL     1       0.884   8.890  20.128  0.00  0.00    +0.000 A 
ATOM     22  C   UNL     1       1.811   7.856  19.947  0.00  0.00    +0.000 A 
ATOM     23  C   UNL     1       2.469   7.701  18.728  0.00  0.00    +0.000 A 
ATOM     24  C   UNL     1       2.230   8.601  17.696  0.00  0.00    +0.000 A 
ATOM     25  C   UNL     1       1.334   9.658  17.887  0.00  0.00    +0.000 A 
ENDBRANCH   9  20
BRANCH   1  27
ATOM     26  C   UNL     1      -6.627  10.757  18.480  0.00  0.00    +0.000 C 
ATOM     27  O   UNL     1      -5.650  11.228  17.554  0.00  0.00    +0.000 OA
ENDBRANCH   1  27
BRANCH   7  28
ATOM     28  O   UNL     1      -1.922  13.846  20.395  0.00  0.00    +0.000 OA
BRANCH  28  29
ATOM     29  C   UNL     1      -1.858  13.955  21.815  0.00  0.00    +0.000 C 
BRANCH  29  30
ATOM     30  C   UNL     1      -3.141  13.573  22.524  0.00  0.00    +0.000 A 
ATOM     31  C   UNL     1      -3.186  12.888  23.748  0.00  0.00    +0.000 A 
ATOM     32  C   UNL     1      -4.414  12.559  24.323  0.00  0.00    +0.000 A 
ATOM     33  C   UNL     1      -5.608  12.902  23.690  0.00  0.00    +0.000 A 
ATOM     34  C   UNL     1      -5.578  13.585  22.479  0.00  0.00    +0.000 A 
ATOM     35  C   UNL     1      -4.354  13.921  21.901  0.00  0.00    +0.000 A 
ENDBRANCH  29  30
ENDBRANCH  28  29
ENDBRANCH   7  28
TORSDOF 6
ENDMDL
MODEL 5
REMARK VINA RESULT:      -7.2      2.748      6.003
REMARK  Name = 
REMARK  7 active torsions:
REMARK  status: ('A' for Active; 'I' for Inactive)
REMARK    1  A    between atoms: C_1  and  O_2
REMARK    2  A    between atoms: O_2  and  C_3
REMARK    3  A    between atoms: C_9  and  O_10
REMARK    4  A    between atoms: O_10  and  C_11
REMARK    5  A    between atoms: C_11  and  C_12
REMARK    6  A    between atoms: C_18  and  C_19
REMARK    7  A    between atoms: N_27  and  C_28
REMARK                            x       y       z     vdW  Elec       q    Type
REMARK                         _______ _______ _______ _____ _____    ______ ____
ROOT
ATOM      1  C   UNL     1       5.406   5.617  15.906  0.00  0.00    +0.000 A 
ATOM      2  C   UNL     1       5.197   4.366  16.465  0.00  0.00    +0.000 A 
ATOM      3  C   UNL     1       4.319   4.202  17.538  0.00  0.00    +0.000 A 
ATOM      4  C   UNL     1       3.680   5.331  18.098  0.00  0.00    +0.000 A 
ATOM      5  C   UNL     1       3.858   6.593  17.533  0.00  0.00    +0.000 A 
ATOM      6  C   UNL     1       4.750   6.733  16.440  0.00  0.00    +0.000 A 
ATOM      7  C   UNL     1       3.029   7.501  18.245  0.00  0.00    +0.000 A 
ATOM      8  C   UNL     1       2.355   6.803  19.245  0.00  0.00    +0.000 A 
ATOM      9  N   UNL     1       2.773   5.460  19.160  0.00  0.00    +0.000 N 
ENDROOT
BRANCH   8  10
ATOM     10  C   UNL     1       1.496   7.291  20.312  0.00  0.00    +0.000 C 
ATOM     11  O   UNL     1       0.713   6.543  20.885  0.00  0.00    +0.000 OA
ATOM     12  N   UNL     1       1.630   8.628  20.599  0.00  0.00    +0.000 N 
ATOM     13  C   UNL     1       0.869   9.272  21.540  0.00  0.00    +0.000 A 
ATOM     14  N   UNL     1      -0.089   8.681  22.321  0.00  0.00    +0.000 NA
ATOM     15  N   UNL     1      -0.626   9.640  23.062  0.00  0.00    +0.000 NA
ATOM     16  N   UNL     1       0.022  10.748  22.695  0.00  0.00    +0.000 N 
ATOM     17  N   UNL     1       0.986  10.586  21.770  0.00  0.00    +0.000 NA
ATOM     18  H   UNL     1       2.292   9.208  20.107  0.00  0.00    +0.000 HD
ATOM     19  H   UNL     1      -0.217  11.654  23.086  0.00  0.00    +0.000 HD
ENDBRANCH   8  10
BRANCH   9  20
ATOM     20  C   UNL     1       2.308   4.349  19.953  0.00  0.00    +0.000 A 
ATOM     21  C   UNL     1       2.843   4.088  21.220  0.00  0.00    +0.000 A 
ATOM     22  C   UNL     1       2.327   3.050  22.004  0.00  0.00    +0.000 A 
ATOM     23  C   UNL     1       1.261   2.279  21.545  0.00  0.00    +0.000 A 
ATOM     24  C   UNL     1       0.728   2.521  20.283  0.00  0.00    +0.000 A 
ATOM     25  C   UNL     1       1.267   3.532  19.482  0.00  0.00    +0.000 A 
ENDBRANCH   9  20
BRANCH   1  27
ATOM     26  C   UNL     1       7.053   4.767  14.442  0.00  0.00    +0.000 C 
ATOM     27  O   UNL     1       6.236   5.864  14.845  0.00  0.00    +0.000 OA
ENDBRANCH   1  27
BRANCH   7  28
ATOM     28  O   UNL     1       2.962   8.819  17.906  0.00  0.00    +0.000 OA
BRANCH  28  29
ATOM     29  C   UNL     1       1.694   9.295  17.460  0.00  0.00    +0.000 C 
BRANCH  29  30
ATOM     30  C   UNL     1       1.309  10.649  18.022  0.00  0.00    +0.000 A 
ATOM     31  C   UNL     1       2.219  11.696  18.233  0.00  0.00    +0.000 A 
ATOM     32  C   UNL     1       1.783  12.906  18.773  0.00  0.00    +0.000 A 
ATOM     33  C   UNL     1       0.443  13.089  19.112  0.00  0.00    +0.000 A 
ATOM     34  C   UNL     1      -0.470  12.062  18.903  0.00  0.00    +0.000 A 
ATOM     35  C   UNL     1      -0.041  10.851  18.360  0.00  0.00    +0.000 A 
ENDBRANCH  29  30
ENDBRANCH  28  29
ENDBRANCH   7  28
TORSDOF 6
ENDMDL
MODEL 6
REMARK VINA RESULT:      -7.0      7.739     11.213
REMARK  Name = 
REMARK  7 active torsions:
REMARK  status: ('A' for Active; 'I' for Inactive)
REMARK    1  A    between atoms: C_1  and  O_2
REMARK    2  A    between atoms: O_2  and  C_3
REMARK    3  A    between atoms: C_9  and  O_10
REMARK    4  A    between atoms: O_10  and  C_11
REMARK    5  A    between atoms: C_11  and  C_12
REMARK    6  A    between atoms: C_18  and  C_19
REMARK    7  A    between atoms: N_27  and  C_28
REMARK                            x       y       z     vdW  Elec       q    Type
REMARK                         _______ _______ _______ _____ _____    ______ ____
ROOT
ATOM      1  C   UNL     1      -3.088  10.392  16.115  0.00  0.00    +0.000 A 
ATOM      2  C   UNL     1      -4.398  10.845  16.154  0.00  0.00    +0.000 A 
ATOM      3  C   UNL     1      -4.856  11.609  17.229  0.00  0.00    +0.000 A 
ATOM      4  C   UNL     1      -3.994  11.877  18.316  0.00  0.00    +0.000 A 
ATOM      5  C   UNL     1      -2.667  11.452  18.281  0.00  0.00    +0.000 A 
ATOM      6  C   UNL     1      -2.223  10.683  17.177  0.00  0.00    +0.000 A 
ATOM      7  C   UNL     1      -2.031  11.940  19.455  0.00  0.00    +0.000 A 
ATOM      8  C   UNL     1      -2.965  12.651  20.207  0.00  0.00    +0.000 A 
ATOM      9  N   UNL     1      -4.185  12.596  19.504  0.00  0.00    +0.000 N 
ENDROOT
BRANCH   8  10
ATOM     10  C   UNL     1      -2.850  13.234  21.535  0.00  0.00    +0.000 C 
ATOM     11  O   UNL     1      -2.097  14.177  21.747  0.00  0.00    +0.000 OA
ATOM     12  N   UNL     1      -3.626  12.638  22.499  0.00  0.00    +0.000 N 
ATOM     13  C   UNL     1      -3.611  13.023  23.816  0.00  0.00    +0.000 A 
ATOM     14  N   UNL     1      -2.857  14.042  24.333  0.00  0.00    +0.000 NA
ATOM     15  N   UNL     1      -3.086  14.065  25.638  0.00  0.00    +0.000 NA
ATOM     16  N   UNL     1      -3.952  13.071  25.843  0.00  0.00    +0.000 N 
ATOM     17  N   UNL     1      -4.344  12.396  24.745  0.00  0.00    +0.000 NA
ATOM     18  H   UNL     1      -4.238  11.866  22.280  0.00  0.00    +0.000 HD
ATOM     19  H   UNL     1      -4.277  12.837  26.776  0.00  0.00    +0.000 HD
ENDBRANCH   8  10
BRANCH   9  20
ATOM     20  C   UNL     1      -5.428  13.232  19.862  0.00  0.00    +0.000 A 
ATOM     21  C   UNL     1      -5.570  14.624  19.813  0.00  0.00    +0.000 A 
ATOM     22  C   UNL     1      -6.806  15.219  20.093  0.00  0.00    +0.000 A 
ATOM     23  C   UNL     1      -7.915  14.432  20.400  0.00  0.00    +0.000 A 
ATOM     24  C   UNL     1      -7.784  13.050  20.463  0.00  0.00    +0.000 A 
ATOM     25  C   UNL     1      -6.541  12.456  20.222  0.00  0.00    +0.000 A 
ENDBRANCH   9  20
BRANCH   1  27
ATOM     26  C   UNL     1      -3.094   9.917  13.801  0.00  0.00    +0.000 C 
ATOM     27  O   UNL     1      -2.554   9.653  15.094  0.00  0.00    +0.000 OA
ENDBRANCH   1  27
BRANCH   7  28
ATOM     28  O   UNL     1      -0.710  11.712  19.696  0.00  0.00    +0.000 OA
BRANCH  28  29
ATOM     29  C   UNL     1      -0.395  10.546  20.453  0.00  0.00    +0.000 C 
BRANCH  29  30
ATOM     30  C   UNL     1       0.591   9.616  19.776  0.00  0.00    +0.000 A 
ATOM     31  C   UNL     1       0.962   9.718  18.427  0.00  0.00    +0.000 A 
ATOM     32  C   UNL     1       1.866   8.807  17.877  0.00  0.00    +0.000 A 
ATOM     33  C   UNL     1       2.405   7.785  18.658  0.00  0.00    +0.000 A 
ATOM     34  C   UNL     1       2.050   7.676  19.997  0.00  0.00    +0.000 A 
ATOM     35  C   UNL     1       1.151   8.586  20.554  0.00  0.00    +0.000 A 
ENDBRANCH  29  30
ENDBRANCH  28  29
ENDBRANCH   7  28
TORSDOF 6
ENDMDL
MODEL 7
REMARK VINA RESULT:      -7.0      7.014     10.399
REMARK  Name = 
REMARK  7 active torsions:
REMARK  status: ('A' for Active; 'I' for Inactive)
REMARK    1  A    between atoms: C_1  and  O_2
REMARK    2  A    between atoms: O_2  and  C_3
REMARK    3  A    between atoms: C_9  and  O_10
REMARK    4  A    between atoms: O_10  and  C_11
REMARK    5  A    between atoms: C_11  and  C_12
REMARK    6  A    between atoms: C_18  and  C_19
REMARK    7  A    between atoms: N_27  and  C_28
REMARK                            x       y       z     vdW  Elec       q    Type
REMARK                         _______ _______ _______ _____ _____    ______ ____
ROOT
ATOM      1  C   UNL     1      -4.354  10.971  17.784  0.00  0.00    +0.000 A 
ATOM      2  C   UNL     1      -3.628   9.827  17.491  0.00  0.00    +0.000 A 
ATOM      3  C   UNL     1      -2.316   9.679  17.946  0.00  0.00    +0.000 A 
ATOM      4  C   UNL     1      -1.701  10.728  18.663  0.00  0.00    +0.000 A 
ATOM      5  C   UNL     1      -2.424  11.875  18.989  0.00  0.00    +0.000 A 
ATOM      6  C   UNL     1      -3.756  12.000  18.522  0.00  0.00    +0.000 A 
ATOM      7  C   UNL     1      -1.581  12.701  19.781  0.00  0.00    +0.000 A 
ATOM      8  C   UNL     1      -0.347  12.070  19.930  0.00  0.00    +0.000 A 
ATOM      9  N   UNL     1      -0.421  10.853  19.222  0.00  0.00    +0.000 N 
ENDROOT
BRANCH   8  10
ATOM     10  C   UNL     1       0.884  12.551  20.537  0.00  0.00    +0.000 C 
ATOM     11  O   UNL     1       1.146  12.308  21.709  0.00  0.00    +0.000 OA
ATOM     12  N   UNL     1       1.691  13.289  19.706  0.00  0.00    +0.000 N 
ATOM     13  C   UNL     1       2.866  13.863  20.119  0.00  0.00    +0.000 A 
ATOM     14  N   UNL     1       3.395  13.762  21.378  0.00  0.00    +0.000 NA
ATOM     15  N   UNL     1       4.503  14.489  21.389  0.00  0.00    +0.000 NA
ATOM     16  N   UNL     1       4.586  14.988  20.154  0.00  0.00    +0.000 N 
ATOM     17  N   UNL     1       3.612  14.617  19.302  0.00  0.00    +0.000 NA
ATOM     18  H   UNL     1       1.440  13.460  18.745  0.00  0.00    +0.000 HD
ATOM     19  H   UNL     1       5.335  15.622  19.889  0.00  0.00    +0.000 HD
ENDBRANCH   8  10
BRANCH   9  20
ATOM     20  C   UNL     1       0.593   9.833  19.133  0.00  0.00    +0.000 A 
ATOM     21  C   UNL     1       0.864   8.984  20.213  0.00  0.00    +0.000 A 
ATOM     22  C   UNL     1       1.801   7.952  20.082  0.00  0.00    +0.000 A 
ATOM     23  C   UNL     1       2.455   7.740  18.869  0.00  0.00    +0.000 A 
ATOM     24  C   UNL     1       2.202   8.583  17.793  0.00  0.00    +0.000 A 
ATOM     25  C   UNL     1       1.296   9.639  17.933  0.00  0.00    +0.000 A 
ENDBRANCH   9  20
BRANCH   1  27
ATOM     26  C   UNL     1      -6.636  10.960  18.394  0.00  0.00    +0.000 C 
ATOM     27  O   UNL     1      -5.648  11.190  17.392  0.00  0.00    +0.000 OA
ENDBRANCH   1  27
BRANCH   7  28
ATOM     28  O   UNL     1      -2.017  13.890  20.282  0.00  0.00    +0.000 OA
BRANCH  28  29
ATOM     29  C   UNL     1      -2.986  13.822  21.326  0.00  0.00    +0.000 C 
BRANCH  29  30
ATOM     30  C   UNL     1      -2.503  14.364  22.656  0.00  0.00    +0.000 A 
ATOM     31  C   UNL     1      -1.270  15.009  22.836  0.00  0.00    +0.000 A 
ATOM     32  C   UNL     1      -0.894  15.462  24.101  0.00  0.00    +0.000 A 
ATOM     33  C   UNL     1      -1.734  15.277  25.199  0.00  0.00    +0.000 A 
ATOM     34  C   UNL     1      -2.960  14.644  25.033  0.00  0.00    +0.000 A 
ATOM     35  C   UNL     1      -3.344  14.193  23.771  0.00  0.00    +0.000 A 
ENDBRANCH  29  30
ENDBRANCH  28  29
ENDBRANCH   7  28
TORSDOF 6
ENDMDL
MODEL 8
REMARK VINA RESULT:      -6.8      7.532     10.840
REMARK  Name = 
REMARK  7 active torsions:
REMARK  status: ('A' for Active; 'I' for Inactive)
REMARK    1  A    between atoms: C_1  and  O_2
REMARK    2  A    between atoms: O_2  and  C_3
REMARK    3  A    between atoms: C_9  and  O_10
REMARK    4  A    between atoms: O_10  and  C_11
REMARK    5  A    between atoms: C_11  and  C_12
REMARK    6  A    between atoms: C_18  and  C_19
REMARK    7  A    between atoms: N_27  and  C_28
REMARK                            x       y       z     vdW  Elec       q    Type
REMARK                         _______ _______ _______ _____ _____    ______ ____
ROOT
ATOM      1  C   UNL     1       2.669  14.226  18.713  0.00  0.00    +0.000 A 
ATOM      2  C   UNL     1       2.412  15.508  19.177  0.00  0.00    +0.000 A 
ATOM      3  C   UNL     1       1.238  15.789  19.878  0.00  0.00    +0.000 A 
ATOM      4  C   UNL     1       0.275  14.773  20.069  0.00  0.00    +0.000 A 
ATOM      5  C   UNL     1       0.528  13.474  19.632  0.00  0.00    +0.000 A 
ATOM      6  C   UNL     1       1.730  13.210  18.928  0.00  0.00    +0.000 A 
ATOM      7  C   UNL     1      -0.566  12.664  20.040  0.00  0.00    +0.000 A 
ATOM      8  C   UNL     1      -1.488  13.465  20.713  0.00  0.00    +0.000 A 
ATOM      9  N   UNL     1      -0.970  14.775  20.715  0.00  0.00    +0.000 N 
ENDROOT
BRANCH   8  10
ATOM     10  C   UNL     1      -2.817  13.146  21.211  0.00  0.00    +0.000 C 
ATOM     11  O   UNL     1      -3.798  13.209  20.479  0.00  0.00    +0.000 OA
ATOM     12  N   UNL     1      -2.870  12.795  22.538  0.00  0.00    +0.000 N 
ATOM     13  C   UNL     1      -4.042  12.508  23.191  0.00  0.00    +0.000 A 
ATOM     14  N   UNL     1      -5.286  12.511  22.619  0.00  0.00    +0.000 NA
ATOM     15  N   UNL     1      -6.152  12.233  23.583  0.00  0.00    +0.000 NA
ATOM     16  N   UNL     1      -5.400  12.081  24.674  0.00  0.00    +0.000 N 
ATOM     17  N   UNL     1      -4.072  12.212  24.496  0.00  0.00    +0.000 NA
ATOM     18  H   UNL     1      -2.037  12.749  23.104  0.00  0.00    +0.000 HD
ATOM     19  H   UNL     1      -5.816  11.893  25.582  0.00  0.00    +0.000 HD
ENDBRANCH   8  10
BRANCH   9  20
ATOM     20  C   UNL     1      -1.542  15.940  21.342  0.00  0.00    +0.000 A 
ATOM     21  C   UNL     1      -2.387  16.803  20.633  0.00  0.00    +0.000 A 
ATOM     22  C   UNL     1      -2.991  17.888  21.279  0.00  0.00    +0.000 A 
ATOM     23  C   UNL     1      -2.781  18.107  22.640  0.00  0.00    +0.000 A 
ATOM     24  C   UNL     1      -1.936  17.263  23.352  0.00  0.00    +0.000 A 
ATOM     25  C   UNL     1      -1.300  16.203  22.700  0.00  0.00    +0.000 A 
ENDBRANCH   9  20
BRANCH   1  27
ATOM     26  C   UNL     1       4.855  14.820  18.042  0.00  0.00    +0.000 C 
ATOM     27  O   UNL     1       3.800  13.861  18.032  0.00  0.00    +0.000 OA
ENDBRANCH   1  27
BRANCH   7  28
ATOM     28  O   UNL     1      -0.598  11.327  19.784  0.00  0.00    +0.000 OA
BRANCH  28  29
ATOM     29  C   UNL     1       0.197  10.500  20.631  0.00  0.00    +0.000 C 
BRANCH  29  30
ATOM     30  C   UNL     1       0.973   9.426  19.895  0.00  0.00    +0.000 A 
ATOM     31  C   UNL     1       1.482   8.271  20.507  0.00  0.00    +0.000 A 
ATOM     32  C   UNL     1       2.202   7.339  19.758  0.00  0.00    +0.000 A 
ATOM     33  C   UNL     1       2.428   7.547  18.398  0.00  0.00    +0.000 A 
ATOM     34  C   UNL     1       1.925   8.685  17.778  0.00  0.00    +0.000 A 
ATOM     35  C   UNL     1       1.200   9.616  18.520  0.00  0.00    +0.000 A 
ENDBRANCH  29  30
ENDBRANCH  28  29
ENDBRANCH   7  28
TORSDOF 6
ENDMDL
MODEL 9
REMARK VINA RESULT:      -6.7      7.796     11.296
REMARK  Name = 
REMARK  7 active torsions:
REMARK  status: ('A' for Active; 'I' for Inactive)
REMARK    1  A    between atoms: C_1  and  O_2
REMARK    2  A    between atoms: O_2  and  C_3
REMARK    3  A    between atoms: C_9  and  O_10
REMARK    4  A    between atoms: O_10  and  C_11
REMARK    5  A    between atoms: C_11  and  C_12
REMARK    6  A    between atoms: C_18  and  C_19
REMARK    7  A    between atoms: N_27  and  C_28
REMARK                            x       y       z     vdW  Elec       q    Type
REMARK                         _______ _______ _______ _____ _____    ______ ____
ROOT
ATOM      1  C   UNL     1      -3.112  10.649  16.324  0.00  0.00    +0.000 A 
ATOM      2  C   UNL     1      -4.436  11.039  16.455  0.00  0.00    +0.000 A 
ATOM      3  C   UNL     1      -4.877  11.687  17.610  0.00  0.00    +0.000 A 
ATOM      4  C   UNL     1      -3.980  11.897  18.681  0.00  0.00    +0.000 A 
ATOM      5  C   UNL     1      -2.639  11.534  18.557  0.00  0.00    +0.000 A 
ATOM      6  C   UNL     1      -2.214  10.883  17.372  0.00  0.00    +0.000 A 
ATOM      7  C   UNL     1      -1.973  11.947  19.743  0.00  0.00    +0.000 A 
ATOM      8  C   UNL     1      -2.900  12.548  20.591  0.00  0.00    +0.000 A 
ATOM      9  N   UNL     1      -4.147  12.501  19.935  0.00  0.00    +0.000 N 
ENDROOT
BRANCH   8  10
ATOM     10  C   UNL     1      -2.751  13.018  21.960  0.00  0.00    +0.000 C 
ATOM     11  O   UNL     1      -2.810  12.241  22.905  0.00  0.00    +0.000 OA
ATOM     12  N   UNL     1      -2.558  14.372  22.090  0.00  0.00    +0.000 N 
ATOM     13  C   UNL     1      -2.445  14.999  23.304  0.00  0.00    +0.000 A 
ATOM     14  N   UNL     1      -2.484  14.375  24.522  0.00  0.00    +0.000 NA
ATOM     15  N   UNL     1      -2.390  15.324  25.443  0.00  0.00    +0.000 NA
ATOM     16  N   UNL     1      -2.302  16.458  24.746  0.00  0.00    +0.000 N 
ATOM     17  N   UNL     1      -2.303  16.327  23.406  0.00  0.00    +0.000 NA
ATOM     18  H   UNL     1      -2.509  14.977  21.284  0.00  0.00    +0.000 HD
ATOM     19  H   UNL     1      -2.254  17.361  25.209  0.00  0.00    +0.000 HD
ENDBRANCH   8  10
BRANCH   9  20
ATOM     20  C   UNL     1      -5.397  13.050  20.397  0.00  0.00    +0.000 A 
ATOM     21  C   UNL     1      -5.746  14.380  20.134  0.00  0.00    +0.000 A 
ATOM     22  C   UNL     1      -6.996  14.874  20.527  0.00  0.00    +0.000 A 
ATOM     23  C   UNL     1      -7.917  14.042  21.162  0.00  0.00    +0.000 A 
ATOM     24  C   UNL     1      -7.578  12.722  21.438  0.00  0.00    +0.000 A 
ATOM     25  C   UNL     1      -6.316  12.238  21.082  0.00  0.00    +0.000 A 
ENDBRANCH   9  20
BRANCH   1  27
ATOM     26  C   UNL     1      -3.387  10.113  14.039  0.00  0.00    +0.000 C 
ATOM     27  O   UNL     1      -2.594  10.024  15.221  0.00  0.00    +0.000 OA
ENDBRANCH   1  27
BRANCH   7  28
ATOM     28  O   UNL     1      -0.634  11.756  19.910  0.00  0.00    +0.000 OA
BRANCH  28  29
ATOM     29  C   UNL     1       0.078  11.237  18.789  0.00  0.00    +0.000 C 
BRANCH  29  30
ATOM     30  C   UNL     1       0.803   9.936  19.065  0.00  0.00    +0.000 A 
ATOM     31  C   UNL     1       0.793   9.283  20.307  0.00  0.00    +0.000 A 
ATOM     32  C   UNL     1       1.505   8.095  20.481  0.00  0.00    +0.000 A 
ATOM     33  C   UNL     1       2.237   7.547  19.428  0.00  0.00    +0.000 A 
ATOM     34  C   UNL     1       2.252   8.182  18.191  0.00  0.00    +0.000 A 
ATOM     35  C   UNL     1       1.538   9.366  18.009  0.00  0.00    +0.000 A 
ENDBRANCH  29  30
ENDBRANCH  28  29
ENDBRANCH   7  28
TORSDOF 6
ENDMDL
