MODEL 1
REMARK VINA RESULT:      -7.7      0.000      0.000
REMARK  Name = 
REMARK  11 active torsions:
REMARK  status: ('A' for Active; 'I' for Inactive)
REMARK    1  A    between atoms: C_1  and  S_2
REMARK    2  A    between atoms: S_2  and  C_3
REMARK    3  A    between atoms: C_6  and  C_7
REMARK    4  A    between atoms: C_7  and  C_8
REMARK    5  A    between atoms: C_10  and  C_11
REMARK    6  A    between atoms: C_13  and  C_14
REMARK    7  A    between atoms: C_14  and  O_15
REMARK    8  A    between atoms: C_16  and  O_17
REMARK    9  A    between atoms: C_18  and  O_19
REMARK   10  A    between atoms: C_20  and  O_21
REMARK   11  A    between atoms: C_27  and  C_28
REMARK                            x       y       z     vdW  Elec       q    Type
REMARK                         _______ _______ _______ _____ _____    ______ ____
ROOT
ATOM      1  C   UNL     1       1.425   9.292  19.412  0.00  0.00    +0.000 A 
ATOM      2  C   UNL     1       2.062   8.188  18.796  0.00  0.00    +0.000 A 
ATOM      3  C   UNL     1       2.177   6.952  19.449  0.00  0.00    +0.000 A 
ATOM      4  C   UNL     1       1.745   6.851  20.781  0.00  0.00    +0.000 A 
ATOM      5  C   UNL     1       1.174   7.948  21.423  0.00  0.00    +0.000 A 
ATOM      6  C   UNL     1       1.000   9.155  20.741  0.00  0.00    +0.000 A 
ATOM      7 CL   UNL     1       0.238  10.441  21.604  0.00  0.00    +0.000 Cl
ENDROOT
BRANCH   3   8
ATOM      8  C   UNL     1       2.667   5.735  18.678  0.00  0.00    +0.000 C 
ATOM      9  O   UNL     1       1.872   4.614  19.102  0.00  0.00    +0.000 OA
ATOM     10  C   UNL     1       2.117   3.436  18.327  0.00  0.00    +0.000 C 
ATOM     11  C   UNL     1       3.570   2.979  18.504  0.00  0.00    +0.000 C 
ATOM     12  C   UNL     1       4.524   4.129  18.135  0.00  0.00    +0.000 C 
ATOM     13  C   UNL     1       4.171   5.443  18.854  0.00  0.00    +0.000 C 
BRANCH  11  14
ATOM     14  O   UNL     1       3.821   1.819  17.706  0.00  0.00    +0.000 OA
ATOM     15  H   UNL     1       3.771   1.024  18.267  0.00  0.00    +0.000 HD
ENDBRANCH  11  14
BRANCH  12  16
ATOM     16  O   UNL     1       5.888   3.750  18.403  0.00  0.00    +0.000 OA
ATOM     17  H   UNL     1       6.018   2.841  18.069  0.00  0.00    +0.000 HD
ENDBRANCH  12  16
BRANCH  13  18
ATOM     18  O   UNL     1       4.965   6.520  18.336  0.00  0.00    +0.000 OA
ATOM     19  H   UNL     1       5.891   6.245  18.302  0.00  0.00    +0.000 HD
ENDBRANCH  13  18
BRANCH  10  20
ATOM     20  C   UNL     1       1.115   2.361  18.772  0.00  0.00    +0.000 C 
BRANCH  20  21
ATOM     21  O   UNL     1       0.353   2.797  19.894  0.00  0.00    +0.000 OA
ATOM     22  H   UNL     1       0.367   2.060  20.530  0.00  0.00    +0.000 HD
ENDBRANCH  20  21
ENDBRANCH  10  20
ENDBRANCH   3   8
BRANCH   1  23
ATOM     23  C   UNL     1       1.109  10.501  18.557  0.00  0.00    +0.000 C 
BRANCH  23  27
ATOM     24  C   UNL     1      -3.043  11.160  17.880  0.00  0.00    +0.000 A 
ATOM     25  N   UNL     1      -2.362  11.808  18.858  0.00  0.00    +0.000 NA
ATOM     26  N   UNL     1      -1.026  11.575  19.073  0.00  0.00    +0.000 NA
ATOM     27  C   UNL     1      -0.373  10.669  18.318  0.00  0.00    +0.000 A 
ATOM     28  C   UNL     1      -1.044   9.969  17.317  0.00  0.00    +0.000 A 
ATOM     29  C   UNL     1      -2.400  10.226  17.070  0.00  0.00    +0.000 A 
ATOM     30  C   UNL     1      -3.076   9.519  15.935  0.00  0.00    +0.000 C 
BRANCH  24  32
ATOM     31  C   UNL     1      -5.089  12.411  19.258  0.00  0.00    +0.000 C 
ATOM     32  S   UNL     1      -4.771  11.558  17.689  0.00  0.00    +0.000 S 
ENDBRANCH  24  32
ENDBRANCH  23  27
ENDBRANCH   1  23
TORSDOF 9
ENDMDL
MODEL 2
REMARK VINA RESULT:      -7.5      5.564      8.590
REMARK  Name = 
REMARK  11 active torsions:
REMARK  status: ('A' for Active; 'I' for Inactive)
REMARK    1  A    between atoms: C_1  and  S_2
REMARK    2  A    between atoms: S_2  and  C_3
REMARK    3  A    between atoms: C_6  and  C_7
REMARK    4  A    between atoms: C_7  and  C_8
REMARK    5  A    between atoms: C_10  and  C_11
REMARK    6  A    between atoms: C_13  and  C_14
REMARK    7  A    between atoms: C_14  and  O_15
REMARK    8  A    between atoms: C_16  and  O_17
REMARK    9  A    between atoms: C_18  and  O_19
REMARK   10  A    between atoms: C_20  and  O_21
REMARK   11  A    between atoms: C_27  and  C_28
REMARK                            x       y       z     vdW  Elec       q    Type
REMARK                         _______ _______ _______ _____ _____    ______ ____
ROOT
ATOM      1  C   UNL     1       4.219   4.735  18.362  0.00  0.00    +0.000 A 
ATOM      2  C   UNL     1       3.810   6.072  18.577  0.00  0.00    +0.000 A 
ATOM      3  C   UNL     1       2.520   6.377  19.037  0.00  0.00    +0.000 A 
ATOM      4  C   UNL     1       1.590   5.336  19.177  0.00  0.00    +0.000 A 
ATOM      5  C   UNL     1       1.959   4.019  18.907  0.00  0.00    +0.000 A 
ATOM      6  C   UNL     1       3.266   3.717  18.517  0.00  0.00    +0.000 A 
ATOM      7 CL   UNL     1       3.642   2.053  18.254  0.00  0.00    +0.000 Cl
ENDROOT
BRANCH   3   8
ATOM      8  C   UNL     1       2.189   7.800  19.465  0.00  0.00    +0.000 C 
ATOM      9  O   UNL     1       1.312   7.710  20.601  0.00  0.00    +0.000 OA
ATOM     10  C   UNL     1       1.060   8.981  21.209  0.00  0.00    +0.000 C 
ATOM     11  C   UNL     1       0.335   9.906  20.223  0.00  0.00    +0.000 C 
ATOM     12  C   UNL     1       1.159  10.031  18.929  0.00  0.00    +0.000 C 
ATOM     13  C   UNL     1       1.562   8.663  18.350  0.00  0.00    +0.000 C 
BRANCH  11  14
ATOM     14  O   UNL     1       0.112  11.185  20.822  0.00  0.00    +0.000 OA
ATOM     15  H   UNL     1       0.568  11.222  21.683  0.00  0.00    +0.000 HD
ENDBRANCH  11  14
BRANCH  12  16
ATOM     16  O   UNL     1       0.437  10.806  17.952  0.00  0.00    +0.000 OA
ATOM     17  H   UNL     1       1.080  11.378  17.488  0.00  0.00    +0.000 HD
ENDBRANCH  12  16
BRANCH  13  18
ATOM     18  O   UNL     1       2.480   8.836  17.261  0.00  0.00    +0.000 OA
ATOM     19  H   UNL     1       3.380   8.666  17.572  0.00  0.00    +0.000 HD
ENDBRANCH  13  18
BRANCH  10  20
ATOM     20  C   UNL     1       0.240   8.740  22.485  0.00  0.00    +0.000 C 
BRANCH  20  21
ATOM     21  O   UNL     1       0.462   9.770  23.444  0.00  0.00    +0.000 OA
ATOM     22  H   UNL     1       1.199  10.304  23.099  0.00  0.00    +0.000 HD
ENDBRANCH  20  21
ENDBRANCH  10  20
ENDBRANCH   3   8
BRANCH   1  23
ATOM     23  C   UNL     1       5.690   4.469  18.121  0.00  0.00    +0.000 C 
BRANCH  23  27
ATOM     24  C   UNL     1       6.927   4.752  14.057  0.00  0.00    +0.000 A 
ATOM     25  N   UNL     1       7.679   5.244  15.073  0.00  0.00    +0.000 NA
ATOM     26  N   UNL     1       7.261   5.158  16.378  0.00  0.00    +0.000 NA
ATOM     27  C   UNL     1       6.070   4.594  16.665  0.00  0.00    +0.000 A 
ATOM     28  C   UNL     1       5.261   4.095  15.645  0.00  0.00    +0.000 A 
ATOM     29  C   UNL     1       5.697   4.150  14.313  0.00  0.00    +0.000 A 
ATOM     30  C   UNL     1       4.845   3.532  13.246  0.00  0.00    +0.000 C 
BRANCH  24  32
ATOM     31  C   UNL     1       8.894   6.133  12.688  0.00  0.00    +0.000 C 
ATOM     32  S   UNL     1       7.585   4.910  12.406  0.00  0.00    +0.000 S 
ENDBRANCH  24  32
ENDBRANCH  23  27
ENDBRANCH   1  23
TORSDOF 9
ENDMDL
MODEL 3
REMARK VINA RESULT:      -7.5      1.325      1.680
REMARK  Name = 
REMARK  11 active torsions:
REMARK  status: ('A' for Active; 'I' for Inactive)
REMARK    1  A    between atoms: C_1  and  S_2
REMARK    2  A    between atoms: S_2  and  C_3
REMARK    3  A    between atoms: C_6  and  C_7
REMARK    4  A    between atoms: C_7  and  C_8
REMARK    5  A    between atoms: C_10  and  C_11
REMARK    6  A    between atoms: C_13  and  C_14
REMARK    7  A    between atoms: C_14  and  O_15
REMARK    8  A    between atoms: C_16  and  O_17
REMARK    9  A    between atoms: C_18  and  O_19
REMARK   10  A    between atoms: C_20  and  O_21
REMARK   11  A    between atoms: C_27  and  C_28
REMARK                            x       y       z     vdW  Elec       q    Type
REMARK                         _______ _______ _______ _____ _____    ______ ____
ROOT
ATOM      1  C   UNL     1       1.234   9.519  19.611  0.00  0.00    +0.000 A 
ATOM      2  C   UNL     1       2.007   8.626  18.832  0.00  0.00    +0.000 A 
ATOM      3  C   UNL     1       2.210   7.296  19.227  0.00  0.00    +0.000 A 
ATOM      4  C   UNL     1       1.724   6.883  20.478  0.00  0.00    +0.000 A 
ATOM      5  C   UNL     1       1.015   7.770  21.287  0.00  0.00    +0.000 A 
ATOM      6  C   UNL     1       0.758   9.072  20.853  0.00  0.00    +0.000 A 
ATOM      7 CL   UNL     1      -0.170  10.081  21.902  0.00  0.00    +0.000 Cl
ENDROOT
BRANCH   3   8
ATOM      8  C   UNL     1       2.856   6.312  18.262  0.00  0.00    +0.000 C 
ATOM      9  O   UNL     1       3.214   5.144  19.021  0.00  0.00    +0.000 OA
ATOM     10  C   UNL     1       3.678   4.069  18.198  0.00  0.00    +0.000 C 
ATOM     11  C   UNL     1       4.965   4.477  17.469  0.00  0.00    +0.000 C 
ATOM     12  C   UNL     1       4.718   5.765  16.663  0.00  0.00    +0.000 C 
ATOM     13  C   UNL     1       4.077   6.878  17.511  0.00  0.00    +0.000 C 
BRANCH  11  14
ATOM     14  O   UNL     1       5.410   3.413  16.624  0.00  0.00    +0.000 OA
ATOM     15  H   UNL     1       5.410   3.716  15.698  0.00  0.00    +0.000 HD
ENDBRANCH  11  14
BRANCH  12  16
ATOM     16  O   UNL     1       5.946   6.221  16.064  0.00  0.00    +0.000 OA
ATOM     17  H   UNL     1       5.716   6.761  15.283  0.00  0.00    +0.000 HD
ENDBRANCH  12  16
BRANCH  13  18
ATOM     18  O   UNL     1       3.697   7.981  16.675  0.00  0.00    +0.000 OA
ATOM     19  H   UNL     1       3.619   7.675  15.760  0.00  0.00    +0.000 HD
ENDBRANCH  13  18
BRANCH  10  20
ATOM     20  C   UNL     1       3.887   2.842  19.097  0.00  0.00    +0.000 C 
BRANCH  20  21
ATOM     21  O   UNL     1       5.241   2.742  19.528  0.00  0.00    +0.000 OA
ATOM     22  H   UNL     1       5.243   2.093  20.254  0.00  0.00    +0.000 HD
ENDBRANCH  20  21
ENDBRANCH  10  20
ENDBRANCH   3   8
BRANCH   1  23
ATOM     23  C   UNL     1       0.844  10.847  18.999  0.00  0.00    +0.000 C 
BRANCH  23  27
ATOM     24  C   UNL     1      -3.238  11.151  17.827  0.00  0.00    +0.000 A 
ATOM     25  N   UNL     1      -2.738  11.849  18.877  0.00  0.00    +0.000 NA
ATOM     26  N   UNL     1      -1.422  11.731  19.252  0.00  0.00    +0.000 NA
ATOM     27  C   UNL     1      -0.607  10.889  18.583  0.00  0.00    +0.000 A 
ATOM     28  C   UNL     1      -1.091  10.140  17.512  0.00  0.00    +0.000 A 
ATOM     29  C   UNL     1      -2.425  10.281  17.103  0.00  0.00    +0.000 A 
ATOM     30  C   UNL     1      -2.897   9.526  15.897  0.00  0.00    +0.000 C 
BRANCH  24  32
ATOM     31  C   UNL     1      -5.639  11.713  19.080  0.00  0.00    +0.000 C 
ATOM     32  S   UNL     1      -4.959  11.401  17.429  0.00  0.00    +0.000 S 
ENDBRANCH  24  32
ENDBRANCH  23  27
ENDBRANCH   1  23
TORSDOF 9
ENDMDL
MODEL 4
REMARK VINA RESULT:      -7.3      1.305      1.384
REMARK  Name = 
REMARK  11 active torsions:
REMARK  status: ('A' for Active; 'I' for Inactive)
REMARK    1  A    between atoms: C_1  and  S_2
REMARK    2  A    between atoms: S_2  and  C_3
REMARK    3  A    between atoms: C_6  and  C_7
REMARK    4  A    between atoms: C_7  and  C_8
REMARK    5  A    between atoms: C_10  and  C_11
REMARK    6  A    between atoms: C_13  and  C_14
REMARK    7  A    between atoms: C_14  and  O_15
REMARK    8  A    between atoms: C_16  and  O_17
REMARK    9  A    between atoms: C_18  and  O_19
REMARK   10  A    between atoms: C_20  and  O_21
REMARK   11  A    between atoms: C_27  and  C_28
REMARK                            x       y       z     vdW  Elec       q    Type
REMARK                         _______ _______ _______ _____ _____    ______ ____
ROOT
ATOM      1  C   UNL     1       0.955  10.064  19.847  0.00  0.00    +0.000 A 
ATOM      2  C   UNL     1       1.481   8.833  19.389  0.00  0.00    +0.000 A 
ATOM      3  C   UNL     1       1.618   7.732  20.247  0.00  0.00    +0.000 A 
ATOM      4  C   UNL     1       1.329   7.898  21.610  0.00  0.00    +0.000 A 
ATOM      5  C   UNL     1       0.871   9.124  22.089  0.00  0.00    +0.000 A 
ATOM      6  C   UNL     1       0.671  10.195  21.214  0.00  0.00    +0.000 A 
ATOM      7 CL   UNL     1       0.054  11.658  21.893  0.00  0.00    +0.000 Cl
ENDROOT
BRANCH   3   8
ATOM      8  C   UNL     1       1.977   6.369  19.672  0.00  0.00    +0.000 C 
ATOM      9  O   UNL     1       1.773   5.400  20.714  0.00  0.00    +0.000 OA
ATOM     10  C   UNL     1       1.911   4.051  20.253  0.00  0.00    +0.000 C 
ATOM     11  C   UNL     1       3.342   3.805  19.760  0.00  0.00    +0.000 C 
ATOM     12  C   UNL     1       3.699   4.834  18.671  0.00  0.00    +0.000 C 
ATOM     13  C   UNL     1       3.409   6.281  19.109  0.00  0.00    +0.000 C 
BRANCH  11  14
ATOM     14  O   UNL     1       3.470   2.467  19.271  0.00  0.00    +0.000 OA
ATOM     15  H   UNL     1       4.405   2.290  19.058  0.00  0.00    +0.000 HD
ENDBRANCH  11  14
BRANCH  12  16
ATOM     16  O   UNL     1       5.077   4.685  18.278  0.00  0.00    +0.000 OA
ATOM     17  H   UNL     1       5.591   5.394  18.714  0.00  0.00    +0.000 HD
ENDBRANCH  12  16
BRANCH  13  18
ATOM     18  O   UNL     1       3.580   7.177  18.001  0.00  0.00    +0.000 OA
ATOM     19  H   UNL     1       3.284   8.061  18.258  0.00  0.00    +0.000 HD
ENDBRANCH  13  18
BRANCH  10  20
ATOM     20  C   UNL     1       1.529   3.115  21.409  0.00  0.00    +0.000 C 
BRANCH  20  21
ATOM     21  O   UNL     1       2.686   2.568  22.034  0.00  0.00    +0.000 OA
ATOM     22  H   UNL     1       2.828   1.698  21.620  0.00  0.00    +0.000 HD
ENDBRANCH  20  21
ENDBRANCH  10  20
ENDBRANCH   3   8
BRANCH   1  23
ATOM     23  C   UNL     1       0.595  11.114  18.818  0.00  0.00    +0.000 C 
BRANCH  23  27
ATOM     24  C   UNL     1      -3.533  11.211  17.776  0.00  0.00    +0.000 A 
ATOM     25  N   UNL     1      -3.040  11.914  18.826  0.00  0.00    +0.000 NA
ATOM     26  N   UNL     1      -1.708  11.862  19.158  0.00  0.00    +0.000 NA
ATOM     27  C   UNL     1      -0.869  11.082  18.447  0.00  0.00    +0.000 A 
ATOM     28  C   UNL     1      -1.344  10.330  17.374  0.00  0.00    +0.000 A 
ATOM     29  C   UNL     1      -2.695  10.403  17.008  0.00  0.00    +0.000 A 
ATOM     30  C   UNL     1      -3.161   9.648  15.801  0.00  0.00    +0.000 C 
BRANCH  24  32
ATOM     31  C   UNL     1      -5.748  12.593  18.689  0.00  0.00    +0.000 C 
ATOM     32  S   UNL     1      -5.277  11.371  17.434  0.00  0.00    +0.000 S 
ENDBRANCH  24  32
ENDBRANCH  23  27
ENDBRANCH   1  23
TORSDOF 9
ENDMDL
MODEL 5
REMARK VINA RESULT:      -7.3      1.104      1.501
REMARK  Name = 
REMARK  11 active torsions:
REMARK  status: ('A' for Active; 'I' for Inactive)
REMARK    1  A    between atoms: C_1  and  S_2
REMARK    2  A    between atoms: S_2  and  C_3
REMARK    3  A    between atoms: C_6  and  C_7
REMARK    4  A    between atoms: C_7  and  C_8
REMARK    5  A    between atoms: C_10  and  C_11
REMARK    6  A    between atoms: C_13  and  C_14
REMARK    7  A    between atoms: C_14  and  O_15
REMARK    8  A    between atoms: C_16  and  O_17
REMARK    9  A    between atoms: C_18  and  O_19
REMARK   10  A    between atoms: C_20  and  O_21
REMARK   11  A    between atoms: C_27  and  C_28
REMARK                            x       y       z     vdW  Elec       q    Type
REMARK                         _______ _______ _______ _____ _____    ______ ____
ROOT
ATOM      1  C   UNL     1       1.347   9.418  19.144  0.00  0.00    +0.000 A 
ATOM      2  C   UNL     1       1.970   8.327  18.494  0.00  0.00    +0.000 A 
ATOM      3  C   UNL     1       2.195   7.112  19.158  0.00  0.00    +0.000 A 
ATOM      4  C   UNL     1       1.891   7.024  20.525  0.00  0.00    +0.000 A 
ATOM      5  C   UNL     1       1.337   8.112  21.196  0.00  0.00    +0.000 A 
ATOM      6  C   UNL     1       1.052   9.295  20.510  0.00  0.00    +0.000 A 
ATOM      7 CL   UNL     1       0.319  10.570  21.414  0.00  0.00    +0.000 Cl
ENDROOT
BRANCH   3   8
ATOM      8  C   UNL     1       2.662   5.896  18.368  0.00  0.00    +0.000 C 
ATOM      9  O   UNL     1       1.913   4.765  18.845  0.00  0.00    +0.000 OA
ATOM     10  C   UNL     1       2.134   3.585  18.065  0.00  0.00    +0.000 C 
ATOM     11  C   UNL     1       3.603   3.155  18.162  0.00  0.00    +0.000 C 
ATOM     12  C   UNL     1       4.513   4.319  17.730  0.00  0.00    +0.000 C 
ATOM     13  C   UNL     1       4.178   5.632  18.460  0.00  0.00    +0.000 C 
BRANCH  11  14
ATOM     14  O   UNL     1       3.829   1.994  17.359  0.00  0.00    +0.000 OA
ATOM     15  H   UNL     1       3.598   2.193  16.433  0.00  0.00    +0.000 HD
ENDBRANCH  11  14
BRANCH  12  16
ATOM     16  O   UNL     1       5.897   3.967  17.923  0.00  0.00    +0.000 OA
ATOM     17  H   UNL     1       6.115   4.109  18.865  0.00  0.00    +0.000 HD
ENDBRANCH  12  16
BRANCH  13  18
ATOM     18  O   UNL     1       4.922   6.719  17.890  0.00  0.00    +0.000 OA
ATOM     19  H   UNL     1       4.906   6.645  16.926  0.00  0.00    +0.000 HD
ENDBRANCH  13  18
BRANCH  10  20
ATOM     20  C   UNL     1       1.178   2.496  18.575  0.00  0.00    +0.000 C 
BRANCH  20  21
ATOM     21  O   UNL     1       1.894   1.412  19.159  0.00  0.00    +0.000 OA
ATOM     22  H   UNL     1       2.594   1.180  18.523  0.00  0.00    +0.000 HD
ENDBRANCH  20  21
ENDBRANCH  10  20
ENDBRANCH   3   8
BRANCH   1  23
ATOM     23  C   UNL     1       0.905  10.594  18.299  0.00  0.00    +0.000 C 
BRANCH  23  27
ATOM     24  C   UNL     1      -3.346  10.826  18.198  0.00  0.00    +0.000 A 
ATOM     25  N   UNL     1      -2.657   9.932  17.446  0.00  0.00    +0.000 NA
ATOM     26  N   UNL     1      -1.285   9.878  17.479  0.00  0.00    +0.000 NA
ATOM     27  C   UNL     1      -0.598  10.741  18.254  0.00  0.00    +0.000 A 
ATOM     28  C   UNL     1      -1.271  11.687  19.025  0.00  0.00    +0.000 A 
ATOM     29  C   UNL     1      -2.672  11.726  19.022  0.00  0.00    +0.000 A 
ATOM     30  C   UNL     1      -3.372  12.698  19.923  0.00  0.00    +0.000 C 
BRANCH  24  32
ATOM     31  C   UNL     1      -5.413  12.192  16.969  0.00  0.00    +0.000 C 
ATOM     32  S   UNL     1      -5.126  10.789  18.081  0.00  0.00    +0.000 S 
ENDBRANCH  24  32
ENDBRANCH  23  27
ENDBRANCH   1  23
TORSDOF 9
ENDMDL
MODEL 6
REMARK VINA RESULT:      -7.3      2.696      3.613
REMARK  Name = 
REMARK  11 active torsions:
REMARK  status: ('A' for Active; 'I' for Inactive)
REMARK    1  A    between atoms: C_1  and  S_2
REMARK    2  A    between atoms: S_2  and  C_3
REMARK    3  A    between atoms: C_6  and  C_7
REMARK    4  A    between atoms: C_7  and  C_8
REMARK    5  A    between atoms: C_10  and  C_11
REMARK    6  A    between atoms: C_13  and  C_14
REMARK    7  A    between atoms: C_14  and  O_15
REMARK    8  A    between atoms: C_16  and  O_17
REMARK    9  A    between atoms: C_18  and  O_19
REMARK   10  A    between atoms: C_20  and  O_21
REMARK   11  A    between atoms: C_27  and  C_28
REMARK                            x       y       z     vdW  Elec       q    Type
REMARK                         _______ _______ _______ _____ _____    ______ ____
ROOT
ATOM      1  C   UNL     1       1.121   9.202  19.103  0.00  0.00    +0.000 A 
ATOM      2  C   UNL     1       1.801   8.111  18.513  0.00  0.00    +0.000 A 
ATOM      3  C   UNL     1       2.201   7.001  19.271  0.00  0.00    +0.000 A 
ATOM      4  C   UNL     1       2.014   7.032  20.662  0.00  0.00    +0.000 A 
ATOM      5  C   UNL     1       1.403   8.128  21.268  0.00  0.00    +0.000 A 
ATOM      6  C   UNL     1       0.946   9.198  20.495  0.00  0.00    +0.000 A 
ATOM      7 CL   UNL     1       0.157  10.488  21.329  0.00  0.00    +0.000 Cl
ENDROOT
BRANCH   3   8
ATOM      8  C   UNL     1       2.729   5.758  18.568  0.00  0.00    +0.000 C 
ATOM      9  O   UNL     1       1.958   4.640  19.043  0.00  0.00    +0.000 OA
ATOM     10  C   UNL     1       2.240   3.430  18.332  0.00  0.00    +0.000 C 
ATOM     11  C   UNL     1       3.703   3.020  18.545  0.00  0.00    +0.000 C 
ATOM     12  C   UNL     1       4.631   4.174  18.124  0.00  0.00    +0.000 C 
ATOM     13  C   UNL     1       4.238   5.514  18.771  0.00  0.00    +0.000 C 
BRANCH  11  14
ATOM     14  O   UNL     1       3.991   1.828  17.809  0.00  0.00    +0.000 OA
ATOM     15  H   UNL     1       3.608   1.900  16.916  0.00  0.00    +0.000 HD
ENDBRANCH  11  14
BRANCH  12  16
ATOM     16  O   UNL     1       6.002   3.845  18.423  0.00  0.00    +0.000 OA
ATOM     17  H   UNL     1       6.003   3.034  18.969  0.00  0.00    +0.000 HD
ENDBRANCH  12  16
BRANCH  13  18
ATOM     18  O   UNL     1       5.009   6.583  18.205  0.00  0.00    +0.000 OA
ATOM     19  H   UNL     1       4.491   7.400  18.235  0.00  0.00    +0.000 HD
ENDBRANCH  13  18
BRANCH  10  20
ATOM     20  C   UNL     1       1.261   2.354  18.824  0.00  0.00    +0.000 C 
BRANCH  20  21
ATOM     21  O   UNL     1       0.418   2.855  19.857  0.00  0.00    +0.000 OA
ATOM     22  H   UNL     1       0.500   2.229  20.597  0.00  0.00    +0.000 HD
ENDBRANCH  20  21
ENDBRANCH  10  20
ENDBRANCH   3   8
BRANCH   1  23
ATOM     23  C   UNL     1       0.495  10.233  18.188  0.00  0.00    +0.000 C 
BRANCH  23  27
ATOM     24  C   UNL     1       2.323  14.068  18.479  0.00  0.00    +0.000 A 
ATOM     25  N   UNL     1       3.036  12.952  18.184  0.00  0.00    +0.000 NA
ATOM     26  N   UNL     1       2.435  11.720  18.107  0.00  0.00    +0.000 NA
ATOM     27  C   UNL     1       1.114  11.601  18.349  0.00  0.00    +0.000 A 
ATOM     28  C   UNL     1       0.353  12.723  18.675  0.00  0.00    +0.000 A 
ATOM     29  C   UNL     1       0.953  13.989  18.723  0.00  0.00    +0.000 A 
ATOM     30  C   UNL     1       0.095  15.187  18.995  0.00  0.00    +0.000 C 
BRANCH  24  32
ATOM     31  C   UNL     1       4.828  15.087  17.901  0.00  0.00    +0.000 C 
ATOM     32  S   UNL     1       3.213  15.613  18.536  0.00  0.00    +0.000 S 
ENDBRANCH  24  32
ENDBRANCH  23  27
ENDBRANCH   1  23
TORSDOF 9
ENDMDL
MODEL 7
REMARK VINA RESULT:      -7.2      2.899      4.372
REMARK  Name = 
REMARK  11 active torsions:
REMARK  status: ('A' for Active; 'I' for Inactive)
REMARK    1  A    between atoms: C_1  and  S_2
REMARK    2  A    between atoms: S_2  and  C_3
REMARK    3  A    between atoms: C_6  and  C_7
REMARK    4  A    between atoms: C_7  and  C_8
REMARK    5  A    between atoms: C_10  and  C_11
REMARK    6  A    between atoms: C_13  and  C_14
REMARK    7  A    between atoms: C_14  and  O_15
REMARK    8  A    between atoms: C_16  and  O_17
REMARK    9  A    between atoms: C_18  and  O_19
REMARK   10  A    between atoms: C_20  and  O_21
REMARK   11  A    between atoms: C_27  and  C_28
REMARK                            x       y       z     vdW  Elec       q    Type
REMARK                         _______ _______ _______ _____ _____    ______ ____
ROOT
ATOM      1  C   UNL     1       1.016   9.302  19.249  0.00  0.00    +0.000 A 
ATOM      2  C   UNL     1       1.922   8.302  18.822  0.00  0.00    +0.000 A 
ATOM      3  C   UNL     1       2.279   7.233  19.656  0.00  0.00    +0.000 A 
ATOM      4  C   UNL     1       1.808   7.223  20.978  0.00  0.00    +0.000 A 
ATOM      5  C   UNL     1       0.965   8.235  21.435  0.00  0.00    +0.000 A 
ATOM      6  C   UNL     1       0.560   9.259  20.575  0.00  0.00    +0.000 A 
ATOM      7 CL   UNL     1      -0.524  10.440  21.216  0.00  0.00    +0.000 Cl
ENDROOT
BRANCH   3   8
ATOM      8  C   UNL     1       3.077   6.068  19.089  0.00  0.00    +0.000 C 
ATOM      9  O   UNL     1       4.039   6.616  18.172  0.00  0.00    +0.000 OA
ATOM     10  C   UNL     1       4.971   5.640  17.695  0.00  0.00    +0.000 C 
ATOM     11  C   UNL     1       4.237   4.555  16.896  0.00  0.00    +0.000 C 
ATOM     12  C   UNL     1       3.130   3.931  17.764  0.00  0.00    +0.000 C 
ATOM     13  C   UNL     1       2.214   4.989  18.403  0.00  0.00    +0.000 C 
BRANCH  11  14
ATOM     14  O   UNL     1       5.165   3.564  16.446  0.00  0.00    +0.000 OA
ATOM     15  H   UNL     1       4.813   2.678  16.649  0.00  0.00    +0.000 HD
ENDBRANCH  11  14
BRANCH  12  16
ATOM     16  O   UNL     1       2.361   2.990  16.990  0.00  0.00    +0.000 OA
ATOM     17  H   UNL     1       2.538   2.096  17.344  0.00  0.00    +0.000 HD
ENDBRANCH  12  16
BRANCH  13  18
ATOM     18  O   UNL     1       1.324   4.372  19.344  0.00  0.00    +0.000 OA
ATOM     19  H   UNL     1       0.647   3.876  18.864  0.00  0.00    +0.000 HD
ENDBRANCH  13  18
BRANCH  10  20
ATOM     20  C   UNL     1       6.026   6.367  16.849  0.00  0.00    +0.000 C 
BRANCH  20  21
ATOM     21  O   UNL     1       5.685   6.346  15.467  0.00  0.00    +0.000 OA
ATOM     22  H   UNL     1       6.189   5.610  15.077  0.00  0.00    +0.000 HD
ENDBRANCH  20  21
ENDBRANCH  10  20
ENDBRANCH   3   8
BRANCH   1  23
ATOM     23  C   UNL     1       0.481  10.270  18.215  0.00  0.00    +0.000 C 
BRANCH  23  27
ATOM     24  C   UNL     1       2.152  14.174  18.522  0.00  0.00    +0.000 A 
ATOM     25  N   UNL     1       2.917  13.083  18.267  0.00  0.00    +0.000 NA
ATOM     26  N   UNL     1       2.365  11.828  18.184  0.00  0.00    +0.000 NA
ATOM     27  C   UNL     1       1.042  11.662  18.381  0.00  0.00    +0.000 A 
ATOM     28  C   UNL     1       0.228  12.758  18.665  0.00  0.00    +0.000 A 
ATOM     29  C   UNL     1       0.778  14.046  18.718  0.00  0.00    +0.000 A 
ATOM     30  C   UNL     1      -0.133  15.214  18.943  0.00  0.00    +0.000 C 
BRANCH  24  32
ATOM     31  C   UNL     1       4.591  15.311  17.883  0.00  0.00    +0.000 C 
ATOM     32  S   UNL     1       2.981  15.752  18.590  0.00  0.00    +0.000 S 
ENDBRANCH  24  32
ENDBRANCH  23  27
ENDBRANCH   1  23
TORSDOF 9
ENDMDL
MODEL 8
REMARK VINA RESULT:      -7.2      1.193      2.581
REMARK  Name = 
REMARK  11 active torsions:
REMARK  status: ('A' for Active; 'I' for Inactive)
REMARK    1  A    between atoms: C_1  and  S_2
REMARK    2  A    between atoms: S_2  and  C_3
REMARK    3  A    between atoms: C_6  and  C_7
REMARK    4  A    between atoms: C_7  and  C_8
REMARK    5  A    between atoms: C_10  and  C_11
REMARK    6  A    between atoms: C_13  and  C_14
REMARK    7  A    between atoms: C_14  and  O_15
REMARK    8  A    between atoms: C_16  and  O_17
REMARK    9  A    between atoms: C_18  and  O_19
REMARK   10  A    between atoms: C_20  and  O_21
REMARK   11  A    between atoms: C_27  and  C_28
REMARK                            x       y       z     vdW  Elec       q    Type
REMARK                         _______ _______ _______ _____ _____    ______ ____
ROOT
ATOM      1  C   UNL     1       1.187   9.459  19.629  0.00  0.00    +0.000 A 
ATOM      2  C   UNL     1       2.074   8.466  19.149  0.00  0.00    +0.000 A 
ATOM      3  C   UNL     1       2.188   7.220  19.781  0.00  0.00    +0.000 A 
ATOM      4  C   UNL     1       1.485   7.003  20.977  0.00  0.00    +0.000 A 
ATOM      5  C   UNL     1       0.657   7.995  21.498  0.00  0.00    +0.000 A 
ATOM      6  C   UNL     1       0.495   9.207  20.823  0.00  0.00    +0.000 A 
ATOM      7 CL   UNL     1      -0.590  10.355  21.520  0.00  0.00    +0.000 Cl
ENDROOT
BRANCH   3   8
ATOM      8  C   UNL     1       2.982   6.105  19.113  0.00  0.00    +0.000 C 
ATOM      9  O   UNL     1       3.879   6.724  18.175  0.00  0.00    +0.000 OA
ATOM     10  C   UNL     1       4.806   5.798  17.600  0.00  0.00    +0.000 C 
ATOM     11  C   UNL     1       4.056   4.735  16.787  0.00  0.00    +0.000 C 
ATOM     12  C   UNL     1       3.014   4.039  17.680  0.00  0.00    +0.000 C 
ATOM     13  C   UNL     1       2.108   5.039  18.421  0.00  0.00    +0.000 C 
BRANCH  11  14
ATOM     14  O   UNL     1       4.982   3.793  16.239  0.00  0.00    +0.000 OA
ATOM     15  H   UNL     1       4.857   3.744  15.273  0.00  0.00    +0.000 HD
ENDBRANCH  11  14
BRANCH  12  16
ATOM     16  O   UNL     1       2.227   3.117  16.902  0.00  0.00    +0.000 OA
ATOM     17  H   UNL     1       2.832   2.639  16.301  0.00  0.00    +0.000 HD
ENDBRANCH  12  16
BRANCH  13  18
ATOM     18  O   UNL     1       1.287   4.352  19.376  0.00  0.00    +0.000 OA
ATOM     19  H   UNL     1       0.487   4.033  18.937  0.00  0.00    +0.000 HD
ENDBRANCH  13  18
BRANCH  10  20
ATOM     20  C   UNL     1       5.796   6.594  16.737  0.00  0.00    +0.000 C 
BRANCH  20  21
ATOM     21  O   UNL     1       5.387   6.620  15.373  0.00  0.00    +0.000 OA
ATOM     22  H   UNL     1       5.909   7.325  14.950  0.00  0.00    +0.000 HD
ENDBRANCH  20  21
ENDBRANCH  10  20
ENDBRANCH   3   8
BRANCH   1  23
ATOM     23  C   UNL     1       0.926  10.666  18.754  0.00  0.00    +0.000 C 
BRANCH  23  27
ATOM     24  C   UNL     1      -3.150  11.223  17.655  0.00  0.00    +0.000 A 
ATOM     25  N   UNL     1      -2.567  11.945  18.644  0.00  0.00    +0.000 NA
ATOM     26  N   UNL     1      -1.255  11.745  18.997  0.00  0.00    +0.000 NA
ATOM     27  C   UNL     1      -0.528  10.799  18.369  0.00  0.00    +0.000 A 
ATOM     28  C   UNL     1      -1.100  10.024  17.361  0.00  0.00    +0.000 A 
ATOM     29  C   UNL     1      -2.429  10.245  16.973  0.00  0.00    +0.000 A 
ATOM     30  C   UNL     1      -2.991   9.454  15.831  0.00  0.00    +0.000 C 
BRANCH  24  32
ATOM     31  C   UNL     1      -5.485  11.971  18.935  0.00  0.00    +0.000 C 
ATOM     32  S   UNL     1      -4.856  11.585  17.278  0.00  0.00    +0.000 S 
ENDBRANCH  24  32
ENDBRANCH  23  27
ENDBRANCH   1  23
TORSDOF 9
ENDMDL
MODEL 9
REMARK VINA RESULT:      -7.0      2.955      3.999
REMARK  Name = 
REMARK  11 active torsions:
REMARK  status: ('A' for Active; 'I' for Inactive)
REMARK    1  A    between atoms: C_1  and  S_2
REMARK    2  A    between atoms: S_2  and  C_3
REMARK    3  A    between atoms: C_6  and  C_7
REMARK    4  A    between atoms: C_7  and  C_8
REMARK    5  A    between atoms: C_10  and  C_11
REMARK    6  A    between atoms: C_13  and  C_14
REMARK    7  A    between atoms: C_14  and  O_15
REMARK    8  A    between atoms: C_16  and  O_17
REMARK    9  A    between atoms: C_18  and  O_19
REMARK   10  A    between atoms: C_20  and  O_21
REMARK   11  A    between atoms: C_27  and  C_28
REMARK                            x       y       z     vdW  Elec       q    Type
REMARK                         _______ _______ _______ _____ _____    ______ ____
ROOT
ATOM      1  C   UNL     1       0.890   9.494  19.258  0.00  0.00    +0.000 A 
ATOM      2  C   UNL     1       1.692   8.605  18.504  0.00  0.00    +0.000 A 
ATOM      3  C   UNL     1       2.227   7.440  19.074  0.00  0.00    +0.000 A 
ATOM      4  C   UNL     1       2.047   7.218  20.448  0.00  0.00    +0.000 A 
ATOM      5  C   UNL     1       1.313   8.118  21.219  0.00  0.00    +0.000 A 
ATOM      6  C   UNL     1       0.725   9.239  20.627  0.00  0.00    +0.000 A 
ATOM      7 CL   UNL     1      -0.207  10.269  21.653  0.00  0.00    +0.000 Cl
ENDROOT
BRANCH   3   8
ATOM      8  C   UNL     1       2.895   6.403  18.182  0.00  0.00    +0.000 C 
ATOM      9  O   UNL     1       3.223   5.275  19.012  0.00  0.00    +0.000 OA
ATOM     10  C   UNL     1       3.704   4.156  18.262  0.00  0.00    +0.000 C 
ATOM     11  C   UNL     1       5.015   4.518  17.553  0.00  0.00    +0.000 C 
ATOM     12  C   UNL     1       4.802   5.763  16.672  0.00  0.00    +0.000 C 
ATOM     13  C   UNL     1       4.143   6.923  17.440  0.00  0.00    +0.000 C 
BRANCH  11  14
ATOM     14  O   UNL     1       5.479   3.409  16.779  0.00  0.00    +0.000 OA
ATOM     15  H   UNL     1       5.934   3.739  15.983  0.00  0.00    +0.000 HD
ENDBRANCH  11  14
BRANCH  12  16
ATOM     16  O   UNL     1       6.051   6.180  16.089  0.00  0.00    +0.000 OA
ATOM     17  H   UNL     1       6.354   6.977  16.567  0.00  0.00    +0.000 HD
ENDBRANCH  12  16
BRANCH  13  18
ATOM     18  O   UNL     1       3.796   7.982  16.536  0.00  0.00    +0.000 OA
ATOM     19  H   UNL     1       4.564   8.555  16.407  0.00  0.00    +0.000 HD
ENDBRANCH  13  18
BRANCH  10  20
ATOM     20  C   UNL     1       3.878   2.977  19.231  0.00  0.00    +0.000 C 
BRANCH  20  21
ATOM     21  O   UNL     1       5.249   2.775  19.558  0.00  0.00    +0.000 OA
ATOM     22  H   UNL     1       5.752   3.398  19.005  0.00  0.00    +0.000 HD
ENDBRANCH  20  21
ENDBRANCH  10  20
ENDBRANCH   3   8
BRANCH   1  23
ATOM     23  C   UNL     1       0.139  10.581  18.517  0.00  0.00    +0.000 C 
BRANCH  23  27
ATOM     24  C   UNL     1       2.181  14.317  18.570  0.00  0.00    +0.000 A 
ATOM     25  N   UNL     1       2.829  13.147  18.343  0.00  0.00    +0.000 NA
ATOM     26  N   UNL     1       2.159  11.948  18.343  0.00  0.00    +0.000 NA
ATOM     27  C   UNL     1       0.835  11.919  18.594  0.00  0.00    +0.000 A 
ATOM     28  C   UNL     1       0.139  13.100  18.851  0.00  0.00    +0.000 A 
ATOM     29  C   UNL     1       0.810  14.331  18.821  0.00  0.00    +0.000 A 
ATOM     30  C   UNL     1       0.023  15.590  19.020  0.00  0.00    +0.000 C 
BRANCH  24  32
ATOM     31  C   UNL     1       4.733  15.158  17.913  0.00  0.00    +0.000 C 
ATOM     32  S   UNL     1       3.157  15.810  18.531  0.00  0.00    +0.000 S 
ENDBRANCH  24  32
ENDBRANCH  23  27
ENDBRANCH   1  23
TORSDOF 9
ENDMDL
