MODEL 1
REMARK VINA RESULT:      -8.3      0.000      0.000
REMARK  Name = 
REMARK  6 active torsions:
REMARK  status: ('A' for Active; 'I' for Inactive)
REMARK    1  A    between atoms: O_1  and  C_2
REMARK    2  A    between atoms: C_2  and  C_3
REMARK    3  A    between atoms: C_3  and  N_4
REMARK    4  A    between atoms: C_6  and  C_7
REMARK    5  A    between atoms: N_13  and  C_14
REMARK    6  A    between atoms: C_14  and  C_15
REMARK                            x       y       z     vdW  Elec       q    Type
REMARK                         _______ _______ _______ _____ _____    ______ ____
ROOT
ATOM      1  C   UNL     1       5.687   4.882  15.482  0.00  0.00    +0.000 A 
ATOM      2  C   UNL     1       6.771   5.473  16.146  0.00  0.00    +0.000 A 
ATOM      3  N   UNL     1       6.871   5.601  17.485  0.00  0.00    +0.000 NA
ATOM      4  C   UNL     1       5.855   4.980  18.122  0.00  0.00    +0.000 A 
ATOM      5  N   UNL     1       5.951   4.450  19.370  0.00  0.00    +0.000 NA
ATOM      6  C   UNL     1       4.915   3.647  19.451  0.00  0.00    +0.000 A 
ATOM      7  N   UNL     1       3.950   3.970  18.500  0.00  0.00    +0.000 N 
ATOM      8  C   UNL     1       4.695   4.541  17.469  0.00  0.00    +0.000 A 
ATOM      9  N   UNL     1       4.525   4.491  16.115  0.00  0.00    +0.000 NA
ENDROOT
BRANCH   1  12
ATOM     10  N   UNL     1       5.878   3.218  12.261  0.00  0.00    +0.000 N 
ATOM     11  C   UNL     1       5.148   3.536  13.380  0.00  0.00    +0.000 A 
ATOM     12  C   UNL     1       5.942   4.378  14.134  0.00  0.00    +0.000 A 
ATOM     13  C   UNL     1       7.109   4.547  13.337  0.00  0.00    +0.000 A 
ATOM     14  N   UNL     1       7.057   3.857  12.194  0.00  0.00    +0.000 NA
BRANCH  10  15
ATOM     15  C   UNL     1       5.580   2.194  11.283  0.00  0.00    +0.000 C 
BRANCH  15  16
ATOM     16  C   UNL     1       6.729   1.202  11.181  0.00  0.00    +0.000 C 
BRANCH  16  17
ATOM     17  O   UNL     1       6.244  -0.131  11.319  0.00  0.00    +0.000 OA
ATOM     18  H   UNL     1       6.305  -0.545  10.440  0.00  0.00    +0.000 HD
ENDBRANCH  16  17
ENDBRANCH  15  16
ENDBRANCH  10  15
ENDBRANCH   1  12
BRANCH   7  19
ATOM     19  C   UNL     1       2.663   4.447  19.024  0.00  0.00    +0.000 C 
BRANCH  19  20
ATOM     20  C   UNL     1       2.455   5.950  19.137  0.00  0.00    +0.000 A 
ATOM     21  C   UNL     1       2.495   6.737  17.974  0.00  0.00    +0.000 A 
ATOM     22  C   UNL     1       2.116   8.089  17.998  0.00  0.00    +0.000 A 
ATOM     23  C   UNL     1       1.689   8.693  19.175  0.00  0.00    +0.000 A 
ATOM     24  N   UNL     1       1.286   9.978  19.143  0.00  0.00    +0.000 NA
ATOM     25  C   UNL     1       0.832  10.524  20.290  0.00  0.00    +0.000 A 
ATOM     26  C   UNL     1       0.768   9.848  21.493  0.00  0.00    +0.000 A 
ATOM     27  C   UNL     1       1.192   8.525  21.522  0.00  0.00    +0.000 A 
ATOM     28  C   UNL     1       1.662   7.912  20.352  0.00  0.00    +0.000 A 
ATOM     29  C   UNL     1       2.048   6.557  20.330  0.00  0.00    +0.000 A 
ENDBRANCH  19  20
ENDBRANCH   7  19
TORSDOF 6
ENDMDL
MODEL 2
REMARK VINA RESULT:      -8.3      4.677      7.080
REMARK  Name = 
REMARK  6 active torsions:
REMARK  status: ('A' for Active; 'I' for Inactive)
REMARK    1  A    between atoms: O_1  and  C_2
REMARK    2  A    between atoms: C_2  and  C_3
REMARK    3  A    between atoms: C_3  and  N_4
REMARK    4  A    between atoms: C_6  and  C_7
REMARK    5  A    between atoms: N_13  and  C_14
REMARK    6  A    between atoms: C_14  and  C_15
REMARK                            x       y       z     vdW  Elec       q    Type
REMARK                         _______ _______ _______ _____ _____    ______ ____
ROOT
ATOM      1  C   UNL     1       7.874   8.133  18.271  0.00  0.00    +0.000 A 
ATOM      2  C   UNL     1       8.396   7.179  19.157  0.00  0.00    +0.000 A 
ATOM      3  N   UNL     1       8.240   5.846  19.026  0.00  0.00    +0.000 NA
ATOM      4  C   UNL     1       7.622   5.529  17.867  0.00  0.00    +0.000 A 
ATOM      5  N   UNL     1       7.815   4.362  17.197  0.00  0.00    +0.000 NA
ATOM      6  C   UNL     1       7.347   4.609  15.995  0.00  0.00    +0.000 A 
ATOM      7  N   UNL     1       6.489   5.707  16.003  0.00  0.00    +0.000 N 
ATOM      8  C   UNL     1       6.955   6.471  17.071  0.00  0.00    +0.000 A 
ATOM      9  N   UNL     1       7.014   7.825  17.238  0.00  0.00    +0.000 NA
ENDROOT
BRANCH   1  12
ATOM     10  N   UNL     1       9.733  11.209  18.787  0.00  0.00    +0.000 N 
ATOM     11  C   UNL     1       9.580   9.868  19.044  0.00  0.00    +0.000 A 
ATOM     12  C   UNL     1       8.528   9.440  18.259  0.00  0.00    +0.000 A 
ATOM     13  C   UNL     1       8.162  10.601  17.521  0.00  0.00    +0.000 A 
ATOM     14  N   UNL     1       8.908  11.666  17.830  0.00  0.00    +0.000 NA
BRANCH  10  15
ATOM     15  C   UNL     1      10.544  12.155  19.521  0.00  0.00    +0.000 C 
BRANCH  15  16
ATOM     16  C   UNL     1      11.570  12.805  18.605  0.00  0.00    +0.000 C 
BRANCH  16  17
ATOM     17  O   UNL     1      12.047  11.861  17.650  0.00  0.00    +0.000 OA
ATOM     18  H   UNL     1      12.762  12.299  17.155  0.00  0.00    +0.000 HD
ENDBRANCH  16  17
ENDBRANCH  15  16
ENDBRANCH  10  15
ENDBRANCH   1  12
BRANCH   7  19
ATOM     19  C   UNL     1       5.086   5.429  15.666  0.00  0.00    +0.000 C 
BRANCH  19  20
ATOM     20  C   UNL     1       4.200   4.830  16.749  0.00  0.00    +0.000 A 
ATOM     21  C   UNL     1       4.210   3.440  16.951  0.00  0.00    +0.000 A 
ATOM     22  C   UNL     1       3.567   2.863  18.057  0.00  0.00    +0.000 A 
ATOM     23  C   UNL     1       2.898   3.648  18.989  0.00  0.00    +0.000 A 
ATOM     24  N   UNL     1       2.339   3.058  20.063  0.00  0.00    +0.000 NA
ATOM     25  C   UNL     1       1.738   3.850  20.975  0.00  0.00    +0.000 A 
ATOM     26  C   UNL     1       1.653   5.224  20.866  0.00  0.00    +0.000 A 
ATOM     27  C   UNL     1       2.226   5.827  19.752  0.00  0.00    +0.000 A 
ATOM     28  C   UNL     1       2.870   5.046  18.783  0.00  0.00    +0.000 A 
ATOM     29  C   UNL     1       3.510   5.626  17.670  0.00  0.00    +0.000 A 
ENDBRANCH  19  20
ENDBRANCH   7  19
TORSDOF 6
ENDMDL
MODEL 3
REMARK VINA RESULT:      -8.3      4.783      7.268
REMARK  Name = 
REMARK  6 active torsions:
REMARK  status: ('A' for Active; 'I' for Inactive)
REMARK    1  A    between atoms: O_1  and  C_2
REMARK    2  A    between atoms: C_2  and  C_3
REMARK    3  A    between atoms: C_3  and  N_4
REMARK    4  A    between atoms: C_6  and  C_7
REMARK    5  A    between atoms: N_13  and  C_14
REMARK    6  A    between atoms: C_14  and  C_15
REMARK                            x       y       z     vdW  Elec       q    Type
REMARK                         _______ _______ _______ _____ _____    ______ ____
ROOT
ATOM      1  C   UNL     1       7.918   8.283  18.284  0.00  0.00    +0.000 A 
ATOM      2  C   UNL     1       8.442   7.329  19.168  0.00  0.00    +0.000 A 
ATOM      3  N   UNL     1       8.266   5.997  19.049  0.00  0.00    +0.000 NA
ATOM      4  C   UNL     1       7.624   5.680  17.904  0.00  0.00    +0.000 A 
ATOM      5  N   UNL     1       7.791   4.506  17.239  0.00  0.00    +0.000 NA
ATOM      6  C   UNL     1       7.304   4.751  16.044  0.00  0.00    +0.000 A 
ATOM      7  N   UNL     1       6.461   5.860  16.058  0.00  0.00    +0.000 N 
ATOM      8  C   UNL     1       6.957   6.625  17.113  0.00  0.00    +0.000 A 
ATOM      9  N   UNL     1       7.036   7.979  17.269  0.00  0.00    +0.000 NA
ENDROOT
BRANCH   1  12
ATOM     10  N   UNL     1       9.818  11.341  18.750  0.00  0.00    +0.000 N 
ATOM     11  C   UNL     1       9.649  10.007  19.027  0.00  0.00    +0.000 A 
ATOM     12  C   UNL     1       8.588   9.581  18.252  0.00  0.00    +0.000 A 
ATOM     13  C   UNL     1       8.236  10.736  17.497  0.00  0.00    +0.000 A 
ATOM     14  N   UNL     1       8.997  11.795  17.789  0.00  0.00    +0.000 NA
BRANCH  10  15
ATOM     15  C   UNL     1      10.643  12.288  19.469  0.00  0.00    +0.000 C 
BRANCH  15  16
ATOM     16  C   UNL     1      11.739  12.836  18.566  0.00  0.00    +0.000 C 
BRANCH  16  17
ATOM     17  O   UNL     1      12.048  11.896  17.540  0.00  0.00    +0.000 OA
ATOM     18  H   UNL     1      11.300  11.275  17.493  0.00  0.00    +0.000 HD
ENDBRANCH  16  17
ENDBRANCH  15  16
ENDBRANCH  10  15
ENDBRANCH   1  12
BRANCH   7  19
ATOM     19  C   UNL     1       5.049   5.598  15.748  0.00  0.00    +0.000 C 
BRANCH  19  20
ATOM     20  C   UNL     1       4.137   5.176  16.890  0.00  0.00    +0.000 A 
ATOM     21  C   UNL     1       3.540   6.164  17.692  0.00  0.00    +0.000 A 
ATOM     22  C   UNL     1       2.543   5.836  18.624  0.00  0.00    +0.000 A 
ATOM     23  C   UNL     1       2.114   4.525  18.787  0.00  0.00    +0.000 A 
ATOM     24  N   UNL     1       1.119   4.262  19.656  0.00  0.00    +0.000 NA
ATOM     25  C   UNL     1       0.691   2.987  19.757  0.00  0.00    +0.000 A 
ATOM     26  C   UNL     1       1.219   1.937  19.033  0.00  0.00    +0.000 A 
ATOM     27  C   UNL     1       2.250   2.211  18.142  0.00  0.00    +0.000 A 
ATOM     28  C   UNL     1       2.721   3.523  17.995  0.00  0.00    +0.000 A 
ATOM     29  C   UNL     1       3.727   3.850  17.063  0.00  0.00    +0.000 A 
ENDBRANCH  19  20
ENDBRANCH   7  19
TORSDOF 6
ENDMDL
MODEL 4
REMARK VINA RESULT:      -8.3      1.874      3.401
REMARK  Name = 
REMARK  6 active torsions:
REMARK  status: ('A' for Active; 'I' for Inactive)
REMARK    1  A    between atoms: O_1  and  C_2
REMARK    2  A    between atoms: C_2  and  C_3
REMARK    3  A    between atoms: C_3  and  N_4
REMARK    4  A    between atoms: C_6  and  C_7
REMARK    5  A    between atoms: N_13  and  C_14
REMARK    6  A    between atoms: C_14  and  C_15
REMARK                            x       y       z     vdW  Elec       q    Type
REMARK                         _______ _______ _______ _____ _____    ______ ____
ROOT
ATOM      1  C   UNL     1       5.049   4.425  18.846  0.00  0.00    +0.000 A 
ATOM      2  C   UNL     1       4.957   3.124  19.360  0.00  0.00    +0.000 A 
ATOM      3  N   UNL     1       3.933   2.669  20.112  0.00  0.00    +0.000 NA
ATOM      4  C   UNL     1       2.943   3.582  20.209  0.00  0.00    +0.000 A 
ATOM      5  N   UNL     1       1.632   3.266  20.379  0.00  0.00    +0.000 NA
ATOM      6  C   UNL     1       0.998   4.370  20.054  0.00  0.00    +0.000 A 
ATOM      7  N   UNL     1       1.846   5.474  20.108  0.00  0.00    +0.000 N 
ATOM      8  C   UNL     1       3.102   4.927  19.846  0.00  0.00    +0.000 A 
ATOM      9  N   UNL     1       4.172   5.439  19.171  0.00  0.00    +0.000 NA
ENDROOT
BRANCH   1  12
ATOM     10  N   UNL     1       6.692   4.765  15.626  0.00  0.00    +0.000 N 
ATOM     11  C   UNL     1       5.539   4.817  16.371  0.00  0.00    +0.000 A 
ATOM     12  C   UNL     1       5.916   4.608  17.683  0.00  0.00    +0.000 A 
ATOM     13  C   UNL     1       7.334   4.503  17.616  0.00  0.00    +0.000 A 
ATOM     14  N   UNL     1       7.801   4.618  16.369  0.00  0.00    +0.000 NA
BRANCH  10  15
ATOM     15  C   UNL     1       6.802   4.697  14.185  0.00  0.00    +0.000 C 
BRANCH  15  16
ATOM     16  C   UNL     1       5.735   3.777  13.610  0.00  0.00    +0.000 C 
BRANCH  16  17
ATOM     17  O   UNL     1       6.313   2.882  12.664  0.00  0.00    +0.000 OA
ATOM     18  H   UNL     1       6.732   2.166  13.174  0.00  0.00    +0.000 HD
ENDBRANCH  16  17
ENDBRANCH  15  16
ENDBRANCH  10  15
ENDBRANCH   1  12
BRANCH   7  19
ATOM     19  C   UNL     1       1.523   6.486  21.123  0.00  0.00    +0.000 C 
BRANCH  19  20
ATOM     20  C   UNL     1       1.316   7.919  20.657  0.00  0.00    +0.000 A 
ATOM     21  C   UNL     1       1.731   8.287  19.366  0.00  0.00    +0.000 A 
ATOM     22  C   UNL     1       1.387   9.534  18.820  0.00  0.00    +0.000 A 
ATOM     23  C   UNL     1       0.625  10.446  19.539  0.00  0.00    +0.000 A 
ATOM     24  N   UNL     1       0.274  11.610  18.959  0.00  0.00    +0.000 NA
ATOM     25  C   UNL     1      -0.506  12.455  19.663  0.00  0.00    +0.000 A 
ATOM     26  C   UNL     1      -0.955  12.204  20.945  0.00  0.00    +0.000 A 
ATOM     27  C   UNL     1      -0.585  11.004  21.542  0.00  0.00    +0.000 A 
ATOM     28  C   UNL     1       0.217  10.090  20.845  0.00  0.00    +0.000 A 
ATOM     29  C   UNL     1       0.567   8.841  21.396  0.00  0.00    +0.000 A 
ENDBRANCH  19  20
ENDBRANCH   7  19
TORSDOF 6
ENDMDL
MODEL 5
REMARK VINA RESULT:      -8.2      0.896      1.056
REMARK  Name = 
REMARK  6 active torsions:
REMARK  status: ('A' for Active; 'I' for Inactive)
REMARK    1  A    between atoms: O_1  and  C_2
REMARK    2  A    between atoms: C_2  and  C_3
REMARK    3  A    between atoms: C_3  and  N_4
REMARK    4  A    between atoms: C_6  and  C_7
REMARK    5  A    between atoms: N_13  and  C_14
REMARK    6  A    between atoms: C_14  and  C_15
REMARK                            x       y       z     vdW  Elec       q    Type
REMARK                         _______ _______ _______ _____ _____    ______ ____
ROOT
ATOM      1  C   UNL     1       5.905   4.912  16.464  0.00  0.00    +0.000 A 
ATOM      2  C   UNL     1       6.910   4.909  17.442  0.00  0.00    +0.000 A 
ATOM      3  N   UNL     1       6.724   4.559  18.731  0.00  0.00    +0.000 NA
ATOM      4  C   UNL     1       5.475   4.091  18.944  0.00  0.00    +0.000 A 
ATOM      5  N   UNL     1       5.157   3.181  19.902  0.00  0.00    +0.000 NA
ATOM      6  C   UNL     1       3.977   2.737  19.534  0.00  0.00    +0.000 A 
ATOM      7  N   UNL     1       3.357   3.620  18.653  0.00  0.00    +0.000 N 
ATOM      8  C   UNL     1       4.429   4.250  18.023  0.00  0.00    +0.000 A 
ATOM      9  N   UNL     1       4.571   4.696  16.741  0.00  0.00    +0.000 NA
ENDROOT
BRANCH   1  12
ATOM     10  N   UNL     1       6.693   4.154  13.002  0.00  0.00    +0.000 N 
ATOM     11  C   UNL     1       5.861   3.991  14.084  0.00  0.00    +0.000 A 
ATOM     12  C   UNL     1       6.346   4.823  15.074  0.00  0.00    +0.000 A 
ATOM     13  C   UNL     1       7.440   5.488  14.452  0.00  0.00    +0.000 A 
ATOM     14  N   UNL     1       7.634   5.093  13.190  0.00  0.00    +0.000 NA
BRANCH  10  15
ATOM     15  C   UNL     1       6.744   3.342  11.806  0.00  0.00    +0.000 C 
BRANCH  15  16
ATOM     16  C   UNL     1       5.538   2.416  11.736  0.00  0.00    +0.000 C 
BRANCH  16  17
ATOM     17  O   UNL     1       5.954   1.086  11.439  0.00  0.00    +0.000 OA
ATOM     18  H   UNL     1       6.248   0.689  12.278  0.00  0.00    +0.000 HD
ENDBRANCH  16  17
ENDBRANCH  15  16
ENDBRANCH  10  15
ENDBRANCH   1  12
BRANCH   7  19
ATOM     19  C   UNL     1       2.125   4.256  19.139  0.00  0.00    +0.000 C 
BRANCH  19  20
ATOM     20  C   UNL     1       2.103   5.774  19.245  0.00  0.00    +0.000 A 
ATOM     21  C   UNL     1       2.244   6.544  18.078  0.00  0.00    +0.000 A 
ATOM     22  C   UNL     1       2.033   7.932  18.095  0.00  0.00    +0.000 A 
ATOM     23  C   UNL     1       1.679   8.591  19.266  0.00  0.00    +0.000 A 
ATOM     24  N   UNL     1       1.437   9.915  19.227  0.00  0.00    +0.000 NA
ATOM     25  C   UNL     1       1.049  10.518  20.369  0.00  0.00    +0.000 A 
ATOM     26  C   UNL     1       0.898   9.862  21.575  0.00  0.00    +0.000 A 
ATOM     27  C   UNL     1       1.156   8.497  21.612  0.00  0.00    +0.000 A 
ATOM     28  C   UNL     1       1.552   7.824  20.447  0.00  0.00    +0.000 A 
ATOM     29  C   UNL     1       1.769   6.432  20.433  0.00  0.00    +0.000 A 
ENDBRANCH  19  20
ENDBRANCH   7  19
TORSDOF 6
ENDMDL
MODEL 6
REMARK VINA RESULT:      -8.1      4.903      9.064
REMARK  Name = 
REMARK  6 active torsions:
REMARK  status: ('A' for Active; 'I' for Inactive)
REMARK    1  A    between atoms: O_1  and  C_2
REMARK    2  A    between atoms: C_2  and  C_3
REMARK    3  A    between atoms: C_3  and  N_4
REMARK    4  A    between atoms: C_6  and  C_7
REMARK    5  A    between atoms: N_13  and  C_14
REMARK    6  A    between atoms: C_14  and  C_15
REMARK                            x       y       z     vdW  Elec       q    Type
REMARK                         _______ _______ _______ _____ _____    ______ ____
ROOT
ATOM      1  C   UNL     1      -2.376  10.679  18.189  0.00  0.00    +0.000 A 
ATOM      2  C   UNL     1      -2.874  11.743  18.955  0.00  0.00    +0.000 A 
ATOM      3  N   UNL     1      -2.249  12.272  20.026  0.00  0.00    +0.000 NA
ATOM      4  C   UNL     1      -1.022  11.735  20.204  0.00  0.00    +0.000 A 
ATOM      5  N   UNL     1       0.020  12.392  20.777  0.00  0.00    +0.000 NA
ATOM      6  C   UNL     1       1.069  11.686  20.423  0.00  0.00    +0.000 A 
ATOM      7  N   UNL     1       0.704  10.401  20.030  0.00  0.00    +0.000 N 
ATOM      8  C   UNL     1      -0.596  10.568  19.554  0.00  0.00    +0.000 A 
ATOM      9  N   UNL     1      -1.256   9.951  18.531  0.00  0.00    +0.000 NA
ENDROOT
BRANCH   1  12
ATOM     10  N   UNL     1      -3.116  10.088  14.684  0.00  0.00    +0.000 N 
ATOM     11  C   UNL     1      -2.441   9.721  15.823  0.00  0.00    +0.000 A 
ATOM     12  C   UNL     1      -2.886  10.561  16.824  0.00  0.00    +0.000 A 
ATOM     13  C   UNL     1      -3.878  11.356  16.184  0.00  0.00    +0.000 A 
ATOM     14  N   UNL     1      -4.027  11.052  14.891  0.00  0.00    +0.000 NA
BRANCH  10  15
ATOM     15  C   UNL     1      -2.839   9.666  13.328  0.00  0.00    +0.000 C 
BRANCH  15  16
ATOM     16  C   UNL     1      -4.094   9.755  12.473  0.00  0.00    +0.000 C 
BRANCH  16  17
ATOM     17  O   UNL     1      -3.752   9.734  11.090  0.00  0.00    +0.000 OA
ATOM     18  H   UNL     1      -2.781   9.693  11.041  0.00  0.00    +0.000 HD
ENDBRANCH  16  17
ENDBRANCH  15  16
ENDBRANCH  10  15
ENDBRANCH   1  12
BRANCH   7  19
ATOM     19  C   UNL     1       1.197   9.305  20.874  0.00  0.00    +0.000 C 
BRANCH  19  20
ATOM     20  C   UNL     1       1.566   7.994  20.195  0.00  0.00    +0.000 A 
ATOM     21  C   UNL     1       2.185   8.026  18.934  0.00  0.00    +0.000 A 
ATOM     22  C   UNL     1       2.720   6.863  18.358  0.00  0.00    +0.000 A 
ATOM     23  C   UNL     1       2.655   5.641  19.016  0.00  0.00    +0.000 A 
ATOM     24  N   UNL     1       3.226   4.560  18.451  0.00  0.00    +0.000 NA
ATOM     25  C   UNL     1       3.190   3.398  19.135  0.00  0.00    +0.000 A 
ATOM     26  C   UNL     1       2.592   3.250  20.371  0.00  0.00    +0.000 A 
ATOM     27  C   UNL     1       1.998   4.366  20.947  0.00  0.00    +0.000 A 
ATOM     28  C   UNL     1       2.020   5.598  20.278  0.00  0.00    +0.000 A 
ATOM     29  C   UNL     1       1.477   6.764  20.855  0.00  0.00    +0.000 A 
ENDBRANCH  19  20
ENDBRANCH   7  19
TORSDOF 6
ENDMDL
MODEL 7
REMARK VINA RESULT:      -7.9      0.890      1.584
REMARK  Name = 
REMARK  6 active torsions:
REMARK  status: ('A' for Active; 'I' for Inactive)
REMARK    1  A    between atoms: O_1  and  C_2
REMARK    2  A    between atoms: C_2  and  C_3
REMARK    3  A    between atoms: C_3  and  N_4
REMARK    4  A    between atoms: C_6  and  C_7
REMARK    5  A    between atoms: N_13  and  C_14
REMARK    6  A    between atoms: C_14  and  C_15
REMARK                            x       y       z     vdW  Elec       q    Type
REMARK                         _______ _______ _______ _____ _____    ______ ____
ROOT
ATOM      1  C   UNL     1       5.885   5.055  15.634  0.00  0.00    +0.000 A 
ATOM      2  C   UNL     1       6.739   5.819  16.442  0.00  0.00    +0.000 A 
ATOM      3  N   UNL     1       6.681   5.866  17.788  0.00  0.00    +0.000 NA
ATOM      4  C   UNL     1       5.776   4.991  18.278  0.00  0.00    +0.000 A 
ATOM      5  N   UNL     1       5.870   4.404  19.500  0.00  0.00    +0.000 NA
ATOM      6  C   UNL     1       5.039   3.390  19.426  0.00  0.00    +0.000 A 
ATOM      7  N   UNL     1       4.122   3.562  18.393  0.00  0.00    +0.000 N 
ATOM      8  C   UNL     1       4.813   4.358  17.480  0.00  0.00    +0.000 A 
ATOM      9  N   UNL     1       4.787   4.373  16.115  0.00  0.00    +0.000 NA
ENDROOT
BRANCH   1  12
ATOM     10  N   UNL     1       6.808   3.689  12.399  0.00  0.00    +0.000 N 
ATOM     11  C   UNL     1       5.944   3.706  13.467  0.00  0.00    +0.000 A 
ATOM     12  C   UNL     1       6.375   4.721  14.298  0.00  0.00    +0.000 A 
ATOM     13  C   UNL     1       7.475   5.290  13.595  0.00  0.00    +0.000 A 
ATOM     14  N   UNL     1       7.721   4.673  12.436  0.00  0.00    +0.000 NA
BRANCH  10  15
ATOM     15  C   UNL     1       6.918   2.670  11.378  0.00  0.00    +0.000 C 
BRANCH  15  16
ATOM     16  C   UNL     1       5.714   1.740  11.418  0.00  0.00    +0.000 C 
BRANCH  16  17
ATOM     17  O   UNL     1       6.139   0.380  11.388  0.00  0.00    +0.000 OA
ATOM     18  H   UNL     1       5.985   0.057  10.483  0.00  0.00    +0.000 HD
ENDBRANCH  16  17
ENDBRANCH  15  16
ENDBRANCH  10  15
ENDBRANCH   1  12
BRANCH   7  19
ATOM     19  C   UNL     1       2.716   3.705  18.797  0.00  0.00    +0.000 C 
BRANCH  19  20
ATOM     20  C   UNL     1       2.207   5.102  19.117  0.00  0.00    +0.000 A 
ATOM     21  C   UNL     1       1.868   5.421  20.443  0.00  0.00    +0.000 A 
ATOM     22  C   UNL     1       1.584   6.742  20.822  0.00  0.00    +0.000 A 
ATOM     23  C   UNL     1       1.628   7.779  19.898  0.00  0.00    +0.000 A 
ATOM     24  N   UNL     1       1.398   9.039  20.315  0.00  0.00    +0.000 NA
ATOM     25  C   UNL     1       1.494  10.031  19.405  0.00  0.00    +0.000 A 
ATOM     26  C   UNL     1       1.801   9.829  18.074  0.00  0.00    +0.000 A 
ATOM     27  C   UNL     1       2.030   8.526  17.647  0.00  0.00    +0.000 A 
ATOM     28  C   UNL     1       1.952   7.464  18.559  0.00  0.00    +0.000 A 
ATOM     29  C   UNL     1       2.231   6.137  18.176  0.00  0.00    +0.000 A 
ENDBRANCH  19  20
ENDBRANCH   7  19
TORSDOF 6
ENDMDL
MODEL 8
REMARK VINA RESULT:      -7.9      1.703      3.084
REMARK  Name = 
REMARK  6 active torsions:
REMARK  status: ('A' for Active; 'I' for Inactive)
REMARK    1  A    between atoms: O_1  and  C_2
REMARK    2  A    between atoms: C_2  and  C_3
REMARK    3  A    between atoms: C_3  and  N_4
REMARK    4  A    between atoms: C_6  and  C_7
REMARK    5  A    between atoms: N_13  and  C_14
REMARK    6  A    between atoms: C_14  and  C_15
REMARK                            x       y       z     vdW  Elec       q    Type
REMARK                         _______ _______ _______ _____ _____    ______ ____
ROOT
ATOM      1  C   UNL     1       4.628   4.789  18.075  0.00  0.00    +0.000 A 
ATOM      2  C   UNL     1       4.839   3.532  18.659  0.00  0.00    +0.000 A 
ATOM      3  N   UNL     1       4.140   3.047  19.705  0.00  0.00    +0.000 NA
ATOM      4  C   UNL     1       3.124   3.868  20.049  0.00  0.00    +0.000 A 
ATOM      5  N   UNL     1       1.966   3.445  20.621  0.00  0.00    +0.000 NA
ATOM      6  C   UNL     1       1.143   4.454  20.445  0.00  0.00    +0.000 A 
ATOM      7  N   UNL     1       1.837   5.633  20.185  0.00  0.00    +0.000 N 
ATOM      8  C   UNL     1       3.015   5.187  19.587  0.00  0.00    +0.000 A 
ATOM      9  N   UNL     1       3.775   5.740  18.596  0.00  0.00    +0.000 NA
ENDROOT
BRANCH   1  12
ATOM     10  N   UNL     1       5.933   4.608  14.692  0.00  0.00    +0.000 N 
ATOM     11  C   UNL     1       5.394   3.969  15.782  0.00  0.00    +0.000 A 
ATOM     12  C   UNL     1       5.088   4.956  16.698  0.00  0.00    +0.000 A 
ATOM     13  C   UNL     1       5.430   6.162  16.023  0.00  0.00    +0.000 A 
ATOM     14  N   UNL     1       5.925   5.947  14.801  0.00  0.00    +0.000 NA
BRANCH  10  15
ATOM     15  C   UNL     1       6.617   4.002  13.570  0.00  0.00    +0.000 C 
BRANCH  15  16
ATOM     16  C   UNL     1       5.616   3.392  12.600  0.00  0.00    +0.000 C 
BRANCH  16  17
ATOM     17  O   UNL     1       6.161   2.220  12.000  0.00  0.00    +0.000 OA
ATOM     18  H   UNL     1       5.843   2.201  11.080  0.00  0.00    +0.000 HD
ENDBRANCH  16  17
ENDBRANCH  15  16
ENDBRANCH  10  15
ENDBRANCH   1  12
BRANCH   7  19
ATOM     19  C   UNL     1       1.712   6.691  21.197  0.00  0.00    +0.000 C 
BRANCH  19  20
ATOM     20  C   UNL     1       1.350   8.091  20.723  0.00  0.00    +0.000 A 
ATOM     21  C   UNL     1       1.621   8.454  19.393  0.00  0.00    +0.000 A 
ATOM     22  C   UNL     1       1.131   9.655  18.855  0.00  0.00    +0.000 A 
ATOM     23  C   UNL     1       0.362  10.524  19.620  0.00  0.00    +0.000 A 
ATOM     24  N   UNL     1      -0.130  11.639  19.049  0.00  0.00    +0.000 NA
ATOM     25  C   UNL     1      -0.913  12.439  19.802  0.00  0.00    +0.000 A 
ATOM     26  C   UNL     1      -1.228  12.188  21.123  0.00  0.00    +0.000 A 
ATOM     27  C   UNL     1      -0.711  11.038  21.710  0.00  0.00    +0.000 A 
ATOM     28  C   UNL     1       0.099  10.171  20.963  0.00  0.00    +0.000 A 
ATOM     29  C   UNL     1       0.595   8.969  21.506  0.00  0.00    +0.000 A 
ENDBRANCH  19  20
ENDBRANCH   7  19
TORSDOF 6
ENDMDL
MODEL 9
REMARK VINA RESULT:      -7.9      4.935      7.436
REMARK  Name = 
REMARK  6 active torsions:
REMARK  status: ('A' for Active; 'I' for Inactive)
REMARK    1  A    between atoms: O_1  and  C_2
REMARK    2  A    between atoms: C_2  and  C_3
REMARK    3  A    between atoms: C_3  and  N_4
REMARK    4  A    between atoms: C_6  and  C_7
REMARK    5  A    between atoms: N_13  and  C_14
REMARK    6  A    between atoms: C_14  and  C_15
REMARK                            x       y       z     vdW  Elec       q    Type
REMARK                         _______ _______ _______ _____ _____    ______ ____
ROOT
ATOM      1  C   UNL     1       7.911   8.222  18.308  0.00  0.00    +0.000 A 
ATOM      2  C   UNL     1       8.446   7.255  19.172  0.00  0.00    +0.000 A 
ATOM      3  N   UNL     1       8.287   5.924  19.024  0.00  0.00    +0.000 NA
ATOM      4  C   UNL     1       7.650   5.624  17.871  0.00  0.00    +0.000 A 
ATOM      5  N   UNL     1       7.832   4.467  17.181  0.00  0.00    +0.000 NA
ATOM      6  C   UNL     1       7.344   4.732  15.991  0.00  0.00    +0.000 A 
ATOM      7  N   UNL     1       6.487   5.829  16.028  0.00  0.00    +0.000 N 
ATOM      8  C   UNL     1       6.971   6.578  17.100  0.00  0.00    +0.000 A 
ATOM      9  N   UNL     1       7.033   7.929  17.285  0.00  0.00    +0.000 NA
ENDROOT
BRANCH   1  12
ATOM     10  N   UNL     1       9.781  11.288  18.837  0.00  0.00    +0.000 N 
ATOM     11  C   UNL     1       9.631   9.944  19.077  0.00  0.00    +0.000 A 
ATOM     12  C   UNL     1       8.565   9.529  18.305  0.00  0.00    +0.000 A 
ATOM     13  C   UNL     1       8.188  10.700  17.590  0.00  0.00    +0.000 A 
ATOM     14  N   UNL     1       8.940  11.760  17.902  0.00  0.00    +0.000 NA
BRANCH  10  15
ATOM     15  C   UNL     1      10.605  12.223  19.572  0.00  0.00    +0.000 C 
BRANCH  15  16
ATOM     16  C   UNL     1      10.043  12.450  20.967  0.00  0.00    +0.000 C 
BRANCH  16  17
ATOM     17  O   UNL     1       8.665  12.808  20.892  0.00  0.00    +0.000 OA
ATOM     18  H   UNL     1       8.169  12.118  21.367  0.00  0.00    +0.000 HD
ENDBRANCH  16  17
ENDBRANCH  15  16
ENDBRANCH  10  15
ENDBRANCH   1  12
BRANCH   7  19
ATOM     19  C   UNL     1       5.078   5.557  15.711  0.00  0.00    +0.000 C 
BRANCH  19  20
ATOM     20  C   UNL     1       4.159   5.146  16.851  0.00  0.00    +0.000 A 
ATOM     21  C   UNL     1       3.546   6.142  17.631  0.00  0.00    +0.000 A 
ATOM     22  C   UNL     1       2.543   5.821  18.559  0.00  0.00    +0.000 A 
ATOM     23  C   UNL     1       2.124   4.509  18.739  0.00  0.00    +0.000 A 
ATOM     24  N   UNL     1       1.124   4.252  19.604  0.00  0.00    +0.000 NA
ATOM     25  C   UNL     1       0.705   2.975  19.722  0.00  0.00    +0.000 A 
ATOM     26  C   UNL     1       1.249   1.917  19.020  0.00  0.00    +0.000 A 
ATOM     27  C   UNL     1       2.286   2.186  18.135  0.00  0.00    +0.000 A 
ATOM     28  C   UNL     1       2.747   3.500  17.970  0.00  0.00    +0.000 A 
ATOM     29  C   UNL     1       3.758   3.819  17.042  0.00  0.00    +0.000 A 
ENDBRANCH  19  20
ENDBRANCH   7  19
TORSDOF 6
ENDMDL
