MODEL 1
REMARK VINA RESULT:      -7.8      0.000      0.000
REMARK  Name = 
REMARK  4 active torsions:
REMARK  status: ('A' for Active; 'I' for Inactive)
REMARK    1  A    between atoms: C_1  and  C_2
REMARK    2  A    between atoms: C_3  and  S_4
REMARK    3  A    between atoms: S_4  and  N_7
REMARK    4  A    between atoms: N_7  and  C_8
REMARK                            x       y       z     vdW  Elec       q    Type
REMARK                         _______ _______ _______ _____ _____    ______ ____
ROOT
ATOM      1  S   UNL     1       6.138   6.714  16.406  0.00  0.00    +0.000 S 
ATOM      2  O   UNL     1       5.165   7.139  15.424  0.00  0.00    +0.000 OA
ATOM      3  O   UNL     1       6.876   7.679  17.193  0.00  0.00    +0.000 OA
ENDROOT
BRANCH   1   6
ATOM      4  C   UNL     1       3.021   6.942  17.963  0.00  0.00    +0.000 C 
ATOM      5  C   UNL     1       3.983   5.815  18.179  0.00  0.00    +0.000 A 
ATOM      6  C   UNL     1       5.231   5.693  17.581  0.00  0.00    +0.000 A 
ATOM      7  S   UNL     1       6.004   4.235  18.025  0.00  0.00    +0.000 S 
ATOM      8  C   UNL     1       4.738   3.771  19.084  0.00  0.00    +0.000 A 
ATOM      9  C   UNL     1       4.686   2.613  19.889  0.00  0.00    +0.000 A 
ATOM     10  C   UNL     1       3.562   2.389  20.687  0.00  0.00    +0.000 A 
ATOM     11  C   UNL     1       2.513   3.295  20.681  0.00  0.00    +0.000 A 
ATOM     12 CL   UNL     1       1.131   3.008  21.664  0.00  0.00    +0.000 Cl
ATOM     13  C   UNL     1       2.566   4.442  19.885  0.00  0.00    +0.000 A 
ATOM     14  C   UNL     1       3.699   4.702  19.068  0.00  0.00    +0.000 A 
ENDBRANCH   1   6
BRANCH   1  15
ATOM     15  N   UNL     1       7.298   5.719  15.665  0.00  0.00    +0.000 N 
ATOM     16  H   UNL     1       7.841   5.238  16.381  0.00  0.00    +0.000 HD
BRANCH  15  17
ATOM     17  C   UNL     1       6.863   4.911  14.578  0.00  0.00    +0.000 A 
ATOM     18  C   UNL     1       7.553   4.947  13.365  0.00  0.00    +0.000 A 
ATOM     19  C   UNL     1       7.102   4.184  12.283  0.00  0.00    +0.000 A 
ATOM     20  C   UNL     1       5.953   3.407  12.416  0.00  0.00    +0.000 A 
ATOM     21 CL   UNL     1       5.384   2.481  11.082  0.00  0.00    +0.000 Cl
ATOM     22  C   UNL     1       5.253   3.381  13.622  0.00  0.00    +0.000 A 
ATOM     23  C   UNL     1       5.712   4.132  14.707  0.00  0.00    +0.000 A 
ENDBRANCH  15  17
ENDBRANCH   1  15
TORSDOF 3
ENDMDL
MODEL 2
REMARK VINA RESULT:      -7.8      0.091      1.036
REMARK  Name = 
REMARK  4 active torsions:
REMARK  status: ('A' for Active; 'I' for Inactive)
REMARK    1  A    between atoms: C_1  and  C_2
REMARK    2  A    between atoms: C_3  and  S_4
REMARK    3  A    between atoms: S_4  and  N_7
REMARK    4  A    between atoms: N_7  and  C_8
REMARK                            x       y       z     vdW  Elec       q    Type
REMARK                         _______ _______ _______ _____ _____    ______ ____
ROOT
ATOM      1  S   UNL     1       6.139   6.704  16.510  0.00  0.00    +0.000 S 
ATOM      2  O   UNL     1       5.157   7.171  15.557  0.00  0.00    +0.000 OA
ATOM      3  O   UNL     1       6.910   7.634  17.307  0.00  0.00    +0.000 OA
ENDROOT
BRANCH   1   6
ATOM      4  C   UNL     1       3.016   6.912  18.060  0.00  0.00    +0.000 C 
ATOM      5  C   UNL     1       3.981   5.787  18.272  0.00  0.00    +0.000 A 
ATOM      6  C   UNL     1       5.231   5.673  17.677  0.00  0.00    +0.000 A 
ATOM      7  S   UNL     1       6.007   4.214  18.115  0.00  0.00    +0.000 S 
ATOM      8  C   UNL     1       4.741   3.741  19.168  0.00  0.00    +0.000 A 
ATOM      9  C   UNL     1       4.690   2.578  19.966  0.00  0.00    +0.000 A 
ATOM     10  C   UNL     1       3.565   2.346  20.760  0.00  0.00    +0.000 A 
ATOM     11  C   UNL     1       2.513   3.248  20.756  0.00  0.00    +0.000 A 
ATOM     12 CL   UNL     1       1.129   2.952  21.733  0.00  0.00    +0.000 Cl
ATOM     13  C   UNL     1       2.564   4.400  19.966  0.00  0.00    +0.000 A 
ATOM     14  C   UNL     1       3.698   4.669  19.154  0.00  0.00    +0.000 A 
ENDBRANCH   1   6
BRANCH   1  15
ATOM     15  N   UNL     1       7.264   5.703  15.725  0.00  0.00    +0.000 N 
ATOM     16  H   UNL     1       7.799   5.181  16.420  0.00  0.00    +0.000 HD
BRANCH  15  17
ATOM     17  C   UNL     1       6.799   4.947  14.613  0.00  0.00    +0.000 A 
ATOM     18  C   UNL     1       5.641   4.176  14.732  0.00  0.00    +0.000 A 
ATOM     19  C   UNL     1       5.206   3.402  13.653  0.00  0.00    +0.000 A 
ATOM     20  C   UNL     1       5.943   3.388  12.469  0.00  0.00    +0.000 A 
ATOM     21 CL   UNL     1       5.420   2.423  11.144  0.00  0.00    +0.000 Cl
ATOM     22  C   UNL     1       7.107   4.147  12.353  0.00  0.00    +0.000 A 
ATOM     23  C   UNL     1       7.535   4.931  13.427  0.00  0.00    +0.000 A 
ENDBRANCH  15  17
ENDBRANCH   1  15
TORSDOF 3
ENDMDL
MODEL 3
REMARK VINA RESULT:      -7.7      3.850      7.017
REMARK  Name = 
REMARK  4 active torsions:
REMARK  status: ('A' for Active; 'I' for Inactive)
REMARK    1  A    between atoms: C_1  and  C_2
REMARK    2  A    between atoms: C_3  and  S_4
REMARK    3  A    between atoms: S_4  and  N_7
REMARK    4  A    between atoms: N_7  and  C_8
REMARK                            x       y       z     vdW  Elec       q    Type
REMARK                         _______ _______ _______ _____ _____    ______ ____
ROOT
ATOM      1  S   UNL     1       2.308   4.252  20.271  0.00  0.00    +0.000 S 
ATOM      2  O   UNL     1       1.001   4.191  19.657  0.00  0.00    +0.000 OA
ATOM      3  O   UNL     1       2.757   3.216  21.178  0.00  0.00    +0.000 OA
ENDROOT
BRANCH   1   6
ATOM      4  C   UNL     1       2.117   3.591  16.848  0.00  0.00    +0.000 C 
ATOM      5  C   UNL     1       3.372   4.006  17.550  0.00  0.00    +0.000 A 
ATOM      6  C   UNL     1       3.487   4.273  18.908  0.00  0.00    +0.000 A 
ATOM      7  S   UNL     1       5.065   4.784  19.320  0.00  0.00    +0.000 S 
ATOM      8  C   UNL     1       5.653   4.584  17.723  0.00  0.00    +0.000 A 
ATOM      9  C   UNL     1       6.974   4.795  17.271  0.00  0.00    +0.000 A 
ATOM     10  C   UNL     1       7.272   4.593  15.922  0.00  0.00    +0.000 A 
ATOM     11  C   UNL     1       6.279   4.193  15.042  0.00  0.00    +0.000 A 
ATOM     12 CL   UNL     1       6.654   3.951  13.381  0.00  0.00    +0.000 Cl
ATOM     13  C   UNL     1       4.972   3.983  15.490  0.00  0.00    +0.000 A 
ATOM     14  C   UNL     1       4.638   4.172  16.858  0.00  0.00    +0.000 A 
ENDBRANCH   1   6
BRANCH   1  15
ATOM     15  N   UNL     1       2.479   5.721  21.106  0.00  0.00    +0.000 N 
ATOM     16  H   UNL     1       3.416   5.781  21.502  0.00  0.00    +0.000 HD
BRANCH  15  17
ATOM     17  C   UNL     1       2.010   6.896  20.457  0.00  0.00    +0.000 A 
ATOM     18  C   UNL     1       2.438   7.194  19.161  0.00  0.00    +0.000 A 
ATOM     19  C   UNL     1       2.010   8.369  18.538  0.00  0.00    +0.000 A 
ATOM     20  C   UNL     1       1.172   9.249  19.221  0.00  0.00    +0.000 A 
ATOM     21 CL   UNL     1       0.656  10.705  18.464  0.00  0.00    +0.000 Cl
ATOM     22  C   UNL     1       0.753   8.961  20.520  0.00  0.00    +0.000 A 
ATOM     23  C   UNL     1       1.171   7.780  21.138  0.00  0.00    +0.000 A 
ENDBRANCH  15  17
ENDBRANCH   1  15
TORSDOF 3
ENDMDL
MODEL 4
REMARK VINA RESULT:      -7.6      3.881      5.293
REMARK  Name = 
REMARK  4 active torsions:
REMARK  status: ('A' for Active; 'I' for Inactive)
REMARK    1  A    between atoms: C_1  and  C_2
REMARK    2  A    between atoms: C_3  and  S_4
REMARK    3  A    between atoms: S_4  and  N_7
REMARK    4  A    between atoms: N_7  and  C_8
REMARK                            x       y       z     vdW  Elec       q    Type
REMARK                         _______ _______ _______ _____ _____    ______ ____
ROOT
ATOM      1  S   UNL     1       2.888   2.997  18.124  0.00  0.00    +0.000 S 
ATOM      2  O   UNL     1       2.288   1.997  18.978  0.00  0.00    +0.000 OA
ATOM      3  O   UNL     1       2.546   3.085  16.721  0.00  0.00    +0.000 OA
ENDROOT
BRANCH   1   6
ATOM      4  C   UNL     1       2.032   4.078  21.332  0.00  0.00    +0.000 C 
ATOM      5  C   UNL     1       2.114   4.980  20.141  0.00  0.00    +0.000 A 
ATOM      6  C   UNL     1       2.446   4.586  18.851  0.00  0.00    +0.000 A 
ATOM      7  S   UNL     1       2.499   5.916  17.778  0.00  0.00    +0.000 S 
ATOM      8  C   UNL     1       2.001   7.032  18.980  0.00  0.00    +0.000 A 
ATOM      9  C   UNL     1       1.774   8.415  18.813  0.00  0.00    +0.000 A 
ATOM     10  C   UNL     1       1.381   9.177  19.915  0.00  0.00    +0.000 A 
ATOM     11  C   UNL     1       1.222   8.579  21.155  0.00  0.00    +0.000 A 
ATOM     12 CL   UNL     1       0.742   9.528  22.507  0.00  0.00    +0.000 Cl
ATOM     13  C   UNL     1       1.446   7.210  21.319  0.00  0.00    +0.000 A 
ATOM     14  C   UNL     1       1.839   6.405  20.216  0.00  0.00    +0.000 A 
ENDBRANCH   1   6
BRANCH   1  15
ATOM     15  N   UNL     1       4.580   2.866  18.193  0.00  0.00    +0.000 N 
ATOM     16  H   UNL     1       4.883   2.072  17.631  0.00  0.00    +0.000 HD
BRANCH  15  17
ATOM     17  C   UNL     1       5.333   4.062  18.025  0.00  0.00    +0.000 A 
ATOM     18  C   UNL     1       5.615   4.530  16.740  0.00  0.00    +0.000 A 
ATOM     19  C   UNL     1       6.389   5.683  16.573  0.00  0.00    +0.000 A 
ATOM     20  C   UNL     1       6.892   6.347  17.691  0.00  0.00    +0.000 A 
ATOM     21 CL   UNL     1       7.859   7.755  17.489  0.00  0.00    +0.000 Cl
ATOM     22  C   UNL     1       6.622   5.872  18.975  0.00  0.00    +0.000 A 
ATOM     23  C   UNL     1       5.838   4.729  19.142  0.00  0.00    +0.000 A 
ENDBRANCH  15  17
ENDBRANCH   1  15
TORSDOF 3
ENDMDL
MODEL 5
REMARK VINA RESULT:      -7.6      3.865      5.333
REMARK  Name = 
REMARK  4 active torsions:
REMARK  status: ('A' for Active; 'I' for Inactive)
REMARK    1  A    between atoms: C_1  and  C_2
REMARK    2  A    between atoms: C_3  and  S_4
REMARK    3  A    between atoms: S_4  and  N_7
REMARK    4  A    between atoms: N_7  and  C_8
REMARK                            x       y       z     vdW  Elec       q    Type
REMARK                         _______ _______ _______ _____ _____    ______ ____
ROOT
ATOM      1  S   UNL     1       2.840   2.997  18.092  0.00  0.00    +0.000 S 
ATOM      2  O   UNL     1       2.153   2.000  18.882  0.00  0.00    +0.000 OA
ATOM      3  O   UNL     1       2.586   3.132  16.673  0.00  0.00    +0.000 OA
ENDROOT
BRANCH   1   6
ATOM      4  C   UNL     1       1.966   4.053  21.303  0.00  0.00    +0.000 C 
ATOM      5  C   UNL     1       2.074   4.968  20.124  0.00  0.00    +0.000 A 
ATOM      6  C   UNL     1       2.415   4.584  18.833  0.00  0.00    +0.000 A 
ATOM      7  S   UNL     1       2.500   5.926  17.777  0.00  0.00    +0.000 S 
ATOM      8  C   UNL     1       2.006   7.035  18.986  0.00  0.00    +0.000 A 
ATOM      9  C   UNL     1       1.802   8.423  18.833  0.00  0.00    +0.000 A 
ATOM     10  C   UNL     1       1.410   9.179  19.940  0.00  0.00    +0.000 A 
ATOM     11  C   UNL     1       1.228   8.569  21.170  0.00  0.00    +0.000 A 
ATOM     12 CL   UNL     1       0.748   9.508  22.529  0.00  0.00    +0.000 Cl
ATOM     13  C   UNL     1       1.429   7.194  21.321  0.00  0.00    +0.000 A 
ATOM     14  C   UNL     1       1.821   6.396  20.213  0.00  0.00    +0.000 A 
ENDBRANCH   1   6
BRANCH   1  15
ATOM     15  N   UNL     1       4.519   2.799  18.258  0.00  0.00    +0.000 N 
ATOM     16  H   UNL     1       4.814   1.963  17.754  0.00  0.00    +0.000 HD
BRANCH  15  17
ATOM     17  C   UNL     1       5.332   3.951  18.067  0.00  0.00    +0.000 A 
ATOM     18  C   UNL     1       5.781   4.676  19.173  0.00  0.00    +0.000 A 
ATOM     19  C   UNL     1       6.546   5.831  18.985  0.00  0.00    +0.000 A 
ATOM     20  C   UNL     1       6.840   6.263  17.693  0.00  0.00    +0.000 A 
ATOM     21 CL   UNL     1       7.767   7.694  17.457  0.00  0.00    +0.000 Cl
ATOM     22  C   UNL     1       6.382   5.548  16.587  0.00  0.00    +0.000 A 
ATOM     23  C   UNL     1       5.628   4.387  16.775  0.00  0.00    +0.000 A 
ENDBRANCH  15  17
ENDBRANCH   1  15
TORSDOF 3
ENDMDL
MODEL 6
REMARK VINA RESULT:      -7.5      3.819      7.030
REMARK  Name = 
REMARK  4 active torsions:
REMARK  status: ('A' for Active; 'I' for Inactive)
REMARK    1  A    between atoms: C_1  and  C_2
REMARK    2  A    between atoms: C_3  and  S_4
REMARK    3  A    between atoms: S_4  and  N_7
REMARK    4  A    between atoms: N_7  and  C_8
REMARK                            x       y       z     vdW  Elec       q    Type
REMARK                         _______ _______ _______ _____ _____    ______ ____
ROOT
ATOM      1  S   UNL     1       2.321   4.121  20.195  0.00  0.00    +0.000 S 
ATOM      2  O   UNL     1       1.024   4.093  19.557  0.00  0.00    +0.000 OA
ATOM      3  O   UNL     1       2.749   3.046  21.066  0.00  0.00    +0.000 OA
ENDROOT
BRANCH   1   6
ATOM      4  C   UNL     1       2.178   3.621  16.742  0.00  0.00    +0.000 C 
ATOM      5  C   UNL     1       3.427   3.988  17.482  0.00  0.00    +0.000 A 
ATOM      6  C   UNL     1       3.522   4.190  18.853  0.00  0.00    +0.000 A 
ATOM      7  S   UNL     1       5.099   4.662  19.313  0.00  0.00    +0.000 S 
ATOM      8  C   UNL     1       5.711   4.527  17.718  0.00  0.00    +0.000 A 
ATOM      9  C   UNL     1       7.042   4.743  17.298  0.00  0.00    +0.000 A 
ATOM     10  C   UNL     1       7.359   4.600  15.946  0.00  0.00    +0.000 A 
ATOM     11  C   UNL     1       6.376   4.254  15.032  0.00  0.00    +0.000 A 
ATOM     12 CL   UNL     1       6.777   4.084  13.368  0.00  0.00    +0.000 Cl
ATOM     13  C   UNL     1       5.060   4.039  15.449  0.00  0.00    +0.000 A 
ATOM     14  C   UNL     1       4.706   4.169  16.819  0.00  0.00    +0.000 A 
ENDBRANCH   1   6
BRANCH   1  15
ATOM     15  N   UNL     1       2.486   5.554  21.092  0.00  0.00    +0.000 N 
ATOM     16  H   UNL     1       3.398   5.567  21.547  0.00  0.00    +0.000 HD
BRANCH  15  17
ATOM     17  C   UNL     1       2.098   6.766  20.457  0.00  0.00    +0.000 A 
ATOM     18  C   UNL     1       1.270   7.668  21.128  0.00  0.00    +0.000 A 
ATOM     19  C   UNL     1       0.855   8.841  20.490  0.00  0.00    +0.000 A 
ATOM     20  C   UNL     1       1.255   9.094  19.179  0.00  0.00    +0.000 A 
ATOM     21 CL   UNL     1       0.733  10.527  18.384  0.00  0.00    +0.000 Cl
ATOM     22  C   UNL     1       2.070   8.187  18.502  0.00  0.00    +0.000 A 
ATOM     23  C   UNL     1       2.496   7.022  19.144  0.00  0.00    +0.000 A 
ENDBRANCH  15  17
ENDBRANCH   1  15
TORSDOF 3
ENDMDL
MODEL 7
REMARK VINA RESULT:      -7.4      4.421      5.673
REMARK  Name = 
REMARK  4 active torsions:
REMARK  status: ('A' for Active; 'I' for Inactive)
REMARK    1  A    between atoms: C_1  and  C_2
REMARK    2  A    between atoms: C_3  and  S_4
REMARK    3  A    between atoms: S_4  and  N_7
REMARK    4  A    between atoms: N_7  and  C_8
REMARK                            x       y       z     vdW  Elec       q    Type
REMARK                         _______ _______ _______ _____ _____    ______ ____
ROOT
ATOM      1  S   UNL     1       2.803   5.736  19.119  0.00  0.00    +0.000 S 
ATOM      2  O   UNL     1       2.853   4.884  20.285  0.00  0.00    +0.000 OA
ATOM      3  O   UNL     1       2.107   5.322  17.919  0.00  0.00    +0.000 OA
ENDROOT
BRANCH   1   6
ATOM      4  C   UNL     1       2.267   8.875  17.685  0.00  0.00    +0.000 C 
ATOM      5  C   UNL     1       1.808   8.494  19.058  0.00  0.00    +0.000 A 
ATOM      6  C   UNL     1       2.007   7.259  19.662  0.00  0.00    +0.000 A 
ATOM      7  S   UNL     1       1.278   7.187  21.206  0.00  0.00    +0.000 S 
ATOM      8  C   UNL     1       0.754   8.818  21.144  0.00  0.00    +0.000 A 
ATOM      9  C   UNL     1       0.064   9.527  22.151  0.00  0.00    +0.000 A 
ATOM     10  C   UNL     1      -0.297  10.856  21.920  0.00  0.00    +0.000 A 
ATOM     11  C   UNL     1       0.018  11.464  20.716  0.00  0.00    +0.000 A 
ATOM     12 CL   UNL     1      -0.435  13.100  20.439  0.00  0.00    +0.000 Cl
ATOM     13  C   UNL     1       0.702  10.762  19.720  0.00  0.00    +0.000 A 
ATOM     14  C   UNL     1       1.090   9.411  19.926  0.00  0.00    +0.000 A 
ENDBRANCH   1   6
BRANCH   1  15
ATOM     15  N   UNL     1       4.382   6.138  18.638  0.00  0.00    +0.000 N 
ATOM     16  H   UNL     1       5.014   6.045  19.433  0.00  0.00    +0.000 HD
BRANCH  15  17
ATOM     17  C   UNL     1       4.849   5.585  17.414  0.00  0.00    +0.000 A 
ATOM     18  C   UNL     1       4.986   6.402  16.289  0.00  0.00    +0.000 A 
ATOM     19  C   UNL     1       5.406   5.852  15.075  0.00  0.00    +0.000 A 
ATOM     20  C   UNL     1       5.668   4.485  14.988  0.00  0.00    +0.000 A 
ATOM     21 CL   UNL     1       6.169   3.801  13.492  0.00  0.00    +0.000 Cl
ATOM     22  C   UNL     1       5.520   3.665  16.107  0.00  0.00    +0.000 A 
ATOM     23  C   UNL     1       5.112   4.218  17.323  0.00  0.00    +0.000 A 
ENDBRANCH  15  17
ENDBRANCH   1  15
TORSDOF 3
ENDMDL
MODEL 8
REMARK VINA RESULT:      -7.4      4.013      5.354
REMARK  Name = 
REMARK  4 active torsions:
REMARK  status: ('A' for Active; 'I' for Inactive)
REMARK    1  A    between atoms: C_1  and  C_2
REMARK    2  A    between atoms: C_3  and  S_4
REMARK    3  A    between atoms: S_4  and  N_7
REMARK    4  A    between atoms: N_7  and  C_8
REMARK                            x       y       z     vdW  Elec       q    Type
REMARK                         _______ _______ _______ _____ _____    ______ ____
ROOT
ATOM      1  S   UNL     1       4.143   3.278  18.495  0.00  0.00    +0.000 S 
ATOM      2  O   UNL     1       4.687   2.772  19.735  0.00  0.00    +0.000 OA
ATOM      3  O   UNL     1       3.187   2.508  17.728  0.00  0.00    +0.000 OA
ENDROOT
BRANCH   1   6
ATOM      4  C   UNL     1       2.482   4.483  21.320  0.00  0.00    +0.000 C 
ATOM      5  C   UNL     1       2.671   5.272  20.062  0.00  0.00    +0.000 A 
ATOM      6  C   UNL     1       3.321   4.825  18.919  0.00  0.00    +0.000 A 
ATOM      7  S   UNL     1       3.392   6.039  17.717  0.00  0.00    +0.000 S 
ATOM      8  C   UNL     1       2.490   7.156  18.653  0.00  0.00    +0.000 A 
ATOM      9  C   UNL     1       2.094   8.456  18.273  0.00  0.00    +0.000 A 
ATOM     10  C   UNL     1       1.368   9.236  19.176  0.00  0.00    +0.000 A 
ATOM     11  C   UNL     1       1.048   8.736  20.428  0.00  0.00    +0.000 A 
ATOM     12 CL   UNL     1       0.157   9.707  21.534  0.00  0.00    +0.000 Cl
ATOM     13  C   UNL     1       1.440   7.448  20.803  0.00  0.00    +0.000 A 
ATOM     14  C   UNL     1       2.172   6.626  19.905  0.00  0.00    +0.000 A 
ENDBRANCH   1   6
BRANCH   1  15
ATOM     15  N   UNL     1       5.411   3.658  17.429  0.00  0.00    +0.000 N 
ATOM     16  H   UNL     1       5.080   3.583  16.467  0.00  0.00    +0.000 HD
BRANCH  15  17
ATOM     17  C   UNL     1       6.185   4.814  17.725  0.00  0.00    +0.000 A 
ATOM     18  C   UNL     1       6.419   5.767  16.732  0.00  0.00    +0.000 A 
ATOM     19  C   UNL     1       7.214   6.883  17.011  0.00  0.00    +0.000 A 
ATOM     20  C   UNL     1       7.786   7.027  18.274  0.00  0.00    +0.000 A 
ATOM     21 CL   UNL     1       8.778   8.390  18.616  0.00  0.00    +0.000 Cl
ATOM     22  C   UNL     1       7.564   6.069  19.263  0.00  0.00    +0.000 A 
ATOM     23  C   UNL     1       6.759   4.961  18.989  0.00  0.00    +0.000 A 
ENDBRANCH  15  17
ENDBRANCH   1  15
TORSDOF 3
ENDMDL
MODEL 9
REMARK VINA RESULT:      -7.4      4.634      6.078
REMARK  Name = 
REMARK  4 active torsions:
REMARK  status: ('A' for Active; 'I' for Inactive)
REMARK    1  A    between atoms: C_1  and  C_2
REMARK    2  A    between atoms: C_3  and  S_4
REMARK    3  A    between atoms: S_4  and  N_7
REMARK    4  A    between atoms: N_7  and  C_8
REMARK                            x       y       z     vdW  Elec       q    Type
REMARK                         _______ _______ _______ _____ _____    ______ ____
ROOT
ATOM      1  S   UNL     1       2.528   5.808  19.515  0.00  0.00    +0.000 S 
ATOM      2  O   UNL     1       2.403   5.120  20.781  0.00  0.00    +0.000 OA
ATOM      3  O   UNL     1       1.878   5.305  18.324  0.00  0.00    +0.000 OA
ENDROOT
BRANCH   1   6
ATOM      4  C   UNL     1       2.220   8.688  17.566  0.00  0.00    +0.000 C 
ATOM      5  C   UNL     1       1.756   8.586  18.985  0.00  0.00    +0.000 A 
ATOM      6  C   UNL     1       1.866   7.461  19.791  0.00  0.00    +0.000 A 
ATOM      7  S   UNL     1       1.159   7.713  21.328  0.00  0.00    +0.000 S 
ATOM      8  C   UNL     1       0.767   9.346  20.988  0.00  0.00    +0.000 A 
ATOM      9  C   UNL     1       0.152  10.271  21.860  0.00  0.00    +0.000 A 
ATOM     10  C   UNL     1      -0.105  11.566  21.406  0.00  0.00    +0.000 A 
ATOM     11  C   UNL     1       0.237  11.932  20.114  0.00  0.00    +0.000 A 
ATOM     12 CL   UNL     1      -0.088  13.528  19.563  0.00  0.00    +0.000 Cl
ATOM     13  C   UNL     1       0.846  11.016  19.252  0.00  0.00    +0.000 A 
ATOM     14  C   UNL     1       1.129   9.693  19.686  0.00  0.00    +0.000 A 
ENDBRANCH   1   6
BRANCH   1  15
ATOM     15  N   UNL     1       4.171   5.983  19.122  0.00  0.00    +0.000 N 
ATOM     16  H   UNL     1       4.744   5.679  19.908  0.00  0.00    +0.000 HD
BRANCH  15  17
ATOM     17  C   UNL     1       4.587   5.521  17.843  0.00  0.00    +0.000 A 
ATOM     18  C   UNL     1       4.792   4.156  17.630  0.00  0.00    +0.000 A 
ATOM     19  C   UNL     1       5.239   3.704  16.385  0.00  0.00    +0.000 A 
ATOM     20  C   UNL     1       5.498   4.622  15.367  0.00  0.00    +0.000 A 
ATOM     21 CL   UNL     1       6.065   4.072  13.839  0.00  0.00    +0.000 Cl
ATOM     22  C   UNL     1       5.306   5.987  15.582  0.00  0.00    +0.000 A 
ATOM     23  C   UNL     1       4.846   6.437  16.822  0.00  0.00    +0.000 A 
ENDBRANCH  15  17
ENDBRANCH   1  15
TORSDOF 3
ENDMDL
