MODEL 1
REMARK VINA RESULT:      -6.9      0.000      0.000
REMARK  Name = 
REMARK  18 active torsions:
REMARK  status: ('A' for Active; 'I' for Inactive)
REMARK    1  A    between atoms: C_1  and  C_2
REMARK    2  A    between atoms: C_2  and  C_3
REMARK    3  A    between atoms: C_3  and  C_4
REMARK    4  A    between atoms: C_4  and  N_5
REMARK    5  A    between atoms: C_4  and  C_11
REMARK    6  A    between atoms: C_6  and  C_8
REMARK    7  A    between atoms: C_8  and  N_9
REMARK    8  A    between atoms: N_9  and  C_10
REMARK    9  A    between atoms: N_13  and  C_14
REMARK   10  A    between atoms: C_14  and  C_15
REMARK   11  A    between atoms: C_14  and  C_18
REMARK   12  A    between atoms: C_15  and  C_16
REMARK   13  A    between atoms: C_16  and  C_17
REMARK   14  A    between atoms: N_20  and  C_21
REMARK   15  A    between atoms: C_21  and  C_22
REMARK   16  A    between atoms: C_21  and  P_23
REMARK   17  A    between atoms: P_23  and  O_25
REMARK   18  A    between atoms: P_23  and  O_26
REMARK                            x       y       z     vdW  Elec       q    Type
REMARK                         _______ _______ _______ _____ _____    ______ ____
ROOT
ATOM      1  C   UNL     1       5.465   5.889  18.576  0.00  0.00    +0.000 C 
ATOM      2  O   UNL     1       5.715   5.323  19.638  0.00  0.00    +0.000 OA
ATOM      3  N   UNL     1       4.269   6.524  18.341  0.00  0.00    +0.000 N 
ATOM      4  H   UNL     1       4.238   7.254  17.626  0.00  0.00    +0.000 HD
ENDROOT
BRANCH   1   5
ATOM      5  C   UNL     1       6.482   5.978  17.418  0.00  0.00    +0.000 C 
BRANCH   5   6
ATOM      6  N   UNL     1       5.839   5.508  16.197  0.00  0.00    +0.000 N 
ATOM      7  C   UNL     1       6.541   4.773  15.258  0.00  0.00    +0.000 C 
ATOM      8  O   UNL     1       7.743   4.546  15.366  0.00  0.00    +0.000 OA
ATOM      9  H   UNL     1       4.829   5.429  16.207  0.00  0.00    +0.000 HD
BRANCH   7  10
ATOM     10  C   UNL     1       5.677   4.238  14.102  0.00  0.00    +0.000 C 
BRANCH  10  11
ATOM     11  N   UNL     1       6.508   3.577  13.081  0.00  0.00    +0.000 NA
ATOM     12  C   UNL     1       5.707   2.945  12.037  0.00  0.00    +0.000 C 
ATOM     13  H   UNL     1       7.060   2.855  13.553  0.00  0.00    +0.000 HD
ENDBRANCH  10  11
ENDBRANCH   7  10
ENDBRANCH   5   6
BRANCH   5  14
ATOM     14  C   UNL     1       6.926   7.435  17.243  0.00  0.00    +0.000 C 
BRANCH  14  16
ATOM     15  C   UNL     1       8.375   9.295  18.122  0.00  0.00    +0.000 C 
ATOM     16  C   UNL     1       8.117   7.799  18.134  0.00  0.00    +0.000 C 
ENDBRANCH  14  16
ENDBRANCH   5  14
ENDBRANCH   1   5
BRANCH   3  17
ATOM     17  C   UNL     1       3.174   6.470  19.304  0.00  0.00    +0.000 C 
BRANCH  17  18
ATOM     18  C   UNL     1       2.525   5.081  19.141  0.00  0.00    +0.000 C 
ATOM     19  O   UNL     1       1.704   4.829  18.260  0.00  0.00    +0.000 OA
ATOM     20  N   UNL     1       2.931   4.112  20.039  0.00  0.00    +0.000 N 
ATOM     21  H   UNL     1       3.803   4.231  20.541  0.00  0.00    +0.000 HD
BRANCH  20  22
ATOM     22  C   UNL     1       2.314   2.776  19.998  0.00  0.00    +0.000 C 
ATOM     23  C   UNL     1       1.676   2.442  21.342  0.00  0.00    +0.000 C 
BRANCH  22  24
ATOM     24  P   UNL     1       3.434   1.530  19.260  0.00  0.00    +0.000 P 
ATOM     25  O   UNL     1       3.000   1.882  17.834  0.00  0.00    +0.000 OA
BRANCH  24  26
ATOM     26  O   UNL     1       4.741   2.479  19.544  0.00  0.00    +0.000 OA
ATOM     27  H   UNL     1       5.578   2.029  19.343  0.00  0.00    +0.000 HD
ENDBRANCH  24  26
BRANCH  24  28
ATOM     28  O   UNL     1       4.493   0.353  18.564  0.00  0.00    +0.000 OA
ATOM     29  H   UNL     1       5.248   0.867  18.218  0.00  0.00    +0.000 HD
ENDBRANCH  24  28
ENDBRANCH  22  24
ENDBRANCH  20  22
ENDBRANCH  17  18
BRANCH  17  30
ATOM     30  C   UNL     1       2.195   7.628  19.056  0.00  0.00    +0.000 C 
BRANCH  30  31
ATOM     31  C   UNL     1       2.444   8.469  17.801  0.00  0.00    +0.000 C 
ATOM     32  C   UNL     1       1.835   9.862  17.856  0.00  0.00    +0.000 C 
ENDBRANCH  30  31
ENDBRANCH  17  30
ENDBRANCH   3  17
TORSDOF 14
ENDMDL
MODEL 2
REMARK VINA RESULT:      -6.3      1.256      1.309
REMARK  Name = 
REMARK  18 active torsions:
REMARK  status: ('A' for Active; 'I' for Inactive)
REMARK    1  A    between atoms: C_1  and  C_2
REMARK    2  A    between atoms: C_2  and  C_3
REMARK    3  A    between atoms: C_3  and  C_4
REMARK    4  A    between atoms: C_4  and  N_5
REMARK    5  A    between atoms: C_4  and  C_11
REMARK    6  A    between atoms: C_6  and  C_8
REMARK    7  A    between atoms: C_8  and  N_9
REMARK    8  A    between atoms: N_9  and  C_10
REMARK    9  A    between atoms: N_13  and  C_14
REMARK   10  A    between atoms: C_14  and  C_15
REMARK   11  A    between atoms: C_14  and  C_18
REMARK   12  A    between atoms: C_15  and  C_16
REMARK   13  A    between atoms: C_16  and  C_17
REMARK   14  A    between atoms: N_20  and  C_21
REMARK   15  A    between atoms: C_21  and  C_22
REMARK   16  A    between atoms: C_21  and  P_23
REMARK   17  A    between atoms: P_23  and  O_25
REMARK   18  A    between atoms: P_23  and  O_26
REMARK                            x       y       z     vdW  Elec       q    Type
REMARK                         _______ _______ _______ _____ _____    ______ ____
ROOT
ATOM      1  C   UNL     1       6.096   5.827  18.760  0.00  0.00    +0.000 C 
ATOM      2  O   UNL     1       5.857   5.350  19.867  0.00  0.00    +0.000 OA
ATOM      3  N   UNL     1       5.135   6.453  18.003  0.00  0.00    +0.000 N 
ATOM      4  H   UNL     1       5.436   7.121  17.289  0.00  0.00    +0.000 HD
ENDROOT
BRANCH   1   5
ATOM      5  C   UNL     1       7.504   5.807  18.129  0.00  0.00    +0.000 C 
BRANCH   5   6
ATOM      6  N   UNL     1       7.364   5.755  16.678  0.00  0.00    +0.000 N 
ATOM      7  C   UNL     1       6.706   4.705  16.062  0.00  0.00    +0.000 C 
ATOM      8  O   UNL     1       6.280   3.739  16.687  0.00  0.00    +0.000 OA
ATOM      9  H   UNL     1       7.442   6.631  16.175  0.00  0.00    +0.000 HD
BRANCH   7  10
ATOM     10  C   UNL     1       6.525   4.880  14.543  0.00  0.00    +0.000 C 
BRANCH  10  11
ATOM     11  N   UNL     1       7.719   5.492  13.934  0.00  0.00    +0.000 NA
ATOM     12  C   UNL     1       7.800   5.242  12.498  0.00  0.00    +0.000 C 
ATOM     13  H   UNL     1       8.541   5.079  14.386  0.00  0.00    +0.000 HD
ENDBRANCH  10  11
ENDBRANCH   7  10
ENDBRANCH   5   6
BRANCH   5  14
ATOM     14  C   UNL     1       8.260   7.079  18.531  0.00  0.00    +0.000 C 
BRANCH  14  16
ATOM     15  C   UNL     1       8.487   9.564  18.203  0.00  0.00    +0.000 C 
ATOM     16  C   UNL     1       7.914   8.275  17.639  0.00  0.00    +0.000 C 
ENDBRANCH  14  16
ENDBRANCH   5  14
ENDBRANCH   1   5
BRANCH   3  17
ATOM     17  C   UNL     1       3.738   6.492  18.422  0.00  0.00    +0.000 C 
BRANCH  17  18
ATOM     18  C   UNL     1       3.192   5.063  18.236  0.00  0.00    +0.000 C 
ATOM     19  O   UNL     1       3.003   4.560  17.129  0.00  0.00    +0.000 OA
ATOM     20  N   UNL     1       2.936   4.355  19.395  0.00  0.00    +0.000 N 
ATOM     21  H   UNL     1       3.371   4.645  20.263  0.00  0.00    +0.000 HD
BRANCH  20  22
ATOM     22  C   UNL     1       2.351   3.008  19.313  0.00  0.00    +0.000 C 
ATOM     23  C   UNL     1       1.205   2.861  20.309  0.00  0.00    +0.000 C 
BRANCH  22  24
ATOM     24  P   UNL     1       3.636   1.705  19.304  0.00  0.00    +0.000 P 
ATOM     25  O   UNL     1       3.419   1.401  17.818  0.00  0.00    +0.000 OA
BRANCH  24  26
ATOM     26  O   UNL     1       4.830   2.828  19.330  0.00  0.00    +0.000 OA
ATOM     27  H   UNL     1       5.513   2.661  18.659  0.00  0.00    +0.000 HD
ENDBRANCH  24  26
BRANCH  24  28
ATOM     28  O   UNL     1       4.852   0.474  19.297  0.00  0.00    +0.000 OA
ATOM     29  H   UNL     1       5.699   0.956  19.355  0.00  0.00    +0.000 HD
ENDBRANCH  24  28
ENDBRANCH  22  24
ENDBRANCH  20  22
ENDBRANCH  17  18
BRANCH  17  30
ATOM     30  C   UNL     1       2.971   7.544  17.606  0.00  0.00    +0.000 C 
BRANCH  30  31
ATOM     31  C   UNL     1       1.946   8.384  18.374  0.00  0.00    +0.000 C 
ATOM     32  C   UNL     1       1.876   9.837  17.929  0.00  0.00    +0.000 C 
ENDBRANCH  30  31
ENDBRANCH  17  30
ENDBRANCH   3  17
TORSDOF 14
ENDMDL
MODEL 3
REMARK VINA RESULT:      -6.2      1.663      3.772
REMARK  Name = 
REMARK  18 active torsions:
REMARK  status: ('A' for Active; 'I' for Inactive)
REMARK    1  A    between atoms: C_1  and  C_2
REMARK    2  A    between atoms: C_2  and  C_3
REMARK    3  A    between atoms: C_3  and  C_4
REMARK    4  A    between atoms: C_4  and  N_5
REMARK    5  A    between atoms: C_4  and  C_11
REMARK    6  A    between atoms: C_6  and  C_8
REMARK    7  A    between atoms: C_8  and  N_9
REMARK    8  A    between atoms: N_9  and  C_10
REMARK    9  A    between atoms: N_13  and  C_14
REMARK   10  A    between atoms: C_14  and  C_15
REMARK   11  A    between atoms: C_14  and  C_18
REMARK   12  A    between atoms: C_15  and  C_16
REMARK   13  A    between atoms: C_16  and  C_17
REMARK   14  A    between atoms: N_20  and  C_21
REMARK   15  A    between atoms: C_21  and  C_22
REMARK   16  A    between atoms: C_21  and  P_23
REMARK   17  A    between atoms: P_23  and  O_25
REMARK   18  A    between atoms: P_23  and  O_26
REMARK                            x       y       z     vdW  Elec       q    Type
REMARK                         _______ _______ _______ _____ _____    ______ ____
ROOT
ATOM      1  C   UNL     1       5.168   6.126  18.007  0.00  0.00    +0.000 C 
ATOM      2  O   UNL     1       5.467   5.340  18.904  0.00  0.00    +0.000 OA
ATOM      3  N   UNL     1       4.008   6.862  18.029  0.00  0.00    +0.000 N 
ATOM      4  H   UNL     1       3.969   7.725  17.481  0.00  0.00    +0.000 HD
ENDROOT
BRANCH   1   5
ATOM      5  C   UNL     1       6.080   6.392  16.792  0.00  0.00    +0.000 C 
BRANCH   5   6
ATOM      6  N   UNL     1       6.760   7.667  16.990  0.00  0.00    +0.000 N 
ATOM      7  C   UNL     1       7.771   7.798  17.925  0.00  0.00    +0.000 C 
ATOM      8  O   UNL     1       8.093   6.884  18.678  0.00  0.00    +0.000 OA
ATOM      9  H   UNL     1       6.725   8.332  16.227  0.00  0.00    +0.000 HD
BRANCH   7  10
ATOM     10  C   UNL     1       8.474   9.167  17.903  0.00  0.00    +0.000 C 
BRANCH  10  11
ATOM     11  N   UNL     1       9.123   9.450  19.195  0.00  0.00    +0.000 NA
ATOM     12  C   UNL     1       9.498  10.854  19.333  0.00  0.00    +0.000 C 
ATOM     13  H   UNL     1       9.972   8.878  19.244  0.00  0.00    +0.000 HD
ENDBRANCH  10  11
ENDBRANCH   7  10
ENDBRANCH   5   6
BRANCH   5  14
ATOM     14  C   UNL     1       7.114   5.265  16.677  0.00  0.00    +0.000 C 
BRANCH  14  16
ATOM     15  C   UNL     1       5.828   3.901  14.999  0.00  0.00    +0.000 C 
ATOM     16  C   UNL     1       7.132   4.623  15.287  0.00  0.00    +0.000 C 
ENDBRANCH  14  16
ENDBRANCH   5  14
ENDBRANCH   1   5
BRANCH   3  17
ATOM     17  C   UNL     1       3.002   6.674  19.070  0.00  0.00    +0.000 C 
BRANCH  17  18
ATOM     18  C   UNL     1       2.373   5.290  18.815  0.00  0.00    +0.000 C 
ATOM     19  O   UNL     1       1.655   5.053  17.845  0.00  0.00    +0.000 OA
ATOM     20  N   UNL     1       2.672   4.308  19.740  0.00  0.00    +0.000 N 
ATOM     21  H   UNL     1       3.482   4.417  20.339  0.00  0.00    +0.000 HD
BRANCH  20  22
ATOM     22  C   UNL     1       2.061   2.975  19.611  0.00  0.00    +0.000 C 
ATOM     23  C   UNL     1       1.278   2.624  20.872  0.00  0.00    +0.000 C 
BRANCH  22  24
ATOM     24  P   UNL     1       3.253   1.736  18.984  0.00  0.00    +0.000 P 
ATOM     25  O   UNL     1       2.838   1.971  17.528  0.00  0.00    +0.000 OA
BRANCH  24  26
ATOM     26  O   UNL     1       4.509   2.761  19.230  0.00  0.00    +0.000 OA
ATOM     27  H   UNL     1       5.322   2.296  19.492  0.00  0.00    +0.000 HD
ENDBRANCH  24  26
BRANCH  24  28
ATOM     28  O   UNL     1       4.379   0.565  18.391  0.00  0.00    +0.000 OA
ATOM     29  H   UNL     1       4.090  -0.283  18.779  0.00  0.00    +0.000 HD
ENDBRANCH  24  28
ENDBRANCH  22  24
ENDBRANCH  20  22
ENDBRANCH  17  18
BRANCH  17  30
ATOM     30  C   UNL     1       1.980   7.821  19.030  0.00  0.00    +0.000 C 
BRANCH  30  31
ATOM     31  C   UNL     1       2.013   8.716  17.787  0.00  0.00    +0.000 C 
ATOM     32  C   UNL     1       1.775  10.190  18.078  0.00  0.00    +0.000 C 
ENDBRANCH  30  31
ENDBRANCH  17  30
ENDBRANCH   3  17
TORSDOF 14
ENDMDL
MODEL 4
REMARK VINA RESULT:      -6.1      3.485      6.719
REMARK  Name = 
REMARK  18 active torsions:
REMARK  status: ('A' for Active; 'I' for Inactive)
REMARK    1  A    between atoms: C_1  and  C_2
REMARK    2  A    between atoms: C_2  and  C_3
REMARK    3  A    between atoms: C_3  and  C_4
REMARK    4  A    between atoms: C_4  and  N_5
REMARK    5  A    between atoms: C_4  and  C_11
REMARK    6  A    between atoms: C_6  and  C_8
REMARK    7  A    between atoms: C_8  and  N_9
REMARK    8  A    between atoms: N_9  and  C_10
REMARK    9  A    between atoms: N_13  and  C_14
REMARK   10  A    between atoms: C_14  and  C_15
REMARK   11  A    between atoms: C_14  and  C_18
REMARK   12  A    between atoms: C_15  and  C_16
REMARK   13  A    between atoms: C_16  and  C_17
REMARK   14  A    between atoms: N_20  and  C_21
REMARK   15  A    between atoms: C_21  and  C_22
REMARK   16  A    between atoms: C_21  and  P_23
REMARK   17  A    between atoms: P_23  and  O_25
REMARK   18  A    between atoms: P_23  and  O_26
REMARK                            x       y       z     vdW  Elec       q    Type
REMARK                         _______ _______ _______ _____ _____    ______ ____
ROOT
ATOM      1  C   UNL     1       1.689   8.973  18.591  0.00  0.00    +0.000 C 
ATOM      2  O   UNL     1       1.782   9.472  17.472  0.00  0.00    +0.000 OA
ATOM      3  N   UNL     1       2.158   7.713  18.878  0.00  0.00    +0.000 N 
ATOM      4  H   UNL     1       2.380   7.486  19.850  0.00  0.00    +0.000 HD
ENDROOT
BRANCH   1   5
ATOM      5  C   UNL     1       1.074   9.722  19.791  0.00  0.00    +0.000 C 
BRANCH   5   6
ATOM      6  N   UNL     1      -0.211  10.278  19.384  0.00  0.00    +0.000 N 
ATOM      7  C   UNL     1      -0.372  11.640  19.197  0.00  0.00    +0.000 C 
ATOM      8  O   UNL     1       0.523  12.446  19.433  0.00  0.00    +0.000 OA
ATOM      9  H   UNL     1      -0.860   9.653  18.922  0.00  0.00    +0.000 HD
BRANCH   7  10
ATOM     10  C   UNL     1      -1.747  12.039  18.632  0.00  0.00    +0.000 C 
BRANCH  10  11
ATOM     11  N   UNL     1      -1.720  12.092  17.160  0.00  0.00    +0.000 NA
ATOM     12  C   UNL     1      -2.527  11.039  16.551  0.00  0.00    +0.000 C 
ATOM     13  H   UNL     1      -0.746  11.970  16.866  0.00  0.00    +0.000 HD
ENDBRANCH  10  11
ENDBRANCH   7  10
ENDBRANCH   5   6
BRANCH   5  14
ATOM     14  C   UNL     1       0.870   8.741  20.952  0.00  0.00    +0.000 C 
BRANCH  14  16
ATOM     15  C   UNL     1      -0.242   9.591  23.044  0.00  0.00    +0.000 C 
ATOM     16  C   UNL     1       1.079   9.398  22.321  0.00  0.00    +0.000 C 
ENDBRANCH  14  16
ENDBRANCH   5  14
ENDBRANCH   1   5
BRANCH   3  17
ATOM     17  C   UNL     1       2.700   6.844  17.838  0.00  0.00    +0.000 C 
BRANCH  17  18
ATOM     18  C   UNL     1       2.261   5.412  18.202  0.00  0.00    +0.000 C 
ATOM     19  O   UNL     1       1.475   4.761  17.516  0.00  0.00    +0.000 OA
ATOM     20  N   UNL     1       2.817   4.880  19.351  0.00  0.00    +0.000 N 
ATOM     21  H   UNL     1       3.668   5.282  19.725  0.00  0.00    +0.000 HD
BRANCH  20  22
ATOM     22  C   UNL     1       2.404   3.544  19.809  0.00  0.00    +0.000 C 
ATOM     23  C   UNL     1       2.298   3.512  21.331  0.00  0.00    +0.000 C 
BRANCH  22  24
ATOM     24  P   UNL     1       3.369   2.216  19.001  0.00  0.00    +0.000 P 
ATOM     25  O   UNL     1       4.074   1.837  20.307  0.00  0.00    +0.000 OA
BRANCH  24  26
ATOM     26  O   UNL     1       2.052   1.242  18.940  0.00  0.00    +0.000 OA
ATOM     27  H   UNL     1       2.198   0.390  19.384  0.00  0.00    +0.000 HD
ENDBRANCH  24  26
BRANCH  24  28
ATOM     28  O   UNL     1       4.281   0.960  18.237  0.00  0.00    +0.000 OA
ATOM     29  H   UNL     1       4.196   0.190  18.831  0.00  0.00    +0.000 HD
ENDBRANCH  24  28
ENDBRANCH  22  24
ENDBRANCH  20  22
ENDBRANCH  17  18
BRANCH  17  30
ATOM     30  C   UNL     1       4.225   7.008  17.755  0.00  0.00    +0.000 C 
BRANCH  30  31
ATOM     31  C   UNL     1       4.892   6.506  16.471  0.00  0.00    +0.000 C 
ATOM     32  C   UNL     1       6.289   5.940  16.678  0.00  0.00    +0.000 C 
ENDBRANCH  30  31
ENDBRANCH  17  30
ENDBRANCH   3  17
TORSDOF 14
ENDMDL
MODEL 5
REMARK VINA RESULT:      -6.1      3.653      6.782
REMARK  Name = 
REMARK  18 active torsions:
REMARK  status: ('A' for Active; 'I' for Inactive)
REMARK    1  A    between atoms: C_1  and  C_2
REMARK    2  A    between atoms: C_2  and  C_3
REMARK    3  A    between atoms: C_3  and  C_4
REMARK    4  A    between atoms: C_4  and  N_5
REMARK    5  A    between atoms: C_4  and  C_11
REMARK    6  A    between atoms: C_6  and  C_8
REMARK    7  A    between atoms: C_8  and  N_9
REMARK    8  A    between atoms: N_9  and  C_10
REMARK    9  A    between atoms: N_13  and  C_14
REMARK   10  A    between atoms: C_14  and  C_15
REMARK   11  A    between atoms: C_14  and  C_18
REMARK   12  A    between atoms: C_15  and  C_16
REMARK   13  A    between atoms: C_16  and  C_17
REMARK   14  A    between atoms: N_20  and  C_21
REMARK   15  A    between atoms: C_21  and  C_22
REMARK   16  A    between atoms: C_21  and  P_23
REMARK   17  A    between atoms: P_23  and  O_25
REMARK   18  A    between atoms: P_23  and  O_26
REMARK                            x       y       z     vdW  Elec       q    Type
REMARK                         _______ _______ _______ _____ _____    ______ ____
ROOT
ATOM      1  C   UNL     1       1.759   8.680  18.479  0.00  0.00    +0.000 C 
ATOM      2  O   UNL     1       1.813   9.014  17.297  0.00  0.00    +0.000 OA
ATOM      3  N   UNL     1       2.364   7.540  18.952  0.00  0.00    +0.000 N 
ATOM      4  H   UNL     1       2.594   7.488  19.947  0.00  0.00    +0.000 HD
ENDROOT
BRANCH   1   5
ATOM      5  C   UNL     1       1.044   9.526  19.554  0.00  0.00    +0.000 C 
BRANCH   5   6
ATOM      6  N   UNL     1      -0.300   9.838  19.082  0.00  0.00    +0.000 N 
ATOM      7  C   UNL     1      -0.620  11.106  18.630  0.00  0.00    +0.000 C 
ATOM      8  O   UNL     1       0.175  12.040  18.672  0.00  0.00    +0.000 OA
ATOM      9  H   UNL     1      -0.874   9.062  18.775  0.00  0.00    +0.000 HD
BRANCH   7  10
ATOM     10  C   UNL     1      -2.037  11.224  18.038  0.00  0.00    +0.000 C 
BRANCH  10  11
ATOM     11  N   UNL     1      -1.992  11.724  16.653  0.00  0.00    +0.000 NA
ATOM     12  C   UNL     1      -2.806  10.921  15.746  0.00  0.00    +0.000 C 
ATOM     13  H   UNL     1      -1.017  11.683  16.343  0.00  0.00    +0.000 HD
ENDBRANCH  10  11
ENDBRANCH   7  10
ENDBRANCH   5   6
BRANCH   5  14
ATOM     14  C   UNL     1       0.963   8.725  20.859  0.00  0.00    +0.000 C 
BRANCH  14  16
ATOM     15  C   UNL     1      -0.375   9.444  22.866  0.00  0.00    +0.000 C 
ATOM     16  C   UNL     1       0.924   9.623  22.099  0.00  0.00    +0.000 C 
ENDBRANCH  14  16
ENDBRANCH   5  14
ENDBRANCH   1   5
BRANCH   3  17
ATOM     17  C   UNL     1       3.017   6.593  18.053  0.00  0.00    +0.000 C 
BRANCH  17  18
ATOM     18  C   UNL     1       3.413   5.381  18.920  0.00  0.00    +0.000 C 
ATOM     19  O   UNL     1       4.349   5.409  19.717  0.00  0.00    +0.000 OA
ATOM     20  N   UNL     1       2.640   4.246  18.764  0.00  0.00    +0.000 N 
ATOM     21  H   UNL     1       1.716   4.323  18.357  0.00  0.00    +0.000 HD
BRANCH  20  22
ATOM     22  C   UNL     1       2.987   3.021  19.502  0.00  0.00    +0.000 C 
ATOM     23  C   UNL     1       3.154   1.848  18.541  0.00  0.00    +0.000 C 
BRANCH  22  24
ATOM     24  P   UNL     1       1.908   2.773  20.960  0.00  0.00    +0.000 P 
ATOM     25  O   UNL     1       3.086   2.370  21.852  0.00  0.00    +0.000 OA
BRANCH  24  26
ATOM     26  O   UNL     1       1.758   4.392  21.173  0.00  0.00    +0.000 OA
ATOM     27  H   UNL     1       1.722   4.877  20.331  0.00  0.00    +0.000 HD
ENDBRANCH  24  26
BRANCH  24  28
ATOM     28  O   UNL     1       0.888   2.540  22.337  0.00  0.00    +0.000 OA
ATOM     29  H   UNL     1       1.427   2.821  23.101  0.00  0.00    +0.000 HD
ENDBRANCH  24  28
ENDBRANCH  22  24
ENDBRANCH  20  22
ENDBRANCH  17  18
BRANCH  17  30
ATOM     30  C   UNL     1       4.216   7.261  17.363  0.00  0.00    +0.000 C 
BRANCH  30  31
ATOM     31  C   UNL     1       4.999   6.393  16.374  0.00  0.00    +0.000 C 
ATOM     32  C   UNL     1       6.460   6.193  16.747  0.00  0.00    +0.000 C 
ENDBRANCH  30  31
ENDBRANCH  17  30
ENDBRANCH   3  17
TORSDOF 14
ENDMDL
MODEL 6
REMARK VINA RESULT:      -6.1      3.326      6.625
REMARK  Name = 
REMARK  18 active torsions:
REMARK  status: ('A' for Active; 'I' for Inactive)
REMARK    1  A    between atoms: C_1  and  C_2
REMARK    2  A    between atoms: C_2  and  C_3
REMARK    3  A    between atoms: C_3  and  C_4
REMARK    4  A    between atoms: C_4  and  N_5
REMARK    5  A    between atoms: C_4  and  C_11
REMARK    6  A    between atoms: C_6  and  C_8
REMARK    7  A    between atoms: C_8  and  N_9
REMARK    8  A    between atoms: N_9  and  C_10
REMARK    9  A    between atoms: N_13  and  C_14
REMARK   10  A    between atoms: C_14  and  C_15
REMARK   11  A    between atoms: C_14  and  C_18
REMARK   12  A    between atoms: C_15  and  C_16
REMARK   13  A    between atoms: C_16  and  C_17
REMARK   14  A    between atoms: N_20  and  C_21
REMARK   15  A    between atoms: C_21  and  C_22
REMARK   16  A    between atoms: C_21  and  P_23
REMARK   17  A    between atoms: P_23  and  O_25
REMARK   18  A    between atoms: P_23  and  O_26
REMARK                            x       y       z     vdW  Elec       q    Type
REMARK                         _______ _______ _______ _____ _____    ______ ____
ROOT
ATOM      1  C   UNL     1       1.913   8.621  18.522  0.00  0.00    +0.000 C 
ATOM      2  O   UNL     1       2.043   9.130  17.411  0.00  0.00    +0.000 OA
ATOM      3  N   UNL     1       2.249   7.313  18.778  0.00  0.00    +0.000 N 
ATOM      4  H   UNL     1       2.458   7.044  19.742  0.00  0.00    +0.000 HD
ENDROOT
BRANCH   1   5
ATOM      5  C   UNL     1       1.399   9.408  19.745  0.00  0.00    +0.000 C 
BRANCH   5   6
ATOM      6  N   UNL     1       0.221  10.170  19.348  0.00  0.00    +0.000 N 
ATOM      7  C   UNL     1       0.276  11.546  19.211  0.00  0.00    +0.000 C 
ATOM      8  O   UNL     1       1.280  12.195  19.487  0.00  0.00    +0.000 OA
ATOM      9  H   UNL     1      -0.509   9.670  18.855  0.00  0.00    +0.000 HD
BRANCH   7  10
ATOM     10  C   UNL     1      -1.012  12.174  18.648  0.00  0.00    +0.000 C 
BRANCH  10  11
ATOM     11  N   UNL     1      -2.114  11.195  18.628  0.00  0.00    +0.000 NA
ATOM     12  C   UNL     1      -2.854  11.219  17.370  0.00  0.00    +0.000 C 
ATOM     13  H   UNL     1      -2.755  11.438  19.389  0.00  0.00    +0.000 HD
ENDBRANCH  10  11
ENDBRANCH   7  10
ENDBRANCH   5   6
BRANCH   5  14
ATOM     14  C   UNL     1       1.026   8.424  20.862  0.00  0.00    +0.000 C 
BRANCH  14  16
ATOM     15  C   UNL     1       0.065   9.477  22.936  0.00  0.00    +0.000 C 
ATOM     16  C   UNL     1      -0.254   8.830  21.599  0.00  0.00    +0.000 C 
ENDBRANCH  14  16
ENDBRANCH   5  14
ENDBRANCH   1   5
BRANCH   3  17
ATOM     17  C   UNL     1       2.679   6.412  17.714  0.00  0.00    +0.000 C 
BRANCH  17  18
ATOM     18  C   UNL     1       2.340   4.986  18.193  0.00  0.00    +0.000 C 
ATOM     19  O   UNL     1       1.678   4.197  17.519  0.00  0.00    +0.000 OA
ATOM     20  N   UNL     1       2.837   4.627  19.431  0.00  0.00    +0.000 N 
ATOM     21  H   UNL     1       3.612   5.146  19.827  0.00  0.00    +0.000 HD
BRANCH  20  22
ATOM     22  C   UNL     1       2.505   3.309  19.995  0.00  0.00    +0.000 C 
ATOM     23  C   UNL     1       1.701   3.467  21.282  0.00  0.00    +0.000 C 
BRANCH  22  24
ATOM     24  P   UNL     1       3.960   2.200  20.038  0.00  0.00    +0.000 P 
ATOM     25  O   UNL     1       3.598   1.558  18.695  0.00  0.00    +0.000 OA
BRANCH  24  26
ATOM     26  O   UNL     1       4.964   3.437  19.651  0.00  0.00    +0.000 OA
ATOM     27  H   UNL     1       5.157   3.476  18.699  0.00  0.00    +0.000 HD
ENDBRANCH  24  26
BRANCH  24  28
ATOM     28  O   UNL     1       5.336   1.152  20.078  0.00  0.00    +0.000 OA
ATOM     29  H   UNL     1       5.617   1.141  21.013  0.00  0.00    +0.000 HD
ENDBRANCH  24  28
ENDBRANCH  22  24
ENDBRANCH  20  22
ENDBRANCH  17  18
BRANCH  17  30
ATOM     30  C   UNL     1       4.175   6.613  17.425  0.00  0.00    +0.000 C 
BRANCH  30  31
ATOM     31  C   UNL     1       4.883   5.473  16.688  0.00  0.00    +0.000 C 
ATOM     32  C   UNL     1       5.433   5.862  15.324  0.00  0.00    +0.000 C 
ENDBRANCH  30  31
ENDBRANCH  17  30
ENDBRANCH   3  17
TORSDOF 14
ENDMDL
MODEL 7
REMARK VINA RESULT:      -6.0      1.099      1.129
REMARK  Name = 
REMARK  18 active torsions:
REMARK  status: ('A' for Active; 'I' for Inactive)
REMARK    1  A    between atoms: C_1  and  C_2
REMARK    2  A    between atoms: C_2  and  C_3
REMARK    3  A    between atoms: C_3  and  C_4
REMARK    4  A    between atoms: C_4  and  N_5
REMARK    5  A    between atoms: C_4  and  C_11
REMARK    6  A    between atoms: C_6  and  C_8
REMARK    7  A    between atoms: C_8  and  N_9
REMARK    8  A    between atoms: N_9  and  C_10
REMARK    9  A    between atoms: N_13  and  C_14
REMARK   10  A    between atoms: C_14  and  C_15
REMARK   11  A    between atoms: C_14  and  C_18
REMARK   12  A    between atoms: C_15  and  C_16
REMARK   13  A    between atoms: C_16  and  C_17
REMARK   14  A    between atoms: N_20  and  C_21
REMARK   15  A    between atoms: C_21  and  C_22
REMARK   16  A    between atoms: C_21  and  P_23
REMARK   17  A    between atoms: P_23  and  O_25
REMARK   18  A    between atoms: P_23  and  O_26
REMARK                            x       y       z     vdW  Elec       q    Type
REMARK                         _______ _______ _______ _____ _____    ______ ____
ROOT
ATOM      1  C   UNL     1       5.291   6.686  17.193  0.00  0.00    +0.000 C 
ATOM      2  O   UNL     1       4.556   6.993  16.256  0.00  0.00    +0.000 OA
ATOM      3  N   UNL     1       4.814   6.469  18.463  0.00  0.00    +0.000 N 
ATOM      4  H   UNL     1       5.369   5.893  19.100  0.00  0.00    +0.000 HD
ENDROOT
BRANCH   1   5
ATOM      5  C   UNL     1       6.810   6.475  17.028  0.00  0.00    +0.000 C 
BRANCH   5   6
ATOM      6  N   UNL     1       7.067   5.965  15.686  0.00  0.00    +0.000 N 
ATOM      7  C   UNL     1       6.771   4.655  15.353  0.00  0.00    +0.000 C 
ATOM      8  O   UNL     1       6.355   3.845  16.176  0.00  0.00    +0.000 OA
ATOM      9  H   UNL     1       7.134   6.644  14.938  0.00  0.00    +0.000 HD
BRANCH   7  10
ATOM     10  C   UNL     1       6.971   4.324  13.863  0.00  0.00    +0.000 C 
BRANCH  10  11
ATOM     11  N   UNL     1       6.157   3.163  13.464  0.00  0.00    +0.000 NA
ATOM     12  C   UNL     1       5.838   3.171  12.040  0.00  0.00    +0.000 C 
ATOM     13  H   UNL     1       5.281   3.204  13.996  0.00  0.00    +0.000 HD
ENDBRANCH  10  11
ENDBRANCH   7  10
ENDBRANCH   5   6
BRANCH   5  14
ATOM     14  C   UNL     1       7.532   7.815  17.219  0.00  0.00    +0.000 C 
BRANCH  14  16
ATOM     15  C   UNL     1       8.860   9.279  18.777  0.00  0.00    +0.000 C 
ATOM     16  C   UNL     1       8.288   7.891  18.550  0.00  0.00    +0.000 C 
ENDBRANCH  14  16
ENDBRANCH   5  14
ENDBRANCH   1   5
BRANCH   3  17
ATOM     17  C   UNL     1       3.413   6.699  18.803  0.00  0.00    +0.000 C 
BRANCH  17  18
ATOM     18  C   UNL     1       2.701   5.342  18.638  0.00  0.00    +0.000 C 
ATOM     19  O   UNL     1       1.950   5.094  17.697  0.00  0.00    +0.000 OA
ATOM     20  N   UNL     1       2.966   4.396  19.610  0.00  0.00    +0.000 N 
ATOM     21  H   UNL     1       3.795   4.490  20.186  0.00  0.00    +0.000 HD
BRANCH  20  22
ATOM     22  C   UNL     1       2.278   3.096  19.568  0.00  0.00    +0.000 C 
ATOM     23  C   UNL     1       1.457   2.885  20.836  0.00  0.00    +0.000 C 
BRANCH  22  24
ATOM     24  P   UNL     1       3.402   1.745  19.055  0.00  0.00    +0.000 P 
ATOM     25  O   UNL     1       3.178   2.028  17.566  0.00  0.00    +0.000 OA
BRANCH  24  26
ATOM     26  O   UNL     1       4.719   2.637  19.455  0.00  0.00    +0.000 OA
ATOM     27  H   UNL     1       5.465   2.490  18.850  0.00  0.00    +0.000 HD
ENDBRANCH  24  26
BRANCH  24  28
ATOM     28  O   UNL     1       4.466   0.469  18.571  0.00  0.00    +0.000 OA
ATOM     29  H   UNL     1       5.304   0.648  19.040  0.00  0.00    +0.000 HD
ENDBRANCH  24  28
ENDBRANCH  22  24
ENDBRANCH  20  22
ENDBRANCH  17  18
BRANCH  17  30
ATOM     30  C   UNL     1       2.827   7.803  17.910  0.00  0.00    +0.000 C 
BRANCH  30  31
ATOM     31  C   UNL     1       1.751   8.689  18.544  0.00  0.00    +0.000 C 
ATOM     32  C   UNL     1       1.724  10.113  18.007  0.00  0.00    +0.000 C 
ENDBRANCH  30  31
ENDBRANCH  17  30
ENDBRANCH   3  17
TORSDOF 14
ENDMDL
MODEL 8
REMARK VINA RESULT:      -5.9      1.614      1.955
REMARK  Name = 
REMARK  18 active torsions:
REMARK  status: ('A' for Active; 'I' for Inactive)
REMARK    1  A    between atoms: C_1  and  C_2
REMARK    2  A    between atoms: C_2  and  C_3
REMARK    3  A    between atoms: C_3  and  C_4
REMARK    4  A    between atoms: C_4  and  N_5
REMARK    5  A    between atoms: C_4  and  C_11
REMARK    6  A    between atoms: C_6  and  C_8
REMARK    7  A    between atoms: C_8  and  N_9
REMARK    8  A    between atoms: N_9  and  C_10
REMARK    9  A    between atoms: N_13  and  C_14
REMARK   10  A    between atoms: C_14  and  C_15
REMARK   11  A    between atoms: C_14  and  C_18
REMARK   12  A    between atoms: C_15  and  C_16
REMARK   13  A    between atoms: C_16  and  C_17
REMARK   14  A    between atoms: N_20  and  C_21
REMARK   15  A    between atoms: C_21  and  C_22
REMARK   16  A    between atoms: C_21  and  P_23
REMARK   17  A    between atoms: P_23  and  O_25
REMARK   18  A    between atoms: P_23  and  O_26
REMARK                            x       y       z     vdW  Elec       q    Type
REMARK                         _______ _______ _______ _____ _____    ______ ____
ROOT
ATOM      1  C   UNL     1       5.868   5.645  18.583  0.00  0.00    +0.000 C 
ATOM      2  O   UNL     1       6.241   5.272  19.694  0.00  0.00    +0.000 OA
ATOM      3  N   UNL     1       4.611   6.153  18.359  0.00  0.00    +0.000 N 
ATOM      4  H   UNL     1       4.467   6.757  17.547  0.00  0.00    +0.000 HD
ENDROOT
BRANCH   1   5
ATOM      5  C   UNL     1       6.784   5.616  17.342  0.00  0.00    +0.000 C 
BRANCH   5   6
ATOM      6  N   UNL     1       6.023   5.090  16.214  0.00  0.00    +0.000 N 
ATOM      7  C   UNL     1       6.625   4.875  14.987  0.00  0.00    +0.000 C 
ATOM      8  O   UNL     1       7.792   5.181  14.764  0.00  0.00    +0.000 OA
ATOM      9  H   UNL     1       5.175   4.578  16.426  0.00  0.00    +0.000 HD
BRANCH   7  10
ATOM     10  C   UNL     1       5.716   4.185  13.953  0.00  0.00    +0.000 C 
BRANCH  10  11
ATOM     11  N   UNL     1       6.513   3.471  12.940  0.00  0.00    +0.000 NA
ATOM     12  C   UNL     1       5.679   2.746  11.986  0.00  0.00    +0.000 C 
ATOM     13  H   UNL     1       7.106   2.797  13.434  0.00  0.00    +0.000 HD
ENDBRANCH  10  11
ENDBRANCH   7  10
ENDBRANCH   5   6
BRANCH   5  14
ATOM     14  C   UNL     1       7.258   7.040  17.027  0.00  0.00    +0.000 C 
BRANCH  14  16
ATOM     15  C   UNL     1       8.230   9.148  18.000  0.00  0.00    +0.000 C 
ATOM     16  C   UNL     1       8.096   7.644  18.159  0.00  0.00    +0.000 C 
ENDBRANCH  14  16
ENDBRANCH   5  14
ENDBRANCH   1   5
BRANCH   3  17
ATOM     17  C   UNL     1       3.599   6.179  19.411  0.00  0.00    +0.000 C 
BRANCH  17  18
ATOM     18  C   UNL     1       2.866   4.825  19.338  0.00  0.00    +0.000 C 
ATOM     19  O   UNL     1       1.807   4.672  18.731  0.00  0.00    +0.000 OA
ATOM     20  N   UNL     1       3.478   3.769  19.986  0.00  0.00    +0.000 N 
ATOM     21  H   UNL     1       4.465   3.823  20.207  0.00  0.00    +0.000 HD
BRANCH  20  22
ATOM     22  C   UNL     1       2.815   2.455  20.023  0.00  0.00    +0.000 C 
ATOM     23  C   UNL     1       2.266   2.095  18.646  0.00  0.00    +0.000 C 
BRANCH  22  24
ATOM     24  P   UNL     1       1.681   2.303  21.452  0.00  0.00    +0.000 P 
ATOM     25  O   UNL     1       2.363   3.451  22.204  0.00  0.00    +0.000 OA
BRANCH  24  26
ATOM     26  O   UNL     1       0.466   3.018  20.614  0.00  0.00    +0.000 OA
ATOM     27  H   UNL     1       0.211   3.877  20.989  0.00  0.00    +0.000 HD
ENDBRANCH  24  26
BRANCH  24  28
ATOM     28  O   UNL     1       0.609   2.160  22.801  0.00  0.00    +0.000 OA
ATOM     29  H   UNL     1       1.111   1.657  23.471  0.00  0.00    +0.000 HD
ENDBRANCH  24  28
ENDBRANCH  22  24
ENDBRANCH  20  22
ENDBRANCH  17  18
BRANCH  17  30
ATOM     30  C   UNL     1       2.666   7.384  19.215  0.00  0.00    +0.000 C 
BRANCH  30  31
ATOM     31  C   UNL     1       2.711   8.061  17.842  0.00  0.00    +0.000 C 
ATOM     32  C   UNL     1       1.682   9.167  17.661  0.00  0.00    +0.000 C 
ENDBRANCH  30  31
ENDBRANCH  17  30
ENDBRANCH   3  17
TORSDOF 14
ENDMDL
MODEL 9
REMARK VINA RESULT:      -5.9      2.604      6.236
REMARK  Name = 
REMARK  18 active torsions:
REMARK  status: ('A' for Active; 'I' for Inactive)
REMARK    1  A    between atoms: C_1  and  C_2
REMARK    2  A    between atoms: C_2  and  C_3
REMARK    3  A    between atoms: C_3  and  C_4
REMARK    4  A    between atoms: C_4  and  N_5
REMARK    5  A    between atoms: C_4  and  C_11
REMARK    6  A    between atoms: C_6  and  C_8
REMARK    7  A    between atoms: C_8  and  N_9
REMARK    8  A    between atoms: N_9  and  C_10
REMARK    9  A    between atoms: N_13  and  C_14
REMARK   10  A    between atoms: C_14  and  C_15
REMARK   11  A    between atoms: C_14  and  C_18
REMARK   12  A    between atoms: C_15  and  C_16
REMARK   13  A    between atoms: C_16  and  C_17
REMARK   14  A    between atoms: N_20  and  C_21
REMARK   15  A    between atoms: C_21  and  C_22
REMARK   16  A    between atoms: C_21  and  P_23
REMARK   17  A    between atoms: P_23  and  O_25
REMARK   18  A    between atoms: P_23  and  O_26
REMARK                            x       y       z     vdW  Elec       q    Type
REMARK                         _______ _______ _______ _____ _____    ______ ____
ROOT
ATOM      1  C   UNL     1       4.341   6.572  17.370  0.00  0.00    +0.000 C 
ATOM      2  O   UNL     1       4.327   7.423  16.482  0.00  0.00    +0.000 OA
ATOM      3  N   UNL     1       5.509   6.090  17.910  0.00  0.00    +0.000 N 
ATOM      4  H   UNL     1       5.478   5.675  18.844  0.00  0.00    +0.000 HD
ENDROOT
BRANCH   1   5
ATOM      5  C   UNL     1       3.054   5.992  17.991  0.00  0.00    +0.000 C 
BRANCH   5   6
ATOM      6  N   UNL     1       3.198   4.545  18.095  0.00  0.00    +0.000 N 
ATOM      7  C   UNL     1       2.180   3.697  17.696  0.00  0.00    +0.000 C 
ATOM      8  O   UNL     1       1.091   4.111  17.310  0.00  0.00    +0.000 OA
ATOM      9  H   UNL     1       4.140   4.176  18.133  0.00  0.00    +0.000 HD
BRANCH   7  10
ATOM     10  C   UNL     1       2.552   2.203  17.740  0.00  0.00    +0.000 C 
BRANCH  10  11
ATOM     11  N   UNL     1       1.765   1.491  18.762  0.00  0.00    +0.000 NA
ATOM     12  C   UNL     1       1.744   2.198  20.039  0.00  0.00    +0.000 C 
ATOM     13  H   UNL     1       2.200   0.574  18.902  0.00  0.00    +0.000 HD
ENDBRANCH  10  11
ENDBRANCH   7  10
ENDBRANCH   5   6
BRANCH   5  14
ATOM     14  C   UNL     1       2.847   6.594  19.386  0.00  0.00    +0.000 C 
BRANCH  14  16
ATOM     15  C   UNL     1       1.432   8.185  20.729  0.00  0.00    +0.000 C 
ATOM     16  C   UNL     1       2.001   7.871  19.356  0.00  0.00    +0.000 C 
ENDBRANCH  14  16
ENDBRANCH   5  14
ENDBRANCH   1   5
BRANCH   3  17
ATOM     17  C   UNL     1       6.813   6.480  17.383  0.00  0.00    +0.000 C 
BRANCH  17  18
ATOM     18  C   UNL     1       7.175   5.434  16.310  0.00  0.00    +0.000 C 
ATOM     19  O   UNL     1       7.563   4.300  16.589  0.00  0.00    +0.000 OA
ATOM     20  N   UNL     1       7.025   5.835  14.996  0.00  0.00    +0.000 N 
ATOM     21  H   UNL     1       6.431   6.627  14.781  0.00  0.00    +0.000 HD
BRANCH  20  22
ATOM     22  C   UNL     1       7.410   4.924  13.907  0.00  0.00    +0.000 C 
ATOM     23  C   UNL     1       8.391   5.608  12.960  0.00  0.00    +0.000 C 
BRANCH  22  24
ATOM     24  P   UNL     1       5.957   4.095  13.165  0.00  0.00    +0.000 P 
ATOM     25  O   UNL     1       6.790   3.501  12.024  0.00  0.00    +0.000 OA
BRANCH  24  26
ATOM     26  O   UNL     1       5.968   2.944  14.332  0.00  0.00    +0.000 OA
ATOM     27  H   UNL     1       5.166   2.394  14.320  0.00  0.00    +0.000 HD
ENDBRANCH  24  26
BRANCH  24  28
ATOM     28  O   UNL     1       4.583   3.311  12.464  0.00  0.00    +0.000 OA
ATOM     29  H   UNL     1       4.369   2.581  13.077  0.00  0.00    +0.000 HD
ENDBRANCH  24  28
ENDBRANCH  22  24
ENDBRANCH  20  22
ENDBRANCH  17  18
BRANCH  17  30
ATOM     30  C   UNL     1       7.841   6.558  18.523  0.00  0.00    +0.000 C 
BRANCH  30  31
ATOM     31  C   UNL     1       8.490   7.925  18.758  0.00  0.00    +0.000 C 
ATOM     32  C   UNL     1       8.037   9.002  17.784  0.00  0.00    +0.000 C 
ENDBRANCH  30  31
ENDBRANCH  17  30
ENDBRANCH   3  17
TORSDOF 14
ENDMDL
