MODEL 1
REMARK VINA RESULT:      -7.5      0.000      0.000
REMARK  Name = 
REMARK  6 active torsions:
REMARK  status: ('A' for Active; 'I' for Inactive)
REMARK    1  A    between atoms: C_1  and  N_2
REMARK    2  A    between atoms: N_5  and  C_6
REMARK    3  A    between atoms: C_6  and  C_7
REMARK    4  A    between atoms: N_9  and  C_10
REMARK    5  A    between atoms: C_14  and  C_15
REMARK    6  A    between atoms: N_17  and  C_18
REMARK                            x       y       z     vdW  Elec       q    Type
REMARK                         _______ _______ _______ _____ _____    ______ ____
ROOT
ATOM      1  C   UNL     1       4.668   5.727  18.739  0.00  0.00    +0.000 A 
ATOM      2  S   UNL     1       5.171   4.137  18.995  0.00  0.00    +0.000 S 
ATOM      3  C   UNL     1       3.571   3.619  19.245  0.00  0.00    +0.000 A 
ATOM      4  C   UNL     1       2.650   4.661  19.198  0.00  0.00    +0.000 A 
ATOM      5  C   UNL     1       3.302   5.928  18.849  0.00  0.00    +0.000 A 
ATOM      6  C   UNL     1       1.181   4.361  19.397  0.00  0.00    +0.000 C 
ATOM      7  C   UNL     1       0.937   2.981  20.044  0.00  0.00    +0.000 C 
ATOM      8  C   UNL     1       1.767   1.881  19.384  0.00  0.00    +0.000 C 
ATOM      9  C   UNL     1       3.266   2.170  19.504  0.00  0.00    +0.000 C 
ENDROOT
BRANCH   1  12
ATOM     10  C   UNL     1       6.130   6.873  17.218  0.00  0.00    +0.000 C 
ATOM     11  O   UNL     1       6.986   7.713  16.937  0.00  0.00    +0.000 OA
ATOM     12  N   UNL     1       5.666   6.665  18.515  0.00  0.00    +0.000 N 
ATOM     13  H   UNL     1       5.634   7.511  19.073  0.00  0.00    +0.000 HD
BRANCH  10  14
ATOM     14  C   UNL     1       5.428   6.020  16.112  0.00  0.00    +0.000 C 
BRANCH  14  19
ATOM     15  C   UNL     1       6.890   4.166  11.788  0.00  0.00    +0.000 C 
ATOM     16  N   UNL     1       6.745   3.941  13.221  0.00  0.00    +0.000 NA
ATOM     17  C   UNL     1       5.332   3.976  13.641  0.00  0.00    +0.000 C 
ATOM     18  C   UNL     1       5.173   3.771  15.169  0.00  0.00    +0.000 C 
ATOM     19  N   UNL     1       5.991   4.658  16.025  0.00  0.00    +0.000 NA
ATOM     20  C   UNL     1       7.381   4.658  15.513  0.00  0.00    +0.000 C 
ATOM     21  C   UNL     1       7.514   4.927  13.997  0.00  0.00    +0.000 C 
ENDBRANCH  14  19
ENDBRANCH  10  14
ENDBRANCH   1  12
BRANCH   5  22
ATOM     22  C   UNL     1       2.695   7.270  18.641  0.00  0.00    +0.000 C 
ATOM     23  O   UNL     1       2.912   7.902  17.643  0.00  0.00    +0.000 OA
ATOM     24  N   UNL     1       1.924   7.711  19.737  0.00  0.00    +0.000 N 
ATOM     25  H   UNL     1       1.919   7.145  20.569  0.00  0.00    +0.000 HD
BRANCH  24  26
ATOM     26  C   UNL     1       1.283   8.963  19.818  0.00  0.00    +0.000 A 
ATOM     27  C   UNL     1       0.983   9.662  18.654  0.00  0.00    +0.000 A 
ATOM     28  C   UNL     1       0.380  10.910  18.706  0.00  0.00    +0.000 A 
ATOM     29  C   UNL     1       0.077  11.482  19.943  0.00  0.00    +0.000 A 
ATOM     30  C   UNL     1       0.372  10.792  21.115  0.00  0.00    +0.000 A 
ATOM     31  C   UNL     1       0.956   9.520  21.062  0.00  0.00    +0.000 A 
ENDBRANCH  24  26
ENDBRANCH   5  22
TORSDOF 5
ENDMDL
MODEL 2
REMARK VINA RESULT:      -7.4      0.470      1.036
REMARK  Name = 
REMARK  6 active torsions:
REMARK  status: ('A' for Active; 'I' for Inactive)
REMARK    1  A    between atoms: C_1  and  N_2
REMARK    2  A    between atoms: N_5  and  C_6
REMARK    3  A    between atoms: C_6  and  C_7
REMARK    4  A    between atoms: N_9  and  C_10
REMARK    5  A    between atoms: C_14  and  C_15
REMARK    6  A    between atoms: N_17  and  C_18
REMARK                            x       y       z     vdW  Elec       q    Type
REMARK                         _______ _______ _______ _____ _____    ______ ____
ROOT
ATOM      1  C   UNL     1       4.561   5.670  18.856  0.00  0.00    +0.000 A 
ATOM      2  S   UNL     1       5.075   4.066  18.929  0.00  0.00    +0.000 S 
ATOM      3  C   UNL     1       3.520   3.535  19.364  0.00  0.00    +0.000 A 
ATOM      4  C   UNL     1       2.614   4.580  19.518  0.00  0.00    +0.000 A 
ATOM      5  C   UNL     1       3.226   5.867  19.169  0.00  0.00    +0.000 A 
ATOM      6  C   UNL     1       1.183   4.270  19.899  0.00  0.00    +0.000 C 
ATOM      7  C   UNL     1       1.015   2.850  20.477  0.00  0.00    +0.000 C 
ATOM      8  C   UNL     1       1.731   1.796  19.634  0.00  0.00    +0.000 C 
ATOM      9  C   UNL     1       3.237   2.073  19.563  0.00  0.00    +0.000 C 
ENDROOT
BRANCH   1  12
ATOM     10  C   UNL     1       5.932   6.795  17.237  0.00  0.00    +0.000 C 
ATOM     11  O   UNL     1       6.757   7.642  16.893  0.00  0.00    +0.000 OA
ATOM     12  N   UNL     1       5.529   6.620  18.559  0.00  0.00    +0.000 N 
ATOM     13  H   UNL     1       5.504   7.482  19.092  0.00  0.00    +0.000 HD
BRANCH  10  14
ATOM     14  C   UNL     1       5.199   5.895  16.189  0.00  0.00    +0.000 C 
BRANCH  14  19
ATOM     15  C   UNL     1       7.010   4.333  11.883  0.00  0.00    +0.000 C 
ATOM     16  N   UNL     1       6.785   4.028  13.291  0.00  0.00    +0.000 NA
ATOM     17  C   UNL     1       5.348   3.983  13.619  0.00  0.00    +0.000 C 
ATOM     18  C   UNL     1       5.104   3.691  15.121  0.00  0.00    +0.000 C 
ATOM     19  N   UNL     1       5.826   4.564  16.072  0.00  0.00    +0.000 NA
ATOM     20  C   UNL     1       7.244   4.648  15.652  0.00  0.00    +0.000 C 
ATOM     21  C   UNL     1       7.460   5.002  14.163  0.00  0.00    +0.000 C 
ENDBRANCH  14  19
ENDBRANCH  10  14
ENDBRANCH   1  12
BRANCH   5  22
ATOM     22  C   UNL     1       2.612   7.221  19.141  0.00  0.00    +0.000 C 
ATOM     23  O   UNL     1       2.811   7.975  18.227  0.00  0.00    +0.000 OA
ATOM     24  N   UNL     1       1.857   7.517  20.296  0.00  0.00    +0.000 N 
ATOM     25  H   UNL     1       1.868   6.852  21.050  0.00  0.00    +0.000 HD
BRANCH  24  26
ATOM     26  C   UNL     1       1.214   8.747  20.543  0.00  0.00    +0.000 A 
ATOM     27  C   UNL     1       0.915   9.119  21.850  0.00  0.00    +0.000 A 
ATOM     28  C   UNL     1       0.256  10.310  22.118  0.00  0.00    +0.000 A 
ATOM     29  C   UNL     1      -0.124  11.144  21.066  0.00  0.00    +0.000 A 
ATOM     30  C   UNL     1       0.171  10.782  19.755  0.00  0.00    +0.000 A 
ATOM     31  C   UNL     1       0.860   9.594  19.484  0.00  0.00    +0.000 A 
ENDBRANCH  24  26
ENDBRANCH   5  22
TORSDOF 5
ENDMDL
MODEL 3
REMARK VINA RESULT:      -7.4      0.789      1.217
REMARK  Name = 
REMARK  6 active torsions:
REMARK  status: ('A' for Active; 'I' for Inactive)
REMARK    1  A    between atoms: C_1  and  N_2
REMARK    2  A    between atoms: N_5  and  C_6
REMARK    3  A    between atoms: C_6  and  C_7
REMARK    4  A    between atoms: N_9  and  C_10
REMARK    5  A    between atoms: C_14  and  C_15
REMARK    6  A    between atoms: N_17  and  C_18
REMARK                            x       y       z     vdW  Elec       q    Type
REMARK                         _______ _______ _______ _____ _____    ______ ____
ROOT
ATOM      1  C   UNL     1       4.965   5.637  18.451  0.00  0.00    +0.000 A 
ATOM      2  S   UNL     1       5.427   4.023  18.610  0.00  0.00    +0.000 S 
ATOM      3  C   UNL     1       3.807   3.508  18.613  0.00  0.00    +0.000 A 
ATOM      4  C   UNL     1       2.902   4.563  18.556  0.00  0.00    +0.000 A 
ATOM      5  C   UNL     1       3.595   5.848  18.413  0.00  0.00    +0.000 A 
ATOM      6  C   UNL     1       1.419   4.267  18.546  0.00  0.00    +0.000 C 
ATOM      7  C   UNL     1       1.093   2.837  19.021  0.00  0.00    +0.000 C 
ATOM      8  C   UNL     1       1.993   1.792  18.363  0.00  0.00    +0.000 C 
ATOM      9  C   UNL     1       3.468   2.046  18.691  0.00  0.00    +0.000 C 
ENDROOT
BRANCH   1  12
ATOM     10  C   UNL     1       6.661   6.841  17.251  0.00  0.00    +0.000 C 
ATOM     11  O   UNL     1       7.551   7.687  17.158  0.00  0.00    +0.000 OA
ATOM     12  N   UNL     1       5.986   6.577  18.441  0.00  0.00    +0.000 N 
ATOM     13  H   UNL     1       5.859   7.397  19.025  0.00  0.00    +0.000 HD
BRANCH  10  14
ATOM     14  C   UNL     1       6.156   6.045  16.005  0.00  0.00    +0.000 C 
BRANCH  14  19
ATOM     15  C   UNL     1       5.371   3.349  11.957  0.00  0.00    +0.000 C 
ATOM     16  N   UNL     1       6.236   3.598  13.104  0.00  0.00    +0.000 NA
ATOM     17  C   UNL     1       5.539   3.349  14.380  0.00  0.00    +0.000 C 
ATOM     18  C   UNL     1       6.443   3.643  15.604  0.00  0.00    +0.000 C 
ATOM     19  N   UNL     1       7.093   4.972  15.618  0.00  0.00    +0.000 NA
ATOM     20  C   UNL     1       7.704   5.214  14.291  0.00  0.00    +0.000 C 
ATOM     21  C   UNL     1       6.761   4.972  13.089  0.00  0.00    +0.000 C 
ENDBRANCH  14  19
ENDBRANCH  10  14
ENDBRANCH   1  12
BRANCH   5  22
ATOM     22  C   UNL     1       3.023   7.213  18.265  0.00  0.00    +0.000 C 
ATOM     23  O   UNL     1       3.408   7.958  17.405  0.00  0.00    +0.000 OA
ATOM     24  N   UNL     1       2.065   7.527  19.252  0.00  0.00    +0.000 N 
ATOM     25  H   UNL     1       1.918   6.865  19.994  0.00  0.00    +0.000 HD
BRANCH  24  26
ATOM     26  C   UNL     1       1.408   8.769  19.368  0.00  0.00    +0.000 A 
ATOM     27  C   UNL     1       1.204   9.328  20.626  0.00  0.00    +0.000 A 
ATOM     28  C   UNL     1       0.535  10.533  20.770  0.00  0.00    +0.000 A 
ATOM     29  C   UNL     1       0.047  11.195  19.642  0.00  0.00    +0.000 A 
ATOM     30  C   UNL     1       0.245  10.646  18.379  0.00  0.00    +0.000 A 
ATOM     31  C   UNL     1       0.945   9.442  18.229  0.00  0.00    +0.000 A 
ENDBRANCH  24  26
ENDBRANCH   5  22
TORSDOF 5
ENDMDL
MODEL 4
REMARK VINA RESULT:      -7.4      4.532      9.619
REMARK  Name = 
REMARK  6 active torsions:
REMARK  status: ('A' for Active; 'I' for Inactive)
REMARK    1  A    between atoms: C_1  and  N_2
REMARK    2  A    between atoms: N_5  and  C_6
REMARK    3  A    between atoms: C_6  and  C_7
REMARK    4  A    between atoms: N_9  and  C_10
REMARK    5  A    between atoms: C_14  and  C_15
REMARK    6  A    between atoms: N_17  and  C_18
REMARK                            x       y       z     vdW  Elec       q    Type
REMARK                         _______ _______ _______ _____ _____    ______ ____
ROOT
ATOM      1  C   UNL     1       0.128  11.470  19.935  0.00  0.00    +0.000 A 
ATOM      2  S   UNL     1      -1.323  12.259  20.276  0.00  0.00    +0.000 S 
ATOM      3  C   UNL     1      -2.100  11.502  18.968  0.00  0.00    +0.000 A 
ATOM      4  C   UNL     1      -1.247  10.693  18.224  0.00  0.00    +0.000 A 
ATOM      5  C   UNL     1       0.089  10.635  18.830  0.00  0.00    +0.000 A 
ATOM      6  C   UNL     1      -1.791   9.944  17.028  0.00  0.00    +0.000 C 
ATOM      7  C   UNL     1      -3.141  10.506  16.537  0.00  0.00    +0.000 C 
ATOM      8  C   UNL     1      -4.119  10.741  17.687  0.00  0.00    +0.000 C 
ATOM      9  C   UNL     1      -3.557  11.748  18.695  0.00  0.00    +0.000 C 
ENDROOT
BRANCH   1  12
ATOM     10  C   UNL     1       1.787  13.051  20.653  0.00  0.00    +0.000 C 
ATOM     11  O   UNL     1       2.725  13.415  21.363  0.00  0.00    +0.000 OA
ATOM     12  N   UNL     1       1.211  11.786  20.743  0.00  0.00    +0.000 N 
ATOM     13  H   UNL     1       1.204  11.411  21.686  0.00  0.00    +0.000 HD
BRANCH  10  14
ATOM     14  C   UNL     1       1.105  14.025  19.638  0.00  0.00    +0.000 C 
BRANCH  14  19
ATOM     15  C   UNL     1       0.915  18.121  16.908  0.00  0.00    +0.000 C 
ATOM     16  N   UNL     1       0.778  17.537  18.237  0.00  0.00    +0.000 NA
ATOM     17  C   UNL     1       2.044  16.949  18.711  0.00  0.00    +0.000 C 
ATOM     18  C   UNL     1       1.895  16.297  20.109  0.00  0.00    +0.000 C 
ATOM     19  N   UNL     1       0.787  15.328  20.253  0.00  0.00    +0.000 NA
ATOM     20  C   UNL     1      -0.442  15.930  19.686  0.00  0.00    +0.000 C 
ATOM     21  C   UNL     1      -0.281  16.517  18.265  0.00  0.00    +0.000 C 
ENDBRANCH  14  19
ENDBRANCH  10  14
ENDBRANCH   1  12
BRANCH   5  22
ATOM     22  C   UNL     1       1.281   9.857  18.401  0.00  0.00    +0.000 C 
ATOM     23  O   UNL     1       2.028  10.278  17.560  0.00  0.00    +0.000 OA
ATOM     24  N   UNL     1       1.382   8.597  19.028  0.00  0.00    +0.000 N 
ATOM     25  H   UNL     1       0.626   8.304  19.623  0.00  0.00    +0.000 HD
BRANCH  24  26
ATOM     26  C   UNL     1       2.388   7.645  18.765  0.00  0.00    +0.000 A 
ATOM     27  C   UNL     1       2.578   6.581  19.639  0.00  0.00    +0.000 A 
ATOM     28  C   UNL     1       3.579   5.647  19.420  0.00  0.00    +0.000 A 
ATOM     29  C   UNL     1       4.419   5.779  18.312  0.00  0.00    +0.000 A 
ATOM     30  C   UNL     1       4.238   6.840  17.430  0.00  0.00    +0.000 A 
ATOM     31  C   UNL     1       3.210   7.768  17.636  0.00  0.00    +0.000 A 
ENDBRANCH  24  26
ENDBRANCH   5  22
TORSDOF 5
ENDMDL
MODEL 5
REMARK VINA RESULT:      -7.3      4.410      9.773
REMARK  Name = 
REMARK  6 active torsions:
REMARK  status: ('A' for Active; 'I' for Inactive)
REMARK    1  A    between atoms: C_1  and  N_2
REMARK    2  A    between atoms: N_5  and  C_6
REMARK    3  A    between atoms: C_6  and  C_7
REMARK    4  A    between atoms: N_9  and  C_10
REMARK    5  A    between atoms: C_14  and  C_15
REMARK    6  A    between atoms: N_17  and  C_18
REMARK                            x       y       z     vdW  Elec       q    Type
REMARK                         _______ _______ _______ _____ _____    ______ ____
ROOT
ATOM      1  C   UNL     1       0.116  11.414  19.942  0.00  0.00    +0.000 A 
ATOM      2  S   UNL     1      -1.336  12.201  20.281  0.00  0.00    +0.000 S 
ATOM      3  C   UNL     1      -2.107  11.454  18.963  0.00  0.00    +0.000 A 
ATOM      4  C   UNL     1      -1.250  10.650  18.218  0.00  0.00    +0.000 A 
ATOM      5  C   UNL     1       0.082  10.586  18.831  0.00  0.00    +0.000 A 
ATOM      6  C   UNL     1      -1.788   9.910  17.014  0.00  0.00    +0.000 C 
ATOM      7  C   UNL     1      -3.135  10.476  16.520  0.00  0.00    +0.000 C 
ATOM      8  C   UNL     1      -4.120  10.703  17.666  0.00  0.00    +0.000 C 
ATOM      9  C   UNL     1      -3.563  11.703  18.685  0.00  0.00    +0.000 C 
ENDROOT
BRANCH   1  12
ATOM     10  C   UNL     1       1.808  12.968  20.640  0.00  0.00    +0.000 C 
ATOM     11  O   UNL     1       2.745  13.326  21.354  0.00  0.00    +0.000 OA
ATOM     12  N   UNL     1       1.195  11.723  20.759  0.00  0.00    +0.000 N 
ATOM     13  H   UNL     1       1.162  11.377  21.712  0.00  0.00    +0.000 HD
BRANCH  10  14
ATOM     14  C   UNL     1       1.171  13.930  19.585  0.00  0.00    +0.000 C 
BRANCH  14  19
ATOM     15  C   UNL     1      -2.247  17.471  19.373  0.00  0.00    +0.000 C 
ATOM     16  N   UNL     1      -0.845  17.145  19.607  0.00  0.00    +0.000 NA
ATOM     17  C   UNL     1      -0.206  16.575  18.406  0.00  0.00    +0.000 C 
ATOM     18  C   UNL     1       1.275  16.197  18.659  0.00  0.00    +0.000 C 
ATOM     19  N   UNL     1       1.527  15.339  19.837  0.00  0.00    +0.000 NA
ATOM     20  C   UNL     1       0.798  15.903  20.996  0.00  0.00    +0.000 C 
ATOM     21  C   UNL     1      -0.694  16.213  20.735  0.00  0.00    +0.000 C 
ENDBRANCH  14  19
ENDBRANCH  10  14
ENDBRANCH   1  12
BRANCH   5  22
ATOM     22  C   UNL     1       1.276   9.811  18.403  0.00  0.00    +0.000 C 
ATOM     23  O   UNL     1       2.021  10.232  17.560  0.00  0.00    +0.000 OA
ATOM     24  N   UNL     1       1.382   8.553  19.033  0.00  0.00    +0.000 N 
ATOM     25  H   UNL     1       0.627   8.260  19.630  0.00  0.00    +0.000 HD
BRANCH  24  26
ATOM     26  C   UNL     1       2.390   7.604  18.771  0.00  0.00    +0.000 A 
ATOM     27  C   UNL     1       2.589   6.546  19.652  0.00  0.00    +0.000 A 
ATOM     28  C   UNL     1       3.594   5.616  19.434  0.00  0.00    +0.000 A 
ATOM     29  C   UNL     1       4.426   5.743  18.321  0.00  0.00    +0.000 A 
ATOM     30  C   UNL     1       4.237   6.797  17.432  0.00  0.00    +0.000 A 
ATOM     31  C   UNL     1       3.206   7.722  17.637  0.00  0.00    +0.000 A 
ENDBRANCH  24  26
ENDBRANCH   5  22
TORSDOF 5
ENDMDL
MODEL 6
REMARK VINA RESULT:      -7.2      8.277     13.010
REMARK  Name = 
REMARK  6 active torsions:
REMARK  status: ('A' for Active; 'I' for Inactive)
REMARK    1  A    between atoms: C_1  and  N_2
REMARK    2  A    between atoms: N_5  and  C_6
REMARK    3  A    between atoms: C_6  and  C_7
REMARK    4  A    between atoms: N_9  and  C_10
REMARK    5  A    between atoms: C_14  and  C_15
REMARK    6  A    between atoms: N_17  and  C_18
REMARK                            x       y       z     vdW  Elec       q    Type
REMARK                         _______ _______ _______ _____ _____    ______ ____
ROOT
ATOM      1  C   UNL     1      -1.166  16.142  22.779  0.00  0.00    +0.000 A 
ATOM      2  S   UNL     1      -1.789  17.659  22.385  0.00  0.00    +0.000 S 
ATOM      3  C   UNL     1      -1.403  17.446  20.744  0.00  0.00    +0.000 A 
ATOM      4  C   UNL     1      -0.742  16.248  20.492  0.00  0.00    +0.000 A 
ATOM      5  C   UNL     1      -0.636  15.437  21.711  0.00  0.00    +0.000 A 
ATOM      6  C   UNL     1      -0.335  15.909  19.076  0.00  0.00    +0.000 C 
ATOM      7  C   UNL     1      -0.339  17.138  18.144  0.00  0.00    +0.000 C 
ATOM      8  C   UNL     1      -1.609  17.974  18.299  0.00  0.00    +0.000 C 
ATOM      9  C   UNL     1      -1.755  18.499  19.731  0.00  0.00    +0.000 C 
ENDROOT
BRANCH   1  12
ATOM     10  C   UNL     1      -2.343  15.225  24.661  0.00  0.00    +0.000 C 
ATOM     11  O   UNL     1      -2.425  14.855  25.833  0.00  0.00    +0.000 OA
ATOM     12  N   UNL     1      -1.189  15.791  24.122  0.00  0.00    +0.000 N 
ATOM     13  H   UNL     1      -0.333  15.412  24.512  0.00  0.00    +0.000 HD
BRANCH  10  14
ATOM     14  C   UNL     1      -3.517  15.009  23.652  0.00  0.00    +0.000 C 
BRANCH  14  19
ATOM     15  C   UNL     1      -7.707  12.428  23.440  0.00  0.00    +0.000 C 
ATOM     16  N   UNL     1      -6.275  12.447  23.167  0.00  0.00    +0.000 NA
ATOM     17  C   UNL     1      -5.483  12.590  24.404  0.00  0.00    +0.000 C 
ATOM     18  C   UNL     1      -3.961  12.644  24.117  0.00  0.00    +0.000 C 
ATOM     19  N   UNL     1      -3.532  13.637  23.109  0.00  0.00    +0.000 NA
ATOM     20  C   UNL     1      -4.409  13.514  21.921  0.00  0.00    +0.000 C 
ATOM     21  C   UNL     1      -5.924  13.525  22.230  0.00  0.00    +0.000 C 
ENDBRANCH  14  19
ENDBRANCH  10  14
ENDBRANCH   1  12
BRANCH   5  22
ATOM     22  C   UNL     1      -0.058  14.078  21.887  0.00  0.00    +0.000 C 
ATOM     23  O   UNL     1       1.113  13.925  22.106  0.00  0.00    +0.000 OA
ATOM     24  N   UNL     1      -1.000  13.042  21.709  0.00  0.00    +0.000 N 
ATOM     25  H   UNL     1      -1.925  13.293  21.404  0.00  0.00    +0.000 HD
BRANCH  24  26
ATOM     26  C   UNL     1      -0.703  11.666  21.772  0.00  0.00    +0.000 A 
ATOM     27  C   UNL     1      -0.307  10.991  20.621  0.00  0.00    +0.000 A 
ATOM     28  C   UNL     1      -0.038   9.631  20.649  0.00  0.00    +0.000 A 
ATOM     29  C   UNL     1      -0.176   8.922  21.843  0.00  0.00    +0.000 A 
ATOM     30  C   UNL     1      -0.571   9.586  23.001  0.00  0.00    +0.000 A 
ATOM     31  C   UNL     1      -0.816  10.964  22.980  0.00  0.00    +0.000 A 
ENDBRANCH  24  26
ENDBRANCH   5  22
TORSDOF 5
ENDMDL
MODEL 7
REMARK VINA RESULT:      -7.2      5.225     10.692
REMARK  Name = 
REMARK  6 active torsions:
REMARK  status: ('A' for Active; 'I' for Inactive)
REMARK    1  A    between atoms: C_1  and  N_2
REMARK    2  A    between atoms: N_5  and  C_6
REMARK    3  A    between atoms: C_6  and  C_7
REMARK    4  A    between atoms: N_9  and  C_10
REMARK    5  A    between atoms: C_14  and  C_15
REMARK    6  A    between atoms: N_17  and  C_18
REMARK                            x       y       z     vdW  Elec       q    Type
REMARK                         _______ _______ _______ _____ _____    ______ ____
ROOT
ATOM      1  C   UNL     1      -1.841  11.852  18.523  0.00  0.00    +0.000 A 
ATOM      2  S   UNL     1      -2.666  13.004  19.437  0.00  0.00    +0.000 S 
ATOM      3  C   UNL     1      -1.930  12.465  20.871  0.00  0.00    +0.000 A 
ATOM      4  C   UNL     1      -1.101  11.366  20.676  0.00  0.00    +0.000 A 
ATOM      5  C   UNL     1      -1.008  11.019  19.253  0.00  0.00    +0.000 A 
ATOM      6  C   UNL     1      -0.368  10.771  21.857  0.00  0.00    +0.000 C 
ATOM      7  C   UNL     1      -0.964  11.209  23.211  0.00  0.00    +0.000 C 
ATOM      8  C   UNL     1      -1.222  12.714  23.266  0.00  0.00    +0.000 C 
ATOM      9  C   UNL     1      -2.214  13.146  22.180  0.00  0.00    +0.000 C 
ENDROOT
BRANCH   1  12
ATOM     10  C   UNL     1      -3.373  11.358  16.741  0.00  0.00    +0.000 C 
ATOM     11  O   UNL     1      -3.712  11.332  15.558  0.00  0.00    +0.000 OA
ATOM     12  N   UNL     1      -2.127  11.815  17.165  0.00  0.00    +0.000 N 
ATOM     13  H   UNL     1      -1.760  12.572  16.598  0.00  0.00    +0.000 HD
BRANCH  10  14
ATOM     14  C   UNL     1      -4.361  10.953  17.883  0.00  0.00    +0.000 C 
BRANCH  14  19
ATOM     15  C   UNL     1      -7.425  13.359  20.897  0.00  0.00    +0.000 C 
ATOM     16  N   UNL     1      -7.262  12.678  19.618  0.00  0.00    +0.000 NA
ATOM     17  C   UNL     1      -6.918  11.255  19.795  0.00  0.00    +0.000 C 
ATOM     18  C   UNL     1      -6.712  10.534  18.439  0.00  0.00    +0.000 C 
ATOM     19  N   UNL     1      -5.768  11.183  17.503  0.00  0.00    +0.000 NA
ATOM     20  C   UNL     1      -6.098  12.625  17.424  0.00  0.00    +0.000 C 
ATOM     21  C   UNL     1      -6.237  13.334  18.791  0.00  0.00    +0.000 C 
ENDBRANCH  14  19
ENDBRANCH  10  14
ENDBRANCH   1  12
BRANCH   5  22
ATOM     22  C   UNL     1      -0.200   9.957  18.596  0.00  0.00    +0.000 C 
ATOM     23  O   UNL     1      -0.516   9.508  17.527  0.00  0.00    +0.000 OA
ATOM     24  N   UNL     1       0.891   9.521  19.376  0.00  0.00    +0.000 N 
ATOM     25  H   UNL     1       0.979   9.886  20.310  0.00  0.00    +0.000 HD
BRANCH  24  26
ATOM     26  C   UNL     1       1.783   8.493  19.010  0.00  0.00    +0.000 A 
ATOM     27  C   UNL     1       1.937   7.384  19.836  0.00  0.00    +0.000 A 
ATOM     28  C   UNL     1       2.829   6.374  19.513  0.00  0.00    +0.000 A 
ATOM     29  C   UNL     1       3.594   6.470  18.350  0.00  0.00    +0.000 A 
ATOM     30  C   UNL     1       3.449   7.574  17.515  0.00  0.00    +0.000 A 
ATOM     31  C   UNL     1       2.528   8.582  17.826  0.00  0.00    +0.000 A 
ENDBRANCH  24  26
ENDBRANCH   5  22
TORSDOF 5
ENDMDL
MODEL 8
REMARK VINA RESULT:      -7.2      6.978      9.715
REMARK  Name = 
REMARK  6 active torsions:
REMARK  status: ('A' for Active; 'I' for Inactive)
REMARK    1  A    between atoms: C_1  and  N_2
REMARK    2  A    between atoms: N_5  and  C_6
REMARK    3  A    between atoms: C_6  and  C_7
REMARK    4  A    between atoms: N_9  and  C_10
REMARK    5  A    between atoms: C_14  and  C_15
REMARK    6  A    between atoms: N_17  and  C_18
REMARK                            x       y       z     vdW  Elec       q    Type
REMARK                         _______ _______ _______ _____ _____    ______ ____
ROOT
ATOM      1  C   UNL     1       0.137  11.571  21.662  0.00  0.00    +0.000 A 
ATOM      2  S   UNL     1      -1.112  10.773  22.466  0.00  0.00    +0.000 S 
ATOM      3  C   UNL     1      -1.777  12.244  22.997  0.00  0.00    +0.000 A 
ATOM      4  C   UNL     1      -1.020  13.349  22.621  0.00  0.00    +0.000 A 
ATOM      5  C   UNL     1       0.113  12.952  21.776  0.00  0.00    +0.000 A 
ATOM      6  C   UNL     1      -1.483  14.734  23.014  0.00  0.00    +0.000 C 
ATOM      7  C   UNL     1      -2.528  14.713  24.149  0.00  0.00    +0.000 C 
ATOM      8  C   UNL     1      -3.626  13.680  23.901  0.00  0.00    +0.000 C 
ATOM      9  C   UNL     1      -3.045  12.266  23.804  0.00  0.00    +0.000 C 
ENDROOT
BRANCH   1  12
ATOM     10  C   UNL     1       0.694   9.964  19.967  0.00  0.00    +0.000 C 
ATOM     11  O   UNL     1       1.483   9.257  19.339  0.00  0.00    +0.000 OA
ATOM     12  N   UNL     1       1.082  10.771  21.034  0.00  0.00    +0.000 N 
ATOM     13  H   UNL     1       2.014  11.158  20.931  0.00  0.00    +0.000 HD
BRANCH  10  14
ATOM     14  C   UNL     1      -0.810  10.075  19.556  0.00  0.00    +0.000 C 
BRANCH  14  19
ATOM     15  C   UNL     1      -5.305  11.069  17.806  0.00  0.00    +0.000 C 
ATOM     16  N   UNL     1      -3.867  11.186  17.600  0.00  0.00    +0.000 NA
ATOM     17  C   UNL     1      -3.224   9.867  17.455  0.00  0.00    +0.000 C 
ATOM     18  C   UNL     1      -1.690   9.984  17.270  0.00  0.00    +0.000 C 
ATOM     19  N   UNL     1      -0.981  10.798  18.281  0.00  0.00    +0.000 NA
ATOM     20  C   UNL     1      -1.710  12.075  18.455  0.00  0.00    +0.000 C 
ATOM     21  C   UNL     1      -3.229  11.927  18.700  0.00  0.00    +0.000 C 
ENDBRANCH  14  19
ENDBRANCH  10  14
ENDBRANCH   1  12
BRANCH   5  22
ATOM     22  C   UNL     1       1.137  13.804  21.117  0.00  0.00    +0.000 C 
ATOM     23  O   UNL     1       2.135  14.138  21.697  0.00  0.00    +0.000 OA
ATOM     24  N   UNL     1       0.776  14.204  19.813  0.00  0.00    +0.000 N 
ATOM     25  H   UNL     1      -0.143  13.964  19.483  0.00  0.00    +0.000 HD
BRANCH  24  26
ATOM     26  C   UNL     1       1.544  15.053  18.991  0.00  0.00    +0.000 A 
ATOM     27  C   UNL     1       1.144  16.371  18.793  0.00  0.00    +0.000 A 
ATOM     28  C   UNL     1       1.864  17.218  17.965  0.00  0.00    +0.000 A 
ATOM     29  C   UNL     1       3.003  16.744  17.310  0.00  0.00    +0.000 A 
ATOM     30  C   UNL     1       3.413  15.428  17.501  0.00  0.00    +0.000 A 
ATOM     31  C   UNL     1       2.702  14.580  18.357  0.00  0.00    +0.000 A 
ENDBRANCH  24  26
ENDBRANCH   5  22
TORSDOF 5
ENDMDL
MODEL 9
REMARK VINA RESULT:      -7.1      7.779     10.953
REMARK  Name = 
REMARK  6 active torsions:
REMARK  status: ('A' for Active; 'I' for Inactive)
REMARK    1  A    between atoms: C_1  and  N_2
REMARK    2  A    between atoms: N_5  and  C_6
REMARK    3  A    between atoms: C_6  and  C_7
REMARK    4  A    between atoms: N_9  and  C_10
REMARK    5  A    between atoms: C_14  and  C_15
REMARK    6  A    between atoms: N_17  and  C_18
REMARK                            x       y       z     vdW  Elec       q    Type
REMARK                         _______ _______ _______ _____ _____    ______ ____
ROOT
ATOM      1  C   UNL     1      -1.795  13.333  21.628  0.00  0.00    +0.000 A 
ATOM      2  S   UNL     1      -2.180  12.270  22.879  0.00  0.00    +0.000 S 
ATOM      3  C   UNL     1      -0.983  11.171  22.380  0.00  0.00    +0.000 A 
ATOM      4  C   UNL     1      -0.324  11.574  21.223  0.00  0.00    +0.000 A 
ATOM      5  C   UNL     1      -0.780  12.900  20.790  0.00  0.00    +0.000 A 
ATOM      6  C   UNL     1       0.774  10.705  20.654  0.00  0.00    +0.000 C 
ATOM      7  C   UNL     1       0.740   9.264  21.205  0.00  0.00    +0.000 C 
ATOM      8  C   UNL     1       0.574   9.233  22.724  0.00  0.00    +0.000 C 
ATOM      9  C   UNL     1      -0.735   9.905  23.152  0.00  0.00    +0.000 C 
ENDROOT
BRANCH   1  12
ATOM     10  C   UNL     1      -3.784  14.433  20.854  0.00  0.00    +0.000 C 
ATOM     11  O   UNL     1      -4.539  15.401  20.758  0.00  0.00    +0.000 OA
ATOM     12  N   UNL     1      -2.567  14.482  21.531  0.00  0.00    +0.000 N 
ATOM     13  H   UNL     1      -2.578  15.098  22.337  0.00  0.00    +0.000 HD
BRANCH  10  14
ATOM     14  C   UNL     1      -4.178  13.031  20.286  0.00  0.00    +0.000 C 
BRANCH  14  19
ATOM     15  C   UNL     1      -7.049   9.087  19.601  0.00  0.00    +0.000 C 
ATOM     16  N   UNL     1      -6.813  10.491  19.283  0.00  0.00    +0.000 NA
ATOM     17  C   UNL     1      -5.536  10.684  18.572  0.00  0.00    +0.000 C 
ATOM     18  C   UNL     1      -5.264  12.178  18.261  0.00  0.00    +0.000 C 
ATOM     19  N   UNL     1      -5.364  13.103  19.411  0.00  0.00    +0.000 NA
ATOM     20  C   UNL     1      -6.618  12.813  20.142  0.00  0.00    +0.000 C 
ATOM     21  C   UNL     1      -6.834  11.324  20.495  0.00  0.00    +0.000 C 
ENDBRANCH  14  19
ENDBRANCH  10  14
ENDBRANCH   1  12
BRANCH   5  22
ATOM     22  C   UNL     1      -0.313  13.726  19.644  0.00  0.00    +0.000 C 
ATOM     23  O   UNL     1      -0.908  13.733  18.601  0.00  0.00    +0.000 OA
ATOM     24  N   UNL     1       0.891  14.413  19.905  0.00  0.00    +0.000 N 
ATOM     25  H   UNL     1       1.361  14.228  20.775  0.00  0.00    +0.000 HD
BRANCH  24  26
ATOM     26  C   UNL     1       1.573  15.223  18.975  0.00  0.00    +0.000 A 
ATOM     27  C   UNL     1       2.715  14.740  18.345  0.00  0.00    +0.000 A 
ATOM     28  C   UNL     1       3.422  15.527  17.448  0.00  0.00    +0.000 A 
ATOM     29  C   UNL     1       2.990  16.827  17.178  0.00  0.00    +0.000 A 
ATOM     30  C   UNL     1       1.848  17.321  17.801  0.00  0.00    +0.000 A 
ATOM     31  C   UNL     1       1.119  16.518  18.686  0.00  0.00    +0.000 A 
ENDBRANCH  24  26
ENDBRANCH   5  22
TORSDOF 5
ENDMDL
