MODEL 1
REMARK VINA RESULT:      -8.8      0.000      0.000
REMARK  Name = 
REMARK  7 active torsions:
REMARK  status: ('A' for Active; 'I' for Inactive)
REMARK    1  A    between atoms: C_1  and  C_2
REMARK    2  A    between atoms: C_2  and  O_3
REMARK    3  A    between atoms: C_2  and  C_18
REMARK    4  A    between atoms: O_3  and  C_4
REMARK    5  A    between atoms: C_10  and  C_11
REMARK    6  A    between atoms: C_20  and  C_21
REMARK    7  A    between atoms: C_26  and  C_27
REMARK                            x       y       z     vdW  Elec       q    Type
REMARK                         _______ _______ _______ _____ _____    ______ ____
ROOT
ATOM      1  C   UNL     1       2.403   7.885  17.382  0.00  0.00    +0.000 C 
ATOM      2  C   UNL     1       1.999   7.455  18.795  0.00  0.00    +0.000 C 
ENDROOT
BRANCH   2   3
ATOM      3  C   UNL     1       1.536   8.700  19.542  0.00  0.00    +0.000 A 
ATOM      4  C   UNL     1       0.977   8.602  20.824  0.00  0.00    +0.000 A 
ATOM      5  C   UNL     1       0.487   9.738  21.486  0.00  0.00    +0.000 A 
ATOM      6  C   UNL     1       0.561  10.989  20.849  0.00  0.00    +0.000 A 
ATOM      7  C   UNL     1       1.117  11.113  19.568  0.00  0.00    +0.000 A 
ATOM      8  C   UNL     1       1.601   9.963  18.929  0.00  0.00    +0.000 A 
BRANCH   5   9
ATOM      9  C   UNL     1      -0.115   9.637  22.867  0.00  0.00    +0.000 C 
ATOM     10  F   UNL     1       0.799   9.396  23.849  0.00  0.00    +0.000 F 
ATOM     11  F   UNL     1      -0.768  10.773  23.235  0.00  0.00    +0.000 F 
ATOM     12  F   UNL     1      -1.032   8.634  22.961  0.00  0.00    +0.000 F 
ENDBRANCH   5   9
BRANCH   7  13
ATOM     13  C   UNL     1       1.187  12.446  18.861  0.00  0.00    +0.000 C 
ATOM     14  F   UNL     1       0.042  12.764  18.191  0.00  0.00    +0.000 F 
ATOM     15  F   UNL     1       1.420  13.483  19.709  0.00  0.00    +0.000 F 
ATOM     16  F   UNL     1       2.179  12.488  17.933  0.00  0.00    +0.000 F 
ENDBRANCH   7  13
ENDBRANCH   2   3
BRANCH   2  17
ATOM     17  O   UNL     1       3.077   6.894  19.549  0.00  0.00    +0.000 OA
BRANCH  17  18
ATOM     18  C   UNL     1       3.041   5.468  19.802  0.00  0.00    +0.000 C 
ATOM     19  C   UNL     1       1.558   5.056  19.811  0.00  0.00    +0.000 C 
ATOM     20  C   UNL     1       1.316   3.651  19.303  0.00  0.00    +0.000 C 
ATOM     21  C   UNL     1       2.083   3.363  17.995  0.00  0.00    +0.000 C 
ATOM     22  C   UNL     1       3.161   2.344  18.294  0.00  0.00    +0.000 C 
ATOM     23  C   UNL     1       4.205   3.198  19.009  0.00  0.00    +0.000 C 
ATOM     24  C   UNL     1       3.863   4.689  18.673  0.00  0.00    +0.000 C 
ATOM     25  N   UNL     1       2.916   4.505  17.537  0.00  0.00    +0.000 NA
ATOM     26  H   UNL     1       3.446   4.213  16.717  0.00  0.00    +0.000 HD
BRANCH  24  27
ATOM     27  C   UNL     1       5.191   5.402  18.405  0.00  0.00    +0.000 A 
ATOM     28  C   UNL     1       5.445   6.202  17.282  0.00  0.00    +0.000 A 
ATOM     29  C   UNL     1       6.691   6.822  17.121  0.00  0.00    +0.000 A 
ATOM     30  C   UNL     1       7.694   6.665  18.080  0.00  0.00    +0.000 A 
ATOM     31  C   UNL     1       7.459   5.875  19.197  0.00  0.00    +0.000 A 
ATOM     32  C   UNL     1       6.221   5.253  19.353  0.00  0.00    +0.000 A 
ENDBRANCH  24  27
ENDBRANCH  17  18
ENDBRANCH   2  17
TORSDOF 6
ENDMDL
MODEL 2
REMARK VINA RESULT:      -8.8      0.342      1.320
REMARK  Name = 
REMARK  7 active torsions:
REMARK  status: ('A' for Active; 'I' for Inactive)
REMARK    1  A    between atoms: C_1  and  C_2
REMARK    2  A    between atoms: C_2  and  O_3
REMARK    3  A    between atoms: C_2  and  C_18
REMARK    4  A    between atoms: O_3  and  C_4
REMARK    5  A    between atoms: C_10  and  C_11
REMARK    6  A    between atoms: C_20  and  C_21
REMARK    7  A    between atoms: C_26  and  C_27
REMARK                            x       y       z     vdW  Elec       q    Type
REMARK                         _______ _______ _______ _____ _____    ______ ____
ROOT
ATOM      1  C   UNL     1       2.298   7.736  17.484  0.00  0.00    +0.000 C 
ATOM      2  C   UNL     1       1.942   7.350  18.923  0.00  0.00    +0.000 C 
ENDROOT
BRANCH   2   3
ATOM      3  C   UNL     1       1.486   8.614  19.642  0.00  0.00    +0.000 A 
ATOM      4  C   UNL     1       0.922   8.548  20.923  0.00  0.00    +0.000 A 
ATOM      5  C   UNL     1       0.439   9.702  21.559  0.00  0.00    +0.000 A 
ATOM      6  C   UNL     1       0.525  10.939  20.896  0.00  0.00    +0.000 A 
ATOM      7  C   UNL     1       1.087  11.031  19.614  0.00  0.00    +0.000 A 
ATOM      8  C   UNL     1       1.564   9.863  19.001  0.00  0.00    +0.000 A 
BRANCH   5   9
ATOM      9  C   UNL     1      -0.168   9.636  22.940  0.00  0.00    +0.000 C 
ATOM     10  F   UNL     1      -1.116   8.666  23.078  0.00  0.00    +0.000 F 
ATOM     11  F   UNL     1       0.759   9.393  23.906  0.00  0.00    +0.000 F 
ATOM     12  F   UNL     1      -0.778  10.802  23.295  0.00  0.00    +0.000 F 
ENDBRANCH   5   9
BRANCH   7  13
ATOM     13  C   UNL     1       1.170  12.348  18.879  0.00  0.00    +0.000 C 
ATOM     14  F   UNL     1       1.337  13.419  19.705  0.00  0.00    +0.000 F 
ATOM     15  F   UNL     1       2.202  12.396  17.995  0.00  0.00    +0.000 F 
ATOM     16  F   UNL     1       0.046  12.609  18.160  0.00  0.00    +0.000 F 
ENDBRANCH   7  13
ENDBRANCH   2   3
BRANCH   2  17
ATOM     17  O   UNL     1       3.048   6.827  19.662  0.00  0.00    +0.000 OA
BRANCH  17  18
ATOM     18  C   UNL     1       3.002   5.426  20.030  0.00  0.00    +0.000 C 
ATOM     19  C   UNL     1       1.516   5.060  20.195  0.00  0.00    +0.000 C 
ATOM     20  C   UNL     1       1.198   3.628  19.822  0.00  0.00    +0.000 C 
ATOM     21  C   UNL     1       1.844   3.218  18.481  0.00  0.00    +0.000 C 
ATOM     22  C   UNL     1       2.920   2.193  18.770  0.00  0.00    +0.000 C 
ATOM     23  C   UNL     1       4.041   3.068  19.325  0.00  0.00    +0.000 C 
ATOM     24  C   UNL     1       3.705   4.538  18.901  0.00  0.00    +0.000 C 
ATOM     25  N   UNL     1       2.661   4.295  17.866  0.00  0.00    +0.000 NA
ATOM     26  H   UNL     1       3.112   3.925  17.031  0.00  0.00    +0.000 HD
BRANCH  24  27
ATOM     27  C   UNL     1       5.022   5.189  18.468  0.00  0.00    +0.000 A 
ATOM     28  C   UNL     1       6.154   5.300  19.288  0.00  0.00    +0.000 A 
ATOM     29  C   UNL     1       7.321   5.909  18.806  0.00  0.00    +0.000 A 
ATOM     30  C   UNL     1       7.380   6.401  17.501  0.00  0.00    +0.000 A 
ATOM     31  C   UNL     1       6.267   6.301  16.677  0.00  0.00    +0.000 A 
ATOM     32  C   UNL     1       5.105   5.702  17.159  0.00  0.00    +0.000 A 
ENDBRANCH  24  27
ENDBRANCH  17  18
ENDBRANCH   2  17
TORSDOF 6
ENDMDL
MODEL 3
REMARK VINA RESULT:      -8.7      0.406      3.279
REMARK  Name = 
REMARK  7 active torsions:
REMARK  status: ('A' for Active; 'I' for Inactive)
REMARK    1  A    between atoms: C_1  and  C_2
REMARK    2  A    between atoms: C_2  and  O_3
REMARK    3  A    between atoms: C_2  and  C_18
REMARK    4  A    between atoms: O_3  and  C_4
REMARK    5  A    between atoms: C_10  and  C_11
REMARK    6  A    between atoms: C_20  and  C_21
REMARK    7  A    between atoms: C_26  and  C_27
REMARK                            x       y       z     vdW  Elec       q    Type
REMARK                         _______ _______ _______ _____ _____    ______ ____
ROOT
ATOM      1  C   UNL     1       2.611   7.771  17.441  0.00  0.00    +0.000 C 
ATOM      2  C   UNL     1       2.065   7.374  18.815  0.00  0.00    +0.000 C 
ENDROOT
BRANCH   2   3
ATOM      3  C   UNL     1       1.515   8.632  19.475  0.00  0.00    +0.000 A 
ATOM      4  C   UNL     1       1.621   9.880  18.845  0.00  0.00    +0.000 A 
ATOM      5  C   UNL     1       1.175  11.049  19.480  0.00  0.00    +0.000 A 
ATOM      6  C   UNL     1       0.616  10.961  20.768  0.00  0.00    +0.000 A 
ATOM      7  C   UNL     1       0.498   9.725  21.418  0.00  0.00    +0.000 A 
ATOM      8  C   UNL     1       0.948   8.571  20.760  0.00  0.00    +0.000 A 
BRANCH   5   9
ATOM      9  C   UNL     1       1.287  12.395  18.805  0.00  0.00    +0.000 C 
ATOM     10  F   UNL     1       1.589  13.414  19.657  0.00  0.00    +0.000 F 
ATOM     11  F   UNL     1       2.247  12.416  17.841  0.00  0.00    +0.000 F 
ATOM     12  F   UNL     1       0.130  12.762  18.185  0.00  0.00    +0.000 F 
ENDBRANCH   5   9
BRANCH   7  13
ATOM     13  C   UNL     1      -0.082   9.614  22.808  0.00  0.00    +0.000 C 
ATOM     14  F   UNL     1      -0.703  10.753  23.228  0.00  0.00    +0.000 F 
ATOM     15  F   UNL     1      -1.009   8.625  22.917  0.00  0.00    +0.000 F 
ATOM     16  F   UNL     1       0.866   9.346  23.744  0.00  0.00    +0.000 F 
ENDBRANCH   7  13
ENDBRANCH   2   3
BRANCH   2  17
ATOM     17  O   UNL     1       3.062   6.846  19.693  0.00  0.00    +0.000 OA
BRANCH  17  18
ATOM     18  C   UNL     1       2.960   5.446  20.053  0.00  0.00    +0.000 C 
ATOM     19  C   UNL     1       1.461   5.145  20.236  0.00  0.00    +0.000 C 
ATOM     20  C   UNL     1       1.077   3.730  19.859  0.00  0.00    +0.000 C 
ATOM     21  C   UNL     1       1.687   3.300  18.508  0.00  0.00    +0.000 C 
ATOM     22  C   UNL     1       2.720   2.227  18.777  0.00  0.00    +0.000 C 
ATOM     23  C   UNL     1       3.885   3.049  19.322  0.00  0.00    +0.000 C 
ATOM     24  C   UNL     1       3.609   4.536  18.911  0.00  0.00    +0.000 C 
ATOM     25  N   UNL     1       2.542   4.344  17.888  0.00  0.00    +0.000 NA
ATOM     26  H   UNL     1       2.965   3.960  17.045  0.00  0.00    +0.000 HD
BRANCH  24  27
ATOM     27  C   UNL     1       4.947   5.131  18.464  0.00  0.00    +0.000 A 
ATOM     28  C   UNL     1       6.052   5.310  19.308  0.00  0.00    +0.000 A 
ATOM     29  C   UNL     1       7.242   5.860  18.812  0.00  0.00    +0.000 A 
ATOM     30  C   UNL     1       7.350   6.226  17.469  0.00  0.00    +0.000 A 
ATOM     31  C   UNL     1       6.265   6.057  16.620  0.00  0.00    +0.000 A 
ATOM     32  C   UNL     1       5.080   5.517  17.116  0.00  0.00    +0.000 A 
ENDBRANCH  24  27
ENDBRANCH  17  18
ENDBRANCH   2  17
TORSDOF 6
ENDMDL
MODEL 4
REMARK VINA RESULT:      -8.7      0.158      3.169
REMARK  Name = 
REMARK  7 active torsions:
REMARK  status: ('A' for Active; 'I' for Inactive)
REMARK    1  A    between atoms: C_1  and  C_2
REMARK    2  A    between atoms: C_2  and  O_3
REMARK    3  A    between atoms: C_2  and  C_18
REMARK    4  A    between atoms: O_3  and  C_4
REMARK    5  A    between atoms: C_10  and  C_11
REMARK    6  A    between atoms: C_20  and  C_21
REMARK    7  A    between atoms: C_26  and  C_27
REMARK                            x       y       z     vdW  Elec       q    Type
REMARK                         _______ _______ _______ _____ _____    ______ ____
ROOT
ATOM      1  C   UNL     1       2.462   7.858  17.353  0.00  0.00    +0.000 C 
ATOM      2  C   UNL     1       2.015   7.456  18.762  0.00  0.00    +0.000 C 
ENDROOT
BRANCH   2   3
ATOM      3  C   UNL     1       1.475   8.703  19.450  0.00  0.00    +0.000 A 
ATOM      4  C   UNL     1       1.579   9.962  18.841  0.00  0.00    +0.000 A 
ATOM      5  C   UNL     1       1.143  11.121  19.502  0.00  0.00    +0.000 A 
ATOM      6  C   UNL     1       0.595  11.011  20.792  0.00  0.00    +0.000 A 
ATOM      7  C   UNL     1       0.479   9.763  21.421  0.00  0.00    +0.000 A 
ATOM      8  C   UNL     1       0.920   8.620  20.739  0.00  0.00    +0.000 A 
BRANCH   5   9
ATOM      9  C   UNL     1       1.252  12.478  18.850  0.00  0.00    +0.000 C 
ATOM     10  F   UNL     1       0.136  12.850  18.163  0.00  0.00    +0.000 F 
ATOM     11  F   UNL     1       1.486  13.471  19.750  0.00  0.00    +0.000 F 
ATOM     12  F   UNL     1       2.276  12.541  17.952  0.00  0.00    +0.000 F 
ENDBRANCH   5   9
BRANCH   7  13
ATOM     13  C   UNL     1      -0.089   9.629  22.814  0.00  0.00    +0.000 C 
ATOM     14  F   UNL     1      -0.727  10.752  23.249  0.00  0.00    +0.000 F 
ATOM     15  F   UNL     1      -0.997   8.622  22.921  0.00  0.00    +0.000 F 
ATOM     16  F   UNL     1       0.871   9.370  23.741  0.00  0.00    +0.000 F 
ENDBRANCH   7  13
ENDBRANCH   2   3
BRANCH   2  17
ATOM     17  O   UNL     1       3.080   6.960  19.577  0.00  0.00    +0.000 OA
BRANCH  17  18
ATOM     18  C   UNL     1       3.048   5.555  19.933  0.00  0.00    +0.000 C 
ATOM     19  C   UNL     1       1.565   5.154  20.022  0.00  0.00    +0.000 C 
ATOM     20  C   UNL     1       1.300   3.718  19.624  0.00  0.00    +0.000 C 
ATOM     21  C   UNL     1       2.022   3.332  18.315  0.00  0.00    +0.000 C 
ATOM     22  C   UNL     1       3.105   2.330  18.651  0.00  0.00    +0.000 C 
ATOM     23  C   UNL     1       4.176   3.227  19.267  0.00  0.00    +0.000 C 
ATOM     24  C   UNL     1       3.828   4.692  18.836  0.00  0.00    +0.000 C 
ATOM     25  N   UNL     1       2.843   4.433  17.749  0.00  0.00    +0.000 NA
ATOM     26  H   UNL     1       3.343   4.079  16.934  0.00  0.00    +0.000 HD
BRANCH  24  27
ATOM     27  C   UNL     1       5.149   5.377  18.473  0.00  0.00    +0.000 A 
ATOM     28  C   UNL     1       5.362   6.107  17.295  0.00  0.00    +0.000 A 
ATOM     29  C   UNL     1       6.605   6.705  17.047  0.00  0.00    +0.000 A 
ATOM     30  C   UNL     1       7.644   6.596  17.972  0.00  0.00    +0.000 A 
ATOM     31  C   UNL     1       7.450   5.874  19.142  0.00  0.00    +0.000 A 
ATOM     32  C   UNL     1       6.217   5.274  19.385  0.00  0.00    +0.000 A 
ENDBRANCH  24  27
ENDBRANCH  17  18
ENDBRANCH   2  17
TORSDOF 6
ENDMDL
MODEL 5
REMARK VINA RESULT:      -8.4      1.114      1.651
REMARK  Name = 
REMARK  7 active torsions:
REMARK  status: ('A' for Active; 'I' for Inactive)
REMARK    1  A    between atoms: C_1  and  C_2
REMARK    2  A    between atoms: C_2  and  O_3
REMARK    3  A    between atoms: C_2  and  C_18
REMARK    4  A    between atoms: O_3  and  C_4
REMARK    5  A    between atoms: C_10  and  C_11
REMARK    6  A    between atoms: C_20  and  C_21
REMARK    7  A    between atoms: C_26  and  C_27
REMARK                            x       y       z     vdW  Elec       q    Type
REMARK                         _______ _______ _______ _____ _____    ______ ____
ROOT
ATOM      1  C   UNL     1       3.144   8.186  17.440  0.00  0.00    +0.000 C 
ATOM      2  C   UNL     1       2.333   7.431  18.497  0.00  0.00    +0.000 C 
ENDROOT
BRANCH   2   3
ATOM      3  C   UNL     1       1.405   8.434  19.172  0.00  0.00    +0.000 A 
ATOM      4  C   UNL     1       1.328   8.515  20.569  0.00  0.00    +0.000 A 
ATOM      5  C   UNL     1       0.426   9.391  21.192  0.00  0.00    +0.000 A 
ATOM      6  C   UNL     1      -0.411  10.195  20.398  0.00  0.00    +0.000 A 
ATOM      7  C   UNL     1      -0.351  10.133  18.998  0.00  0.00    +0.000 A 
ATOM      8  C   UNL     1       0.561   9.252  18.400  0.00  0.00    +0.000 A 
BRANCH   5   9
ATOM      9  C   UNL     1       0.340   9.482  22.697  0.00  0.00    +0.000 C 
ATOM     10  F   UNL     1      -0.195  10.651  23.147  0.00  0.00    +0.000 F 
ATOM     11  F   UNL     1      -0.419   8.491  23.236  0.00  0.00    +0.000 F 
ATOM     12  F   UNL     1       1.562   9.380  23.293  0.00  0.00    +0.000 F 
ENDBRANCH   5   9
BRANCH   7  13
ATOM     13  C   UNL     1      -1.255  10.975  18.129  0.00  0.00    +0.000 C 
ATOM     14  F   UNL     1      -0.759  12.220  17.878  0.00  0.00    +0.000 F 
ATOM     15  F   UNL     1      -1.489  10.416  16.912  0.00  0.00    +0.000 F 
ATOM     16  F   UNL     1      -2.476  11.173  18.694  0.00  0.00    +0.000 F 
ENDBRANCH   7  13
ENDBRANCH   2   3
BRANCH   2  17
ATOM     17  O   UNL     1       3.138   6.852  19.527  0.00  0.00    +0.000 OA
BRANCH  17  18
ATOM     18  C   UNL     1       3.069   5.414  19.698  0.00  0.00    +0.000 C 
ATOM     19  C   UNL     1       1.581   5.029  19.618  0.00  0.00    +0.000 C 
ATOM     20  C   UNL     1       1.340   3.659  19.021  0.00  0.00    +0.000 C 
ATOM     21  C   UNL     1       2.162   3.430  17.735  0.00  0.00    +0.000 C 
ATOM     22  C   UNL     1       3.209   2.376  18.025  0.00  0.00    +0.000 C 
ATOM     23  C   UNL     1       4.233   3.171  18.832  0.00  0.00    +0.000 C 
ATOM     24  C   UNL     1       3.929   4.684  18.565  0.00  0.00    +0.000 C 
ATOM     25  N   UNL     1       3.033   4.580  17.379  0.00  0.00    +0.000 NA
ATOM     26  H   UNL     1       3.595   4.324  16.568  0.00  0.00    +0.000 HD
BRANCH  24  27
ATOM     27  C   UNL     1       5.279   5.387  18.397  0.00  0.00    +0.000 A 
ATOM     28  C   UNL     1       5.632   6.165  17.285  0.00  0.00    +0.000 A 
ATOM     29  C   UNL     1       6.890   6.776  17.218  0.00  0.00    +0.000 A 
ATOM     30  C   UNL     1       7.808   6.633  18.261  0.00  0.00    +0.000 A 
ATOM     31  C   UNL     1       7.475   5.865  19.368  0.00  0.00    +0.000 A 
ATOM     32  C   UNL     1       6.226   5.251  19.431  0.00  0.00    +0.000 A 
ENDBRANCH  24  27
ENDBRANCH  17  18
ENDBRANCH   2  17
TORSDOF 6
ENDMDL
MODEL 6
REMARK VINA RESULT:      -8.4      1.128      1.737
REMARK  Name = 
REMARK  7 active torsions:
REMARK  status: ('A' for Active; 'I' for Inactive)
REMARK    1  A    between atoms: C_1  and  C_2
REMARK    2  A    between atoms: C_2  and  O_3
REMARK    3  A    between atoms: C_2  and  C_18
REMARK    4  A    between atoms: O_3  and  C_4
REMARK    5  A    between atoms: C_10  and  C_11
REMARK    6  A    between atoms: C_20  and  C_21
REMARK    7  A    between atoms: C_26  and  C_27
REMARK                            x       y       z     vdW  Elec       q    Type
REMARK                         _______ _______ _______ _____ _____    ______ ____
ROOT
ATOM      1  C   UNL     1       3.099   8.074  17.525  0.00  0.00    +0.000 C 
ATOM      2  C   UNL     1       2.287   7.362  18.610  0.00  0.00    +0.000 C 
ENDROOT
BRANCH   2   3
ATOM      3  C   UNL     1       1.365   8.393  19.250  0.00  0.00    +0.000 A 
ATOM      4  C   UNL     1       1.265   8.500  20.644  0.00  0.00    +0.000 A 
ATOM      5  C   UNL     1       0.368   9.402  21.236  0.00  0.00    +0.000 A 
ATOM      6  C   UNL     1      -0.441  10.206  20.412  0.00  0.00    +0.000 A 
ATOM      7  C   UNL     1      -0.358  10.118  19.015  0.00  0.00    +0.000 A 
ATOM      8  C   UNL     1       0.549   9.210  18.449  0.00  0.00    +0.000 A 
BRANCH   5   9
ATOM      9  C   UNL     1       0.258   9.522  22.737  0.00  0.00    +0.000 C 
ATOM     10  F   UNL     1       1.435   9.319  23.392  0.00  0.00    +0.000 F 
ATOM     11  F   UNL     1      -0.184  10.747  23.131  0.00  0.00    +0.000 F 
ATOM     12  F   UNL     1      -0.619   8.623  23.266  0.00  0.00    +0.000 F 
ENDBRANCH   5   9
BRANCH   7  13
ATOM     13  C   UNL     1      -1.233  10.959  18.116  0.00  0.00    +0.000 C 
ATOM     14  F   UNL     1      -0.722  12.199  17.871  0.00  0.00    +0.000 F 
ATOM     15  F   UNL     1      -1.435  10.394  16.896  0.00  0.00    +0.000 F 
ATOM     16  F   UNL     1      -2.467  11.168  18.645  0.00  0.00    +0.000 F 
ENDBRANCH   7  13
ENDBRANCH   2   3
BRANCH   2  17
ATOM     17  O   UNL     1       3.092   6.816  19.658  0.00  0.00    +0.000 OA
BRANCH  17  18
ATOM     18  C   UNL     1       2.973   5.395  19.918  0.00  0.00    +0.000 C 
ATOM     19  C   UNL     1       1.468   5.086  20.014  0.00  0.00    +0.000 C 
ATOM     20  C   UNL     1       1.100   3.701  19.526  0.00  0.00    +0.000 C 
ATOM     21  C   UNL     1       1.770   3.361  18.177  0.00  0.00    +0.000 C 
ATOM     22  C   UNL     1       2.790   2.270  18.419  0.00  0.00    +0.000 C 
ATOM     23  C   UNL     1       3.930   3.050  19.069  0.00  0.00    +0.000 C 
ATOM     24  C   UNL     1       3.672   4.561  18.747  0.00  0.00    +0.000 C 
ATOM     25  N   UNL     1       2.652   4.442  17.668  0.00  0.00    +0.000 NA
ATOM     26  H   UNL     1       3.113   4.114  16.820  0.00  0.00    +0.000 HD
BRANCH  24  27
ATOM     27  C   UNL     1       5.029   5.181  18.401  0.00  0.00    +0.000 A 
ATOM     28  C   UNL     1       6.082   5.334  19.314  0.00  0.00    +0.000 A 
ATOM     29  C   UNL     1       7.294   5.910  18.909  0.00  0.00    +0.000 A 
ATOM     30  C   UNL     1       7.477   6.327  17.589  0.00  0.00    +0.000 A 
ATOM     31  C   UNL     1       6.444   6.183  16.674  0.00  0.00    +0.000 A 
ATOM     32  C   UNL     1       5.237   5.617  17.079  0.00  0.00    +0.000 A 
ENDBRANCH  24  27
ENDBRANCH  17  18
ENDBRANCH   2  17
TORSDOF 6
ENDMDL
MODEL 7
REMARK VINA RESULT:      -8.2      1.058      3.111
REMARK  Name = 
REMARK  7 active torsions:
REMARK  status: ('A' for Active; 'I' for Inactive)
REMARK    1  A    between atoms: C_1  and  C_2
REMARK    2  A    between atoms: C_2  and  O_3
REMARK    3  A    between atoms: C_2  and  C_18
REMARK    4  A    between atoms: O_3  and  C_4
REMARK    5  A    between atoms: C_10  and  C_11
REMARK    6  A    between atoms: C_20  and  C_21
REMARK    7  A    between atoms: C_26  and  C_27
REMARK                            x       y       z     vdW  Elec       q    Type
REMARK                         _______ _______ _______ _____ _____    ______ ____
ROOT
ATOM      1  C   UNL     1       3.062   8.222  17.382  0.00  0.00    +0.000 C 
ATOM      2  C   UNL     1       2.286   7.431  18.439  0.00  0.00    +0.000 C 
ENDROOT
BRANCH   2   3
ATOM      3  C   UNL     1       1.327   8.396  19.127  0.00  0.00    +0.000 A 
ATOM      4  C   UNL     1       0.544   9.285  18.380  0.00  0.00    +0.000 A 
ATOM      5  C   UNL     1      -0.289  10.221  19.013  0.00  0.00    +0.000 A 
ATOM      6  C   UNL     1      -0.333  10.261  20.418  0.00  0.00    +0.000 A 
ATOM      7  C   UNL     1       0.441   9.381  21.188  0.00  0.00    +0.000 A 
ATOM      8  C   UNL     1       1.263   8.454  20.531  0.00  0.00    +0.000 A 
BRANCH   5   9
ATOM      9  C   UNL     1      -1.136  11.180  18.212  0.00  0.00    +0.000 C 
ATOM     10  F   UNL     1      -0.521  12.366  17.946  0.00  0.00    +0.000 F 
ATOM     11  F   UNL     1      -1.502  10.669  17.005  0.00  0.00    +0.000 F 
ATOM     12  F   UNL     1      -2.299  11.501  18.847  0.00  0.00    +0.000 F 
ENDBRANCH   5   9
BRANCH   7  13
ATOM     13  C   UNL     1       0.422   9.423  22.698  0.00  0.00    +0.000 C 
ATOM     14  F   UNL     1      -0.393   8.482  23.255  0.00  0.00    +0.000 F 
ATOM     15  F   UNL     1       1.649   9.223  23.248  0.00  0.00    +0.000 F 
ATOM     16  F   UNL     1      -0.016  10.618  23.175  0.00  0.00    +0.000 F 
ENDBRANCH   7  13
ENDBRANCH   2   3
BRANCH   2  17
ATOM     17  O   UNL     1       3.119   6.875  19.460  0.00  0.00    +0.000 OA
BRANCH  17  18
ATOM     18  C   UNL     1       3.079   5.438  19.642  0.00  0.00    +0.000 C 
ATOM     19  C   UNL     1       1.604   5.016  19.521  0.00  0.00    +0.000 C 
ATOM     20  C   UNL     1       1.414   3.635  18.931  0.00  0.00    +0.000 C 
ATOM     21  C   UNL     1       2.279   3.415  17.672  0.00  0.00    +0.000 C 
ATOM     22  C   UNL     1       3.342   2.389  18.004  0.00  0.00    +0.000 C 
ATOM     23  C   UNL     1       4.321   3.215  18.834  0.00  0.00    +0.000 C 
ATOM     24  C   UNL     1       3.990   4.718  18.543  0.00  0.00    +0.000 C 
ATOM     25  N   UNL     1       3.132   4.582  17.332  0.00  0.00    +0.000 NA
ATOM     26  H   UNL     1       3.725   4.332  16.541  0.00  0.00    +0.000 HD
BRANCH  24  27
ATOM     27  C   UNL     1       5.327   5.452  18.409  0.00  0.00    +0.000 A 
ATOM     28  C   UNL     1       5.647   6.325  17.359  0.00  0.00    +0.000 A 
ATOM     29  C   UNL     1       6.897   6.958  17.320  0.00  0.00    +0.000 A 
ATOM     30  C   UNL     1       7.836   6.742  18.330  0.00  0.00    +0.000 A 
ATOM     31  C   UNL     1       7.536   5.880  19.375  0.00  0.00    +0.000 A 
ATOM     32  C   UNL     1       6.296   5.245  19.410  0.00  0.00    +0.000 A 
ENDBRANCH  24  27
ENDBRANCH  17  18
ENDBRANCH   2  17
TORSDOF 6
ENDMDL
MODEL 8
REMARK VINA RESULT:      -8.2      1.133      3.266
REMARK  Name = 
REMARK  7 active torsions:
REMARK  status: ('A' for Active; 'I' for Inactive)
REMARK    1  A    between atoms: C_1  and  C_2
REMARK    2  A    between atoms: C_2  and  O_3
REMARK    3  A    between atoms: C_2  and  C_18
REMARK    4  A    between atoms: O_3  and  C_4
REMARK    5  A    between atoms: C_10  and  C_11
REMARK    6  A    between atoms: C_20  and  C_21
REMARK    7  A    between atoms: C_26  and  C_27
REMARK                            x       y       z     vdW  Elec       q    Type
REMARK                         _______ _______ _______ _____ _____    ______ ____
ROOT
ATOM      1  C   UNL     1       3.143   8.132  17.532  0.00  0.00    +0.000 C 
ATOM      2  C   UNL     1       2.317   7.348  18.555  0.00  0.00    +0.000 C 
ENDROOT
BRANCH   2   3
ATOM      3  C   UNL     1       1.322   8.315  19.185  0.00  0.00    +0.000 A 
ATOM      4  C   UNL     1       0.511   9.134  18.387  0.00  0.00    +0.000 A 
ATOM      5  C   UNL     1      -0.357  10.073  18.965  0.00  0.00    +0.000 A 
ATOM      6  C   UNL     1      -0.409  10.190  20.365  0.00  0.00    +0.000 A 
ATOM      7  C   UNL     1       0.391   9.381  21.185  0.00  0.00    +0.000 A 
ATOM      8  C   UNL     1       1.248   8.449  20.583  0.00  0.00    +0.000 A 
BRANCH   5   9
ATOM      9  C   UNL     1      -1.233  10.956  18.108  0.00  0.00    +0.000 C 
ATOM     10  F   UNL     1      -1.478  10.449  16.868  0.00  0.00    +0.000 F 
ATOM     11  F   UNL     1      -2.452  11.181  18.669  0.00  0.00    +0.000 F 
ATOM     12  F   UNL     1      -0.685  12.187  17.903  0.00  0.00    +0.000 F 
ENDBRANCH   5   9
BRANCH   7  13
ATOM     13  C   UNL     1       0.362   9.506  22.690  0.00  0.00    +0.000 C 
ATOM     14  F   UNL     1       1.586   9.346  23.270  0.00  0.00    +0.000 F 
ATOM     15  F   UNL     1      -0.092  10.717  23.111  0.00  0.00    +0.000 F 
ATOM     16  F   UNL     1      -0.444   8.579  23.270  0.00  0.00    +0.000 F 
ENDBRANCH   7  13
ENDBRANCH   2   3
BRANCH   2  17
ATOM     17  O   UNL     1       3.098   6.803  19.621  0.00  0.00    +0.000 OA
BRANCH  17  18
ATOM     18  C   UNL     1       2.993   5.378  19.864  0.00  0.00    +0.000 C 
ATOM     19  C   UNL     1       1.490   5.048  19.917  0.00  0.00    +0.000 C 
ATOM     20  C   UNL     1       1.155   3.663  19.406  0.00  0.00    +0.000 C 
ATOM     21  C   UNL     1       1.863   3.347  18.071  0.00  0.00    +0.000 C 
ATOM     22  C   UNL     1       2.892   2.267  18.328  0.00  0.00    +0.000 C 
ATOM     23  C   UNL     1       4.004   3.055  19.015  0.00  0.00    +0.000 C 
ATOM     24  C   UNL     1       3.733   4.566  18.702  0.00  0.00    +0.000 C 
ATOM     25  N   UNL     1       2.742   4.445  17.596  0.00  0.00    +0.000 NA
ATOM     26  H   UNL     1       3.229   4.132  16.757  0.00  0.00    +0.000 HD
BRANCH  24  27
ATOM     27  C   UNL     1       5.090   5.209  18.398  0.00  0.00    +0.000 A 
ATOM     28  C   UNL     1       6.127   5.341  19.332  0.00  0.00    +0.000 A 
ATOM     29  C   UNL     1       7.340   5.940  18.964  0.00  0.00    +0.000 A 
ATOM     30  C   UNL     1       7.539   6.400  17.661  0.00  0.00    +0.000 A 
ATOM     31  C   UNL     1       6.522   6.278  16.725  0.00  0.00    +0.000 A 
ATOM     32  C   UNL     1       5.314   5.689  17.093  0.00  0.00    +0.000 A 
ENDBRANCH  24  27
ENDBRANCH  17  18
ENDBRANCH   2  17
TORSDOF 6
ENDMDL
MODEL 9
REMARK VINA RESULT:      -8.1      5.430      8.729
REMARK  Name = 
REMARK  7 active torsions:
REMARK  status: ('A' for Active; 'I' for Inactive)
REMARK    1  A    between atoms: C_1  and  C_2
REMARK    2  A    between atoms: C_2  and  O_3
REMARK    3  A    between atoms: C_2  and  C_18
REMARK    4  A    between atoms: O_3  and  C_4
REMARK    5  A    between atoms: C_10  and  C_11
REMARK    6  A    between atoms: C_20  and  C_21
REMARK    7  A    between atoms: C_26  and  C_27
REMARK                            x       y       z     vdW  Elec       q    Type
REMARK                         _______ _______ _______ _____ _____    ______ ____
ROOT
ATOM      1  C   UNL     1      -2.820  10.180  17.154  0.00  0.00    +0.000 C 
ATOM      2  C   UNL     1      -2.690  11.328  18.159  0.00  0.00    +0.000 C 
ENDROOT
BRANCH   2   3
ATOM      3  C   UNL     1      -1.345  11.180  18.860  0.00  0.00    +0.000 A 
ATOM      4  C   UNL     1      -1.158  10.214  19.859  0.00  0.00    +0.000 A 
ATOM      5  C   UNL     1       0.059  10.120  20.552  0.00  0.00    +0.000 A 
ATOM      6  C   UNL     1       1.100  11.011  20.236  0.00  0.00    +0.000 A 
ATOM      7  C   UNL     1       0.938  11.984  19.239  0.00  0.00    +0.000 A 
ATOM      8  C   UNL     1      -0.286  12.055  18.559  0.00  0.00    +0.000 A 
BRANCH   5   9
ATOM      9  C   UNL     1       0.266   9.081  21.628  0.00  0.00    +0.000 C 
ATOM     10  F   UNL     1       0.290   9.594  22.890  0.00  0.00    +0.000 F 
ATOM     11  F   UNL     1      -0.709   8.132  21.629  0.00  0.00    +0.000 F 
ATOM     12  F   UNL     1       1.441   8.408  21.480  0.00  0.00    +0.000 F 
ENDBRANCH   5   9
BRANCH   7  13
ATOM     13  C   UNL     1       2.039  12.961  18.900  0.00  0.00    +0.000 C 
ATOM     14  F   UNL     1       2.826  13.281  19.966  0.00  0.00    +0.000 F 
ATOM     15  F   UNL     1       2.884  12.493  17.942  0.00  0.00    +0.000 F 
ATOM     16  F   UNL     1       1.555  14.142  18.432  0.00  0.00    +0.000 F 
ENDBRANCH   7  13
ENDBRANCH   2   3
BRANCH   2  17
ATOM     17  O   UNL     1      -3.693  11.310  19.178  0.00  0.00    +0.000 OA
BRANCH  17  18
ATOM     18  C   UNL     1      -4.611  12.431  19.229  0.00  0.00    +0.000 C 
ATOM     19  C   UNL     1      -5.963  11.921  18.699  0.00  0.00    +0.000 C 
ATOM     20  C   UNL     1      -7.158  12.595  19.339  0.00  0.00    +0.000 C 
ATOM     21  C   UNL     1      -7.029  12.677  20.875  0.00  0.00    +0.000 C 
ATOM     22  C   UNL     1      -6.857  14.131  21.257  0.00  0.00    +0.000 C 
ATOM     23  C   UNL     1      -5.401  14.382  20.873  0.00  0.00    +0.000 C 
ATOM     24  C   UNL     1      -4.732  12.973  20.728  0.00  0.00    +0.000 C 
ATOM     25  N   UNL     1      -5.754  12.114  21.389  0.00  0.00    +0.000 NA
ATOM     26  H   UNL     1      -5.711  12.273  22.395  0.00  0.00    +0.000 HD
BRANCH  24  27
ATOM     27  C   UNL     1      -3.342  13.072  21.364  0.00  0.00    +0.000 A 
ATOM     28  C   UNL     1      -2.890  12.248  22.404  0.00  0.00    +0.000 A 
ATOM     29  C   UNL     1      -1.598  12.406  22.923  0.00  0.00    +0.000 A 
ATOM     30  C   UNL     1      -0.737  13.374  22.404  0.00  0.00    +0.000 A 
ATOM     31  C   UNL     1      -1.169  14.199  21.375  0.00  0.00    +0.000 A 
ATOM     32  C   UNL     1      -2.457  14.046  20.864  0.00  0.00    +0.000 A 
ENDBRANCH  24  27
ENDBRANCH  17  18
ENDBRANCH   2  17
TORSDOF 6
ENDMDL
