MODEL 1
REMARK VINA RESULT:      -9.3      0.000      0.000
REMARK  Name = 
REMARK  5 active torsions:
REMARK  status: ('A' for Active; 'I' for Inactive)
REMARK    1  A    between atoms: N_3  and  C_4
REMARK    2  A    between atoms: N_11  and  C_12
REMARK    3  A    between atoms: C_12  and  C_13
REMARK    4  A    between atoms: C_12  and  C_24
REMARK    5  A    between atoms: N_15  and  C_16
REMARK                            x       y       z     vdW  Elec       q    Type
REMARK                         _______ _______ _______ _____ _____    ______ ____
ROOT
ATOM      1  C   UNL     1       6.669   5.598  16.978  0.00  0.00    +0.000 C 
ENDROOT
BRANCH   1   5
ATOM      2  O   UNL     1       8.279   7.009  18.779  0.00  0.00    +0.000 OA
ATOM      3  C   UNL     1       7.775   7.639  17.861  0.00  0.00    +0.000 C 
ATOM      4  N   UNL     1       7.938   8.990  17.615  0.00  0.00    +0.000 N 
ATOM      5  N   UNL     1       6.925   7.043  16.957  0.00  0.00    +0.000 N 
ATOM      6  H   UNL     1       7.254   9.411  17.005  0.00  0.00    +0.000 HD
ATOM      7  H   UNL     1       6.685   7.520  16.101  0.00  0.00    +0.000 HD
BRANCH   4   8
ATOM      8  C   UNL     1       8.810   9.874  18.300  0.00  0.00    +0.000 A 
ATOM      9  C   UNL     1       8.937   9.900  19.694  0.00  0.00    +0.000 A 
ATOM     10  C   UNL     1       9.792  10.813  20.325  0.00  0.00    +0.000 A 
ATOM     11  C   UNL     1      10.539  11.710  19.569  0.00  0.00    +0.000 A 
ATOM     12  C   UNL     1      10.438  11.675  18.181  0.00  0.00    +0.000 A 
ATOM     13 CL   UNL     1      11.361  12.786  17.239  0.00  0.00    +0.000 Cl
ATOM     14  C   UNL     1       9.592  10.760  17.544  0.00  0.00    +0.000 A 
ENDBRANCH   4   8
ENDBRANCH   1   5
BRANCH   1  15
ATOM     15  C   UNL     1       6.639   5.046  15.556  0.00  0.00    +0.000 A 
ATOM     16  C   UNL     1       7.668   5.372  14.658  0.00  0.00    +0.000 A 
ATOM     17  C   UNL     1       7.612   4.957  13.327  0.00  0.00    +0.000 A 
ATOM     18  C   UNL     1       6.532   4.203  12.874  0.00  0.00    +0.000 A 
ATOM     19  C   UNL     1       5.514   3.851  13.756  0.00  0.00    +0.000 A 
ATOM     20  C   UNL     1       5.563   4.274  15.085  0.00  0.00    +0.000 A 
ENDBRANCH   1  15
BRANCH   1  21
ATOM     21  C   UNL     1       5.330   5.332  17.719  0.00  0.00    +0.000 C 
ATOM     22  O   UNL     1       4.499   6.232  17.864  0.00  0.00    +0.000 OA
ATOM     23  N   UNL     1       5.162   4.020  18.142  0.00  0.00    +0.000 N 
ATOM     24  H   UNL     1       5.981   3.418  18.155  0.00  0.00    +0.000 HD
BRANCH  23  25
ATOM     25  C   UNL     1       3.999   3.468  18.733  0.00  0.00    +0.000 A 
ATOM     26  C   UNL     1       3.862   3.218  20.099  0.00  0.00    +0.000 A 
ATOM     27  C   UNL     1       2.683   2.652  20.586  0.00  0.00    +0.000 A 
ATOM     28  F   UNL     1       2.559   2.423  21.900  0.00  0.00    +0.000 F 
ATOM     29  C   UNL     1       1.630   2.321  19.739  0.00  0.00    +0.000 A 
ATOM     30  C   UNL     1       1.745   2.586  18.377  0.00  0.00    +0.000 A 
ATOM     31  C   UNL     1       2.916   3.167  17.890  0.00  0.00    +0.000 A 
ATOM     32  F   UNL     1       3.016   3.415  16.575  0.00  0.00    +0.000 F 
ENDBRANCH  23  25
ENDBRANCH   1  21
TORSDOF 5
ENDMDL
MODEL 2
REMARK VINA RESULT:      -9.2      1.535      1.784
REMARK  Name = 
REMARK  5 active torsions:
REMARK  status: ('A' for Active; 'I' for Inactive)
REMARK    1  A    between atoms: N_3  and  C_4
REMARK    2  A    between atoms: N_11  and  C_12
REMARK    3  A    between atoms: C_12  and  C_13
REMARK    4  A    between atoms: C_12  and  C_24
REMARK    5  A    between atoms: N_15  and  C_16
REMARK                            x       y       z     vdW  Elec       q    Type
REMARK                         _______ _______ _______ _____ _____    ______ ____
ROOT
ATOM      1  C   UNL     1       7.020   5.472  16.827  0.00  0.00    +0.000 C 
ENDROOT
BRANCH   1   5
ATOM      2  O   UNL     1       8.428   7.050  18.659  0.00  0.00    +0.000 OA
ATOM      3  C   UNL     1       7.801   7.628  17.783  0.00  0.00    +0.000 C 
ATOM      4  N   UNL     1       7.733   8.997  17.599  0.00  0.00    +0.000 N 
ATOM      5  N   UNL     1       7.035   6.939  16.871  0.00  0.00    +0.000 N 
ATOM      6  H   UNL     1       6.971   9.324  17.024  0.00  0.00    +0.000 HD
ATOM      7  H   UNL     1       6.694   7.407  16.043  0.00  0.00    +0.000 HD
BRANCH   4   8
ATOM      8  C   UNL     1       8.466   9.981  18.307  0.00  0.00    +0.000 A 
ATOM      9  C   UNL     1       9.041   9.756  19.563  0.00  0.00    +0.000 A 
ATOM     10  C   UNL     1       9.733  10.772  20.235  0.00  0.00    +0.000 A 
ATOM     11  C   UNL     1       9.867  12.029  19.655  0.00  0.00    +0.000 A 
ATOM     12  C   UNL     1       9.320  12.256  18.395  0.00  0.00    +0.000 A 
ATOM     13 CL   UNL     1       9.482  13.813  17.672  0.00  0.00    +0.000 Cl
ATOM     14  C   UNL     1       8.635  11.242  17.715  0.00  0.00    +0.000 A 
ENDBRANCH   4   8
ENDBRANCH   1   5
BRANCH   1  15
ATOM     15  C   UNL     1       6.785   4.987  15.401  0.00  0.00    +0.000 A 
ATOM     16  C   UNL     1       5.807   4.012  15.147  0.00  0.00    +0.000 A 
ATOM     17  C   UNL     1       5.639   3.485  13.866  0.00  0.00    +0.000 A 
ATOM     18  C   UNL     1       6.438   3.930  12.816  0.00  0.00    +0.000 A 
ATOM     19  C   UNL     1       7.398   4.913  13.044  0.00  0.00    +0.000 A 
ATOM     20  C   UNL     1       7.575   5.434  14.327  0.00  0.00    +0.000 A 
ENDBRANCH   1  15
BRANCH   1  21
ATOM     21  C   UNL     1       5.922   4.949  17.793  0.00  0.00    +0.000 C 
ATOM     22  O   UNL     1       6.206   4.185  18.719  0.00  0.00    +0.000 OA
ATOM     23  N   UNL     1       4.651   5.448  17.537  0.00  0.00    +0.000 N 
ATOM     24  H   UNL     1       4.491   5.899  16.640  0.00  0.00    +0.000 HD
BRANCH  23  25
ATOM     25  C   UNL     1       3.489   5.239  18.321  0.00  0.00    +0.000 A 
ATOM     26  C   UNL     1       3.131   6.034  19.410  0.00  0.00    +0.000 A 
ATOM     27  C   UNL     1       1.976   5.738  20.135  0.00  0.00    +0.000 A 
ATOM     28  F   UNL     1       1.636   6.511  21.175  0.00  0.00    +0.000 F 
ATOM     29  C   UNL     1       1.165   4.656  19.802  0.00  0.00    +0.000 A 
ATOM     30  C   UNL     1       1.500   3.868  18.705  0.00  0.00    +0.000 A 
ATOM     31  C   UNL     1       2.645   4.173  17.968  0.00  0.00    +0.000 A 
ATOM     32  F   UNL     1       2.959   3.405  16.913  0.00  0.00    +0.000 F 
ENDBRANCH  23  25
ENDBRANCH   1  21
TORSDOF 5
ENDMDL
MODEL 3
REMARK VINA RESULT:      -9.1      0.497      1.024
REMARK  Name = 
REMARK  5 active torsions:
REMARK  status: ('A' for Active; 'I' for Inactive)
REMARK    1  A    between atoms: N_3  and  C_4
REMARK    2  A    between atoms: N_11  and  C_12
REMARK    3  A    between atoms: C_12  and  C_13
REMARK    4  A    between atoms: C_12  and  C_24
REMARK    5  A    between atoms: N_15  and  C_16
REMARK                            x       y       z     vdW  Elec       q    Type
REMARK                         _______ _______ _______ _____ _____    ______ ____
ROOT
ATOM      1  C   UNL     1       6.547   5.687  16.842  0.00  0.00    +0.000 C 
ENDROOT
BRANCH   1   5
ATOM      2  O   UNL     1       8.211   7.005  18.665  0.00  0.00    +0.000 OA
ATOM      3  C   UNL     1       7.710   7.674  17.772  0.00  0.00    +0.000 C 
ATOM      4  N   UNL     1       7.902   9.028  17.564  0.00  0.00    +0.000 N 
ATOM      5  N   UNL     1       6.836   7.126  16.862  0.00  0.00    +0.000 N 
ATOM      6  H   UNL     1       7.221   9.482  16.975  0.00  0.00    +0.000 HD
ATOM      7  H   UNL     1       6.597   7.633  16.023  0.00  0.00    +0.000 HD
BRANCH   4   8
ATOM      8  C   UNL     1       8.802   9.871  18.265  0.00  0.00    +0.000 A 
ATOM      9  C   UNL     1       8.910   9.888  19.660  0.00  0.00    +0.000 A 
ATOM     10  C   UNL     1       9.796  10.761  20.307  0.00  0.00    +0.000 A 
ATOM     11  C   UNL     1      10.593  11.625  19.564  0.00  0.00    +0.000 A 
ATOM     12  C   UNL     1      10.511  11.598  18.174  0.00  0.00    +0.000 A 
ATOM     13 CL   UNL     1      11.495  12.669  17.249  0.00  0.00    +0.000 Cl
ATOM     14  C   UNL     1       9.634  10.722  17.523  0.00  0.00    +0.000 A 
ENDBRANCH   4   8
ENDBRANCH   1   5
BRANCH   1  15
ATOM     15  C   UNL     1       6.533   5.169  15.408  0.00  0.00    +0.000 A 
ATOM     16  C   UNL     1       5.520   4.290  14.993  0.00  0.00    +0.000 A 
ATOM     17  C   UNL     1       5.540   3.730  13.714  0.00  0.00    +0.000 A 
ATOM     18  C   UNL     1       6.567   4.045  12.829  0.00  0.00    +0.000 A 
ATOM     19  C   UNL     1       7.568   4.933  13.215  0.00  0.00    +0.000 A 
ATOM     20  C   UNL     1       7.556   5.486  14.497  0.00  0.00    +0.000 A 
ENDBRANCH   1  15
BRANCH   1  21
ATOM     21  C   UNL     1       5.187   5.435  17.550  0.00  0.00    +0.000 C 
ATOM     22  O   UNL     1       4.238   6.206  17.385  0.00  0.00    +0.000 OA
ATOM     23  N   UNL     1       5.147   4.278  18.317  0.00  0.00    +0.000 N 
ATOM     24  H   UNL     1       6.031   3.832  18.548  0.00  0.00    +0.000 HD
BRANCH  23  25
ATOM     25  C   UNL     1       4.012   3.740  18.972  0.00  0.00    +0.000 A 
ATOM     26  C   UNL     1       3.624   4.083  20.267  0.00  0.00    +0.000 A 
ATOM     27  C   UNL     1       2.500   3.483  20.837  0.00  0.00    +0.000 A 
ATOM     28  F   UNL     1       2.131   3.825  22.079  0.00  0.00    +0.000 F 
ATOM     29  C   UNL     1       1.749   2.539  20.143  0.00  0.00    +0.000 A 
ATOM     30  C   UNL     1       2.113   2.204  18.842  0.00  0.00    +0.000 A 
ATOM     31  C   UNL     1       3.226   2.814  18.265  0.00  0.00    +0.000 A 
ATOM     32  F   UNL     1       3.568   2.482  17.010  0.00  0.00    +0.000 F 
ENDBRANCH  23  25
ENDBRANCH   1  21
TORSDOF 5
ENDMDL
MODEL 4
REMARK VINA RESULT:      -8.9      1.226      1.388
REMARK  Name = 
REMARK  5 active torsions:
REMARK  status: ('A' for Active; 'I' for Inactive)
REMARK    1  A    between atoms: N_3  and  C_4
REMARK    2  A    between atoms: N_11  and  C_12
REMARK    3  A    between atoms: C_12  and  C_13
REMARK    4  A    between atoms: C_12  and  C_24
REMARK    5  A    between atoms: N_15  and  C_16
REMARK                            x       y       z     vdW  Elec       q    Type
REMARK                         _______ _______ _______ _____ _____    ______ ____
ROOT
ATOM      1  C   UNL     1       6.463   5.752  16.901  0.00  0.00    +0.000 C 
ENDROOT
BRANCH   1   5
ATOM      2  O   UNL     1       8.099   7.081  18.741  0.00  0.00    +0.000 OA
ATOM      3  C   UNL     1       7.673   7.728  17.795  0.00  0.00    +0.000 C 
ATOM      4  N   UNL     1       7.938   9.061  17.536  0.00  0.00    +0.000 N 
ATOM      5  N   UNL     1       6.818   7.176  16.869  0.00  0.00    +0.000 N 
ATOM      6  H   UNL     1       7.307   9.516  16.894  0.00  0.00    +0.000 HD
ATOM      7  H   UNL     1       6.642   7.654  15.998  0.00  0.00    +0.000 HD
BRANCH   4   8
ATOM      8  C   UNL     1       8.842   9.894  18.240  0.00  0.00    +0.000 A 
ATOM      9  C   UNL     1       8.972   9.882  19.634  0.00  0.00    +0.000 A 
ATOM     10  C   UNL     1       9.862  10.747  20.286  0.00  0.00    +0.000 A 
ATOM     11  C   UNL     1      10.640  11.634  19.549  0.00  0.00    +0.000 A 
ATOM     12  C   UNL     1      10.537  11.636  18.161  0.00  0.00    +0.000 A 
ATOM     13 CL   UNL     1      11.499  12.734  17.245  0.00  0.00    +0.000 Cl
ATOM     14  C   UNL     1       9.656  10.768  17.504  0.00  0.00    +0.000 A 
ENDBRANCH   4   8
ENDBRANCH   1   5
BRANCH   1  15
ATOM     15  C   UNL     1       6.575   5.148  15.506  0.00  0.00    +0.000 A 
ATOM     16  C   UNL     1       7.625   5.536  14.659  0.00  0.00    +0.000 A 
ATOM     17  C   UNL     1       7.695   5.069  13.346  0.00  0.00    +0.000 A 
ATOM     18  C   UNL     1       6.721   4.199  12.861  0.00  0.00    +0.000 A 
ATOM     19  C   UNL     1       5.685   3.785  13.693  0.00  0.00    +0.000 A 
ATOM     20  C   UNL     1       5.608   4.260  15.004  0.00  0.00    +0.000 A 
ENDBRANCH   1  15
BRANCH   1  21
ATOM     21  C   UNL     1       5.025   5.603  17.470  0.00  0.00    +0.000 C 
ATOM     22  O   UNL     1       4.101   6.299  17.043  0.00  0.00    +0.000 OA
ATOM     23  N   UNL     1       4.893   4.615  18.438  0.00  0.00    +0.000 N 
ATOM     24  H   UNL     1       5.742   4.248  18.859  0.00  0.00    +0.000 HD
BRANCH  23  25
ATOM     25  C   UNL     1       3.686   4.181  19.040  0.00  0.00    +0.000 A 
ATOM     26  C   UNL     1       3.128   2.917  18.844  0.00  0.00    +0.000 A 
ATOM     27  C   UNL     1       1.923   2.587  19.466  0.00  0.00    +0.000 A 
ATOM     28  F   UNL     1       1.398   1.369  19.276  0.00  0.00    +0.000 F 
ATOM     29  C   UNL     1       1.253   3.494  20.282  0.00  0.00    +0.000 A 
ATOM     30  C   UNL     1       1.810   4.750  20.503  0.00  0.00    +0.000 A 
ATOM     31  C   UNL     1       3.023   5.076  19.896  0.00  0.00    +0.000 A 
ATOM     32  F   UNL     1       3.551   6.291  20.116  0.00  0.00    +0.000 F 
ENDBRANCH  23  25
ENDBRANCH   1  21
TORSDOF 5
ENDMDL
MODEL 5
REMARK VINA RESULT:      -8.9      1.245      1.427
REMARK  Name = 
REMARK  5 active torsions:
REMARK  status: ('A' for Active; 'I' for Inactive)
REMARK    1  A    between atoms: N_3  and  C_4
REMARK    2  A    between atoms: N_11  and  C_12
REMARK    3  A    between atoms: C_12  and  C_13
REMARK    4  A    between atoms: C_12  and  C_24
REMARK    5  A    between atoms: N_15  and  C_16
REMARK                            x       y       z     vdW  Elec       q    Type
REMARK                         _______ _______ _______ _____ _____    ______ ____
ROOT
ATOM      1  C   UNL     1       6.589   5.944  17.160  0.00  0.00    +0.000 C 
ENDROOT
BRANCH   1   5
ATOM      2  O   UNL     1       8.239   7.340  18.937  0.00  0.00    +0.000 OA
ATOM      3  C   UNL     1       7.837   7.941  17.952  0.00  0.00    +0.000 C 
ATOM      4  N   UNL     1       8.135   9.250  17.619  0.00  0.00    +0.000 N 
ATOM      5  N   UNL     1       6.978   7.356  17.050  0.00  0.00    +0.000 N 
ATOM      6  H   UNL     1       7.520   9.681  16.945  0.00  0.00    +0.000 HD
ATOM      7  H   UNL     1       6.821   7.786  16.151  0.00  0.00    +0.000 HD
BRANCH   4   8
ATOM      8  C   UNL     1       9.052  10.102  18.283  0.00  0.00    +0.000 A 
ATOM      9  C   UNL     1       9.165  10.172  19.677  0.00  0.00    +0.000 A 
ATOM     10  C   UNL     1      10.068  11.053  20.287  0.00  0.00    +0.000 A 
ATOM     11  C   UNL     1      10.878  11.873  19.508  0.00  0.00    +0.000 A 
ATOM     12  C   UNL     1      10.791  11.793  18.121  0.00  0.00    +0.000 A 
ATOM     13 CL   UNL     1      11.792  12.809  17.153  0.00  0.00    +0.000 Cl
ATOM     14  C   UNL     1       9.896  10.909  17.507  0.00  0.00    +0.000 A 
ENDBRANCH   4   8
ENDBRANCH   1   5
BRANCH   1  15
ATOM     15  C   UNL     1       6.580   5.289  15.783  0.00  0.00    +0.000 A 
ATOM     16  C   UNL     1       7.633   5.532  14.887  0.00  0.00    +0.000 A 
ATOM     17  C   UNL     1       7.600   5.020  13.589  0.00  0.00    +0.000 A 
ATOM     18  C   UNL     1       6.517   4.252  13.169  0.00  0.00    +0.000 A 
ATOM     19  C   UNL     1       5.474   3.982  14.051  0.00  0.00    +0.000 A 
ATOM     20  C   UNL     1       5.501   4.501  15.346  0.00  0.00    +0.000 A 
ENDBRANCH   1  15
BRANCH   1  21
ATOM     21  C   UNL     1       5.195   5.856  17.841  0.00  0.00    +0.000 C 
ATOM     22  O   UNL     1       4.269   6.586  17.481  0.00  0.00    +0.000 OA
ATOM     23  N   UNL     1       5.101   4.879  18.824  0.00  0.00    +0.000 N 
ATOM     24  H   UNL     1       5.966   4.481  19.181  0.00  0.00    +0.000 HD
BRANCH  23  25
ATOM     25  C   UNL     1       3.929   4.496  19.522  0.00  0.00    +0.000 A 
ATOM     26  C   UNL     1       2.905   5.379  19.869  0.00  0.00    +0.000 A 
ATOM     27  C   UNL     1       1.796   4.911  20.576  0.00  0.00    +0.000 A 
ATOM     28  F   UNL     1       0.816   5.765  20.898  0.00  0.00    +0.000 F 
ATOM     29  C   UNL     1       1.683   3.576  20.953  0.00  0.00    +0.000 A 
ATOM     30  C   UNL     1       2.687   2.682  20.593  0.00  0.00    +0.000 A 
ATOM     31  C   UNL     1       3.788   3.143  19.872  0.00  0.00    +0.000 A 
ATOM     32  F   UNL     1       4.751   2.271  19.533  0.00  0.00    +0.000 F 
ENDBRANCH  23  25
ENDBRANCH   1  21
TORSDOF 5
ENDMDL
MODEL 6
REMARK VINA RESULT:      -8.8      5.746      7.907
REMARK  Name = 
REMARK  5 active torsions:
REMARK  status: ('A' for Active; 'I' for Inactive)
REMARK    1  A    between atoms: N_3  and  C_4
REMARK    2  A    between atoms: N_11  and  C_12
REMARK    3  A    between atoms: C_12  and  C_13
REMARK    4  A    between atoms: C_12  and  C_24
REMARK    5  A    between atoms: N_15  and  C_16
REMARK                            x       y       z     vdW  Elec       q    Type
REMARK                         _______ _______ _______ _____ _____    ______ ____
ROOT
ATOM      1  C   UNL     1       1.959   6.388  19.213  0.00  0.00    +0.000 C 
ENDROOT
BRANCH   1   5
ATOM      2  O   UNL     1       0.692   8.877  19.069  0.00  0.00    +0.000 OA
ATOM      3  C   UNL     1       1.293   8.610  20.099  0.00  0.00    +0.000 C 
ATOM      4  N   UNL     1       1.394   9.420  21.216  0.00  0.00    +0.000 N 
ATOM      5  N   UNL     1       1.992   7.434  20.242  0.00  0.00    +0.000 N 
ATOM      6  H   UNL     1       2.136   9.188  21.859  0.00  0.00    +0.000 HD
ATOM      7  H   UNL     1       2.306   7.141  21.156  0.00  0.00    +0.000 HD
BRANCH   4   8
ATOM      8  C   UNL     1       0.726  10.651  21.429  0.00  0.00    +0.000 A 
ATOM      9  C   UNL     1       1.169  11.868  20.897  0.00  0.00    +0.000 A 
ATOM     10  C   UNL     1       0.489  13.064  21.161  0.00  0.00    +0.000 A 
ATOM     11  C   UNL     1      -0.651  13.059  21.957  0.00  0.00    +0.000 A 
ATOM     12  C   UNL     1      -1.114  11.851  22.472  0.00  0.00    +0.000 A 
ATOM     13 CL   UNL     1      -2.525  11.840  23.461  0.00  0.00    +0.000 Cl
ATOM     14  C   UNL     1      -0.443  10.651  22.204  0.00  0.00    +0.000 A 
ENDBRANCH   4   8
ENDBRANCH   1   5
BRANCH   1  15
ATOM     15  C   UNL     1       1.849   5.012  19.860  0.00  0.00    +0.000 A 
ATOM     16  C   UNL     1       1.156   3.983  19.201  0.00  0.00    +0.000 A 
ATOM     17  C   UNL     1       0.962   2.745  19.815  0.00  0.00    +0.000 A 
ATOM     18  C   UNL     1       1.463   2.512  21.093  0.00  0.00    +0.000 A 
ATOM     19  C   UNL     1       2.173   3.512  21.753  0.00  0.00    +0.000 A 
ATOM     20  C   UNL     1       2.360   4.755  21.144  0.00  0.00    +0.000 A 
ENDBRANCH   1  15
BRANCH   1  21
ATOM     21  C   UNL     1       3.237   6.502  18.336  0.00  0.00    +0.000 C 
ATOM     22  O   UNL     1       3.670   7.604  17.991  0.00  0.00    +0.000 OA
ATOM     23  N   UNL     1       3.833   5.284  18.033  0.00  0.00    +0.000 N 
ATOM     24  H   UNL     1       3.289   4.439  18.189  0.00  0.00    +0.000 HD
BRANCH  23  25
ATOM     25  C   UNL     1       5.063   5.092  17.357  0.00  0.00    +0.000 A 
ATOM     26  C   UNL     1       5.191   5.060  15.968  0.00  0.00    +0.000 A 
ATOM     27  C   UNL     1       6.445   4.845  15.392  0.00  0.00    +0.000 A 
ATOM     28  F   UNL     1       6.559   4.822  14.057  0.00  0.00    +0.000 F 
ATOM     29  C   UNL     1       7.581   4.656  16.172  0.00  0.00    +0.000 A 
ATOM     30  C   UNL     1       7.470   4.708  17.559  0.00  0.00    +0.000 A 
ATOM     31  C   UNL     1       6.221   4.940  18.136  0.00  0.00    +0.000 A 
ATOM     32  F   UNL     1       6.126   4.986  19.474  0.00  0.00    +0.000 F 
ENDBRANCH  23  25
ENDBRANCH   1  21
TORSDOF 5
ENDMDL
MODEL 7
REMARK VINA RESULT:      -8.7      5.464      7.701
REMARK  Name = 
REMARK  5 active torsions:
REMARK  status: ('A' for Active; 'I' for Inactive)
REMARK    1  A    between atoms: N_3  and  C_4
REMARK    2  A    between atoms: N_11  and  C_12
REMARK    3  A    between atoms: C_12  and  C_13
REMARK    4  A    between atoms: C_12  and  C_24
REMARK    5  A    between atoms: N_15  and  C_16
REMARK                            x       y       z     vdW  Elec       q    Type
REMARK                         _______ _______ _______ _____ _____    ______ ____
ROOT
ATOM      1  C   UNL     1       1.981   6.389  19.245  0.00  0.00    +0.000 C 
ENDROOT
BRANCH   1   5
ATOM      2  O   UNL     1       0.482   8.750  19.324  0.00  0.00    +0.000 OA
ATOM      3  C   UNL     1       1.216   8.516  20.274  0.00  0.00    +0.000 C 
ATOM      4  N   UNL     1       1.365   9.304  21.401  0.00  0.00    +0.000 N 
ATOM      5  N   UNL     1       2.031   7.408  20.300  0.00  0.00    +0.000 N 
ATOM      6  H   UNL     1       2.191   9.128  21.952  0.00  0.00    +0.000 HD
ATOM      7  H   UNL     1       2.469   7.124  21.164  0.00  0.00    +0.000 HD
BRANCH   4   8
ATOM      8  C   UNL     1       0.614  10.461  21.727  0.00  0.00    +0.000 A 
ATOM      9  C   UNL     1      -0.428  10.463  22.661  0.00  0.00    +0.000 A 
ATOM     10  C   UNL     1      -1.159  11.628  22.928  0.00  0.00    +0.000 A 
ATOM     11  C   UNL     1      -0.852  12.813  22.267  0.00  0.00    +0.000 A 
ATOM     12  C   UNL     1       0.200  12.828  21.355  0.00  0.00    +0.000 A 
ATOM     13 CL   UNL     1       0.583  14.293  20.532  0.00  0.00    +0.000 Cl
ATOM     14  C   UNL     1       0.939  11.668  21.091  0.00  0.00    +0.000 A 
ENDBRANCH   4   8
ENDBRANCH   1   5
BRANCH   1  15
ATOM     15  C   UNL     1       1.859   4.998  19.858  0.00  0.00    +0.000 A 
ATOM     16  C   UNL     1       1.181   3.985  19.161  0.00  0.00    +0.000 A 
ATOM     17  C   UNL     1       0.975   2.732  19.743  0.00  0.00    +0.000 A 
ATOM     18  C   UNL     1       1.451   2.470  21.025  0.00  0.00    +0.000 A 
ATOM     19  C   UNL     1       2.146   3.455  21.721  0.00  0.00    +0.000 A 
ATOM     20  C   UNL     1       2.344   4.711  21.146  0.00  0.00    +0.000 A 
ENDBRANCH   1  15
BRANCH   1  21
ATOM     21  C   UNL     1       3.254   6.511  18.363  0.00  0.00    +0.000 C 
ATOM     22  O   UNL     1       3.696   7.616  18.041  0.00  0.00    +0.000 OA
ATOM     23  N   UNL     1       3.837   5.295  18.030  0.00  0.00    +0.000 N 
ATOM     24  H   UNL     1       3.287   4.452  18.170  0.00  0.00    +0.000 HD
BRANCH  23  25
ATOM     25  C   UNL     1       5.062   5.108  17.343  0.00  0.00    +0.000 A 
ATOM     26  C   UNL     1       5.182   5.099  15.953  0.00  0.00    +0.000 A 
ATOM     27  C   UNL     1       6.430   4.886  15.365  0.00  0.00    +0.000 A 
ATOM     28  F   UNL     1       6.536   4.886  14.030  0.00  0.00    +0.000 F 
ATOM     29  C   UNL     1       7.570   4.677  16.135  0.00  0.00    +0.000 A 
ATOM     30  C   UNL     1       7.468   4.706  17.523  0.00  0.00    +0.000 A 
ATOM     31  C   UNL     1       6.224   4.934  18.112  0.00  0.00    +0.000 A 
ATOM     32  F   UNL     1       6.137   4.958  19.451  0.00  0.00    +0.000 F 
ENDBRANCH  23  25
ENDBRANCH   1  21
TORSDOF 5
ENDMDL
MODEL 8
REMARK VINA RESULT:      -8.6      0.868      1.731
REMARK  Name = 
REMARK  5 active torsions:
REMARK  status: ('A' for Active; 'I' for Inactive)
REMARK    1  A    between atoms: N_3  and  C_4
REMARK    2  A    between atoms: N_11  and  C_12
REMARK    3  A    between atoms: C_12  and  C_13
REMARK    4  A    between atoms: C_12  and  C_24
REMARK    5  A    between atoms: N_15  and  C_16
REMARK                            x       y       z     vdW  Elec       q    Type
REMARK                         _______ _______ _______ _____ _____    ______ ____
ROOT
ATOM      1  C   UNL     1       6.587   5.707  16.722  0.00  0.00    +0.000 C 
ENDROOT
BRANCH   1   5
ATOM      2  O   UNL     1       8.161   7.025  18.623  0.00  0.00    +0.000 OA
ATOM      3  C   UNL     1       7.724   7.689  17.694  0.00  0.00    +0.000 C 
ATOM      4  N   UNL     1       7.950   9.038  17.481  0.00  0.00    +0.000 N 
ATOM      5  N   UNL     1       6.897   7.142  16.741  0.00  0.00    +0.000 N 
ATOM      6  H   UNL     1       7.312   9.494  16.847  0.00  0.00    +0.000 HD
ATOM      7  H   UNL     1       6.716   7.642  15.883  0.00  0.00    +0.000 HD
BRANCH   4   8
ATOM      8  C   UNL     1       8.820   9.876  18.223  0.00  0.00    +0.000 A 
ATOM      9  C   UNL     1       8.897   9.858  19.620  0.00  0.00    +0.000 A 
ATOM     10  C   UNL     1       9.754  10.728  20.309  0.00  0.00    +0.000 A 
ATOM     11  C   UNL     1      10.552  11.624  19.606  0.00  0.00    +0.000 A 
ATOM     12  C   UNL     1      10.500  11.633  18.215  0.00  0.00    +0.000 A 
ATOM     13 CL   UNL     1      11.486  12.743  17.340  0.00  0.00    +0.000 Cl
ATOM     14  C   UNL     1       9.652  10.760  17.522  0.00  0.00    +0.000 A 
ENDBRANCH   4   8
ENDBRANCH   1   5
BRANCH   1  15
ATOM     15  C   UNL     1       6.569   5.188  15.288  0.00  0.00    +0.000 A 
ATOM     16  C   UNL     1       5.542   4.326  14.871  0.00  0.00    +0.000 A 
ATOM     17  C   UNL     1       5.557   3.764  13.593  0.00  0.00    +0.000 A 
ATOM     18  C   UNL     1       6.592   4.061  12.710  0.00  0.00    +0.000 A 
ATOM     19  C   UNL     1       7.606   4.932  13.099  0.00  0.00    +0.000 A 
ATOM     20  C   UNL     1       7.599   5.487  14.380  0.00  0.00    +0.000 A 
ENDBRANCH   1  15
BRANCH   1  21
ATOM     21  C   UNL     1       5.222   5.476  17.427  0.00  0.00    +0.000 C 
ATOM     22  O   UNL     1       4.389   6.382  17.501  0.00  0.00    +0.000 OA
ATOM     23  N   UNL     1       5.035   4.184  17.902  0.00  0.00    +0.000 N 
ATOM     24  H   UNL     1       5.852   3.583  17.972  0.00  0.00    +0.000 HD
BRANCH  23  25
ATOM     25  C   UNL     1       3.851   3.660  18.476  0.00  0.00    +0.000 A 
ATOM     26  C   UNL     1       2.587   3.775  17.896  0.00  0.00    +0.000 A 
ATOM     27  C   UNL     1       1.474   3.243  18.548  0.00  0.00    +0.000 A 
ATOM     28  F   UNL     1       0.265   3.352  17.980  0.00  0.00    +0.000 F 
ATOM     29  C   UNL     1       1.589   2.597  19.775  0.00  0.00    +0.000 A 
ATOM     30  C   UNL     1       2.847   2.456  20.354  0.00  0.00    +0.000 A 
ATOM     31  C   UNL     1       3.964   2.973  19.696  0.00  0.00    +0.000 A 
ATOM     32  F   UNL     1       5.172   2.833  20.264  0.00  0.00    +0.000 F 
ENDBRANCH  23  25
ENDBRANCH   1  21
TORSDOF 5
ENDMDL
MODEL 9
REMARK VINA RESULT:      -8.5      1.308      1.566
REMARK  Name = 
REMARK  5 active torsions:
REMARK  status: ('A' for Active; 'I' for Inactive)
REMARK    1  A    between atoms: N_3  and  C_4
REMARK    2  A    between atoms: N_11  and  C_12
REMARK    3  A    between atoms: C_12  and  C_13
REMARK    4  A    between atoms: C_12  and  C_24
REMARK    5  A    between atoms: N_15  and  C_16
REMARK                            x       y       z     vdW  Elec       q    Type
REMARK                         _______ _______ _______ _____ _____    ______ ____
ROOT
ATOM      1  C   UNL     1       6.730   5.752  16.766  0.00  0.00    +0.000 C 
ENDROOT
BRANCH   1   5
ATOM      2  O   UNL     1       8.186   7.175  18.684  0.00  0.00    +0.000 OA
ATOM      3  C   UNL     1       7.822   7.783  17.687  0.00  0.00    +0.000 C 
ATOM      4  N   UNL     1       8.078   9.113  17.407  0.00  0.00    +0.000 N 
ATOM      5  N   UNL     1       7.055   7.182  16.716  0.00  0.00    +0.000 N 
ATOM      6  H   UNL     1       7.489   9.533  16.703  0.00  0.00    +0.000 HD
ATOM      7  H   UNL     1       6.938   7.629  15.818  0.00  0.00    +0.000 HD
BRANCH   4   8
ATOM      8  C   UNL     1       8.905   9.990  18.152  0.00  0.00    +0.000 A 
ATOM      9  C   UNL     1      10.006  10.659  17.604  0.00  0.00    +0.000 A 
ATOM     10  C   UNL     1      10.811  11.493  18.391  0.00  0.00    +0.000 A 
ATOM     11  C   UNL     1      10.521  11.676  19.739  0.00  0.00    +0.000 A 
ATOM     12  C   UNL     1       9.414  11.034  20.288  0.00  0.00    +0.000 A 
ATOM     13 CL   UNL     1       9.052  11.257  21.958  0.00  0.00    +0.000 Cl
ATOM     14  C   UNL     1       8.601  10.206  19.504  0.00  0.00    +0.000 A 
ENDBRANCH   4   8
ENDBRANCH   1   5
BRANCH   1  15
ATOM     15  C   UNL     1       6.790   5.147  15.368  0.00  0.00    +0.000 A 
ATOM     16  C   UNL     1       7.747   5.606  14.449  0.00  0.00    +0.000 A 
ATOM     17  C   UNL     1       7.760   5.134  13.135  0.00  0.00    +0.000 A 
ATOM     18  C   UNL     1       6.822   4.191  12.721  0.00  0.00    +0.000 A 
ATOM     19  C   UNL     1       5.880   3.707  13.625  0.00  0.00    +0.000 A 
ATOM     20  C   UNL     1       5.859   4.185  14.937  0.00  0.00    +0.000 A 
ENDBRANCH   1  15
BRANCH   1  21
ATOM     21  C   UNL     1       5.322   5.576  17.401  0.00  0.00    +0.000 C 
ATOM     22  O   UNL     1       4.412   6.369  17.149  0.00  0.00    +0.000 OA
ATOM     23  N   UNL     1       5.197   4.454  18.210  0.00  0.00    +0.000 N 
ATOM     24  H   UNL     1       6.050   3.990  18.511  0.00  0.00    +0.000 HD
BRANCH  23  25
ATOM     25  C   UNL     1       4.007   3.982  18.818  0.00  0.00    +0.000 A 
ATOM     26  C   UNL     1       3.340   4.649  19.846  0.00  0.00    +0.000 A 
ATOM     27  C   UNL     1       2.183   4.094  20.396  0.00  0.00    +0.000 A 
ATOM     28  F   UNL     1       1.545   4.745  21.378  0.00  0.00    +0.000 F 
ATOM     29  C   UNL     1       1.674   2.879  19.947  0.00  0.00    +0.000 A 
ATOM     30  C   UNL     1       2.319   2.215  18.907  0.00  0.00    +0.000 A 
ATOM     31  C   UNL     1       3.465   2.776  18.344  0.00  0.00    +0.000 A 
ATOM     32  F   UNL     1       4.079   2.125  17.344  0.00  0.00    +0.000 F 
ENDBRANCH  23  25
ENDBRANCH   1  21
TORSDOF 5
ENDMDL
