MODEL 1
REMARK VINA RESULT:      -8.7      0.000      0.000
REMARK  Name = 
REMARK  5 active torsions:
REMARK  status: ('A' for Active; 'I' for Inactive)
REMARK    1  A    between atoms: C_1  and  C_2
REMARK    2  A    between atoms: C_6  and  C_7
REMARK    3  A    between atoms: C_16  and  C_17
REMARK    4  A    between atoms: C_17  and  N_18
REMARK    5  A    between atoms: C_19  and  C_20
REMARK                            x       y       z     vdW  Elec       q    Type
REMARK                         _______ _______ _______ _____ _____    ______ ____
ROOT
ATOM      1  C   UNL     1       2.912   5.289  17.880  0.00  0.00    +0.000 C 
ATOM      2  C   UNL     1       2.776   4.331  19.125  0.00  0.00    +0.000 C 
ATOM      3 CL   UNL     1       4.193   3.934  20.176  0.00  0.00    +0.000 Cl
ATOM      4  C   UNL     1       1.916   5.489  19.703  0.00  0.00    +0.000 C 
ATOM      5  O   UNL     1       1.106   5.606  20.596  0.00  0.00    +0.000 OA
ATOM      6  N   UNL     1       2.445   6.343  18.793  0.00  0.00    +0.000 N 
ATOM      7  C   UNL     1       2.146   7.652  18.574  0.00  0.00    +0.000 A 
ATOM      8  N   UNL     1       2.443   8.352  17.498  0.00  0.00    +0.000 NA
ATOM      9  N   UNL     1       2.099   9.688  17.627  0.00  0.00    +0.000 NA
ATOM     10  C   UNL     1       1.561   9.958  18.801  0.00  0.00    +0.000 A 
ATOM     11  S   UNL     1       1.427   8.581  19.822  0.00  0.00    +0.000 S 
ENDROOT
BRANCH   1  17
ATOM     12  C   UNL     1       7.630   7.259  17.315  0.00  0.00    +0.000 C 
ATOM     13  C   UNL     1       6.597   6.262  16.884  0.00  0.00    +0.000 A 
ATOM     14  C   UNL     1       6.893   5.285  15.933  0.00  0.00    +0.000 A 
ATOM     15  C   UNL     1       5.928   4.351  15.577  0.00  0.00    +0.000 A 
ATOM     16  C   UNL     1       4.671   4.382  16.186  0.00  0.00    +0.000 A 
ATOM     17  C   UNL     1       4.326   5.344  17.162  0.00  0.00    +0.000 A 
ATOM     18  C   UNL     1       5.320   6.289  17.471  0.00  0.00    +0.000 A 
ENDBRANCH   1  17
BRANCH  10  19
ATOM     19  C   UNL     1       1.193  11.321  19.289  0.00  0.00    +0.000 C 
BRANCH  19  20
ATOM     20  N   UNL     1      -0.247  11.495  19.398  0.00  0.00    +0.000 N 
ATOM     21  C   UNL     1      -0.933  12.116  20.424  0.00  0.00    +0.000 A 
ATOM     22  C   UNL     1      -0.320  12.730  21.631  0.00  0.00    +0.000 C 
ATOM     23  N   UNL     1      -2.232  12.087  20.197  0.00  0.00    +0.000 NA
ATOM     24  C   UNL     1      -2.401  11.396  19.028  0.00  0.00    +0.000 A 
ATOM     25  C   UNL     1      -3.585  11.075  18.347  0.00  0.00    +0.000 A 
ATOM     26  C   UNL     1      -3.503  10.326  17.168  0.00  0.00    +0.000 A 
ATOM     27  C   UNL     1      -2.268   9.893  16.685  0.00  0.00    +0.000 A 
ATOM     28  C   UNL     1      -1.076  10.208  17.350  0.00  0.00    +0.000 A 
ATOM     29  C   UNL     1      -1.176  10.977  18.517  0.00  0.00    +0.000 A 
ENDBRANCH  19  20
ENDBRANCH  10  19
TORSDOF 3
ENDMDL
MODEL 2
REMARK VINA RESULT:      -8.6      1.297      1.393
REMARK  Name = 
REMARK  5 active torsions:
REMARK  status: ('A' for Active; 'I' for Inactive)
REMARK    1  A    between atoms: C_1  and  C_2
REMARK    2  A    between atoms: C_6  and  C_7
REMARK    3  A    between atoms: C_16  and  C_17
REMARK    4  A    between atoms: C_17  and  N_18
REMARK    5  A    between atoms: C_19  and  C_20
REMARK                            x       y       z     vdW  Elec       q    Type
REMARK                         _______ _______ _______ _____ _____    ______ ____
ROOT
ATOM      1  C   UNL     1       3.152   4.526  17.892  0.00  0.00    +0.000 C 
ATOM      2  C   UNL     1       3.122   3.300  18.883  0.00  0.00    +0.000 C 
ATOM      3 CL   UNL     1       4.595   2.783  19.796  0.00  0.00    +0.000 Cl
ATOM      4  C   UNL     1       2.199   4.225  19.725  0.00  0.00    +0.000 C 
ATOM      5  O   UNL     1       1.411   4.071  20.631  0.00  0.00    +0.000 OA
ATOM      6  N   UNL     1       2.638   5.304  19.030  0.00  0.00    +0.000 N 
ATOM      7  C   UNL     1       2.239   6.601  19.124  0.00  0.00    +0.000 A 
ATOM      8  N   UNL     1       2.452   7.550  18.236  0.00  0.00    +0.000 NA
ATOM      9  N   UNL     1       2.017   8.791  18.675  0.00  0.00    +0.000 NA
ATOM     10  C   UNL     1       1.497   8.741  19.886  0.00  0.00    +0.000 A 
ATOM     11  S   UNL     1       1.493   7.160  20.563  0.00  0.00    +0.000 S 
ENDROOT
BRANCH   1  17
ATOM     12  C   UNL     1       7.547   7.178  17.559  0.00  0.00    +0.000 C 
ATOM     13  C   UNL     1       6.656   6.100  17.019  0.00  0.00    +0.000 A 
ATOM     14  C   UNL     1       7.072   5.283  15.967  0.00  0.00    +0.000 A 
ATOM     15  C   UNL     1       6.239   4.269  15.508  0.00  0.00    +0.000 A 
ATOM     16  C   UNL     1       4.997   4.060  16.114  0.00  0.00    +0.000 A 
ATOM     17  C   UNL     1       4.536   4.853  17.188  0.00  0.00    +0.000 A 
ATOM     18  C   UNL     1       5.394   5.888  17.602  0.00  0.00    +0.000 A 
ENDBRANCH   1  17
BRANCH  10  19
ATOM     19  C   UNL     1       1.048   9.923  20.681  0.00  0.00    +0.000 C 
BRANCH  19  20
ATOM     20  N   UNL     1       0.466  10.960  19.842  0.00  0.00    +0.000 N 
ATOM     21  C   UNL     1       0.853  12.284  19.770  0.00  0.00    +0.000 A 
ATOM     22  C   UNL     1       1.951  12.911  20.552  0.00  0.00    +0.000 C 
ATOM     23  N   UNL     1       0.102  12.940  18.906  0.00  0.00    +0.000 NA
ATOM     24  C   UNL     1      -0.819  12.042  18.441  0.00  0.00    +0.000 A 
ATOM     25  C   UNL     1      -1.853  12.228  17.511  0.00  0.00    +0.000 A 
ATOM     26  C   UNL     1      -2.694  11.151  17.212  0.00  0.00    +0.000 A 
ATOM     27  C   UNL     1      -2.518   9.917  17.837  0.00  0.00    +0.000 A 
ATOM     28  C   UNL     1      -1.488   9.712  18.764  0.00  0.00    +0.000 A 
ATOM     29  C   UNL     1      -0.643  10.796  19.035  0.00  0.00    +0.000 A 
ENDBRANCH  19  20
ENDBRANCH  10  19
TORSDOF 3
ENDMDL
MODEL 3
REMARK VINA RESULT:      -8.5      0.353      1.287
REMARK  Name = 
REMARK  5 active torsions:
REMARK  status: ('A' for Active; 'I' for Inactive)
REMARK    1  A    between atoms: C_1  and  C_2
REMARK    2  A    between atoms: C_6  and  C_7
REMARK    3  A    between atoms: C_16  and  C_17
REMARK    4  A    between atoms: C_17  and  N_18
REMARK    5  A    between atoms: C_19  and  C_20
REMARK                            x       y       z     vdW  Elec       q    Type
REMARK                         _______ _______ _______ _____ _____    ______ ____
ROOT
ATOM      1  C   UNL     1       3.000   5.218  17.834  0.00  0.00    +0.000 C 
ATOM      2  C   UNL     1       2.889   4.273  19.092  0.00  0.00    +0.000 C 
ATOM      3 CL   UNL     1       4.325   3.897  20.125  0.00  0.00    +0.000 Cl
ATOM      4  C   UNL     1       2.031   5.432  19.671  0.00  0.00    +0.000 C 
ATOM      5  O   UNL     1       1.235   5.554  20.575  0.00  0.00    +0.000 OA
ATOM      6  N   UNL     1       2.541   6.280  18.743  0.00  0.00    +0.000 N 
ATOM      7  C   UNL     1       2.230   7.584  18.514  0.00  0.00    +0.000 A 
ATOM      8  N   UNL     1       2.505   8.273  17.427  0.00  0.00    +0.000 NA
ATOM      9  N   UNL     1       2.154   9.609  17.546  0.00  0.00    +0.000 NA
ATOM     10  C   UNL     1       1.633   9.889  18.725  0.00  0.00    +0.000 A 
ATOM     11  S   UNL     1       1.524   8.522  19.763  0.00  0.00    +0.000 S 
ENDROOT
BRANCH   1  17
ATOM     12  C   UNL     1       6.135   3.913  13.971  0.00  0.00    +0.000 C 
ATOM     13  C   UNL     1       5.917   4.675  15.243  0.00  0.00    +0.000 A 
ATOM     14  C   UNL     1       6.892   5.541  15.739  0.00  0.00    +0.000 A 
ATOM     15  C   UNL     1       6.650   6.261  16.903  0.00  0.00    +0.000 A 
ATOM     16  C   UNL     1       5.425   6.129  17.562  0.00  0.00    +0.000 A 
ATOM     17  C   UNL     1       4.402   5.274  17.094  0.00  0.00    +0.000 A 
ATOM     18  C   UNL     1       4.698   4.540  15.931  0.00  0.00    +0.000 A 
ENDBRANCH   1  17
BRANCH  10  19
ATOM     19  C   UNL     1       1.264  11.255  19.203  0.00  0.00    +0.000 C 
BRANCH  19  20
ATOM     20  N   UNL     1      -0.174  11.414  19.352  0.00  0.00    +0.000 N 
ATOM     21  C   UNL     1      -0.839  12.011  20.405  0.00  0.00    +0.000 A 
ATOM     22  C   UNL     1      -0.201  12.610  21.607  0.00  0.00    +0.000 C 
ATOM     23  N   UNL     1      -2.143  11.975  20.210  0.00  0.00    +0.000 NA
ATOM     24  C   UNL     1      -2.336  11.303  19.035  0.00  0.00    +0.000 A 
ATOM     25  C   UNL     1      -3.534  10.984  18.377  0.00  0.00    +0.000 A 
ATOM     26  C   UNL     1      -3.476  10.256  17.184  0.00  0.00    +0.000 A 
ATOM     27  C   UNL     1      -2.250   9.842  16.663  0.00  0.00    +0.000 A 
ATOM     28  C   UNL     1      -1.044  10.156  17.303  0.00  0.00    +0.000 A 
ATOM     29  C   UNL     1      -1.121  10.904  18.486  0.00  0.00    +0.000 A 
ENDBRANCH  19  20
ENDBRANCH  10  19
TORSDOF 3
ENDMDL
MODEL 4
REMARK VINA RESULT:      -8.5      2.460      8.480
REMARK  Name = 
REMARK  5 active torsions:
REMARK  status: ('A' for Active; 'I' for Inactive)
REMARK    1  A    between atoms: C_1  and  C_2
REMARK    2  A    between atoms: C_6  and  C_7
REMARK    3  A    between atoms: C_16  and  C_17
REMARK    4  A    between atoms: C_17  and  N_18
REMARK    5  A    between atoms: C_19  and  C_20
REMARK                            x       y       z     vdW  Elec       q    Type
REMARK                         _______ _______ _______ _____ _____    ______ ____
ROOT
ATOM      1  C   UNL     1       0.400  10.822  20.342  0.00  0.00    +0.000 C 
ATOM      2  C   UNL     1       0.305  10.753  21.915  0.00  0.00    +0.000 C 
ATOM      3 CL   UNL     1      -1.222  10.268  22.752  0.00  0.00    +0.000 Cl
ATOM      4  C   UNL     1       1.293   9.564  21.750  0.00  0.00    +0.000 C 
ATOM      5  O   UNL     1       2.049   8.958  22.475  0.00  0.00    +0.000 OA
ATOM      6  N   UNL     1       0.962   9.466  20.438  0.00  0.00    +0.000 N 
ATOM      7  C   UNL     1       1.473   8.636  19.488  0.00  0.00    +0.000 A 
ATOM      8  N   UNL     1       1.359   8.779  18.184  0.00  0.00    +0.000 NA
ATOM      9  N   UNL     1       1.895   7.708  17.487  0.00  0.00    +0.000 NA
ATOM     10  C   UNL     1       2.389   6.784  18.288  0.00  0.00    +0.000 A 
ATOM     11  S   UNL     1       2.242   7.178  19.956  0.00  0.00    +0.000 S 
ENDROOT
BRANCH   1  17
ATOM     12  C   UNL     1      -2.910   9.935  16.507  0.00  0.00    +0.000 C 
ATOM     13  C   UNL     1      -2.546  10.721  17.730  0.00  0.00    +0.000 A 
ATOM     14  C   UNL     1      -3.425  11.661  18.269  0.00  0.00    +0.000 A 
ATOM     15  C   UNL     1      -3.078  12.351  19.423  0.00  0.00    +0.000 A 
ATOM     16  C   UNL     1      -1.857  12.088  20.051  0.00  0.00    +0.000 A 
ATOM     17  C   UNL     1      -0.937  11.139  19.551  0.00  0.00    +0.000 A 
ATOM     18  C   UNL     1      -1.313  10.485  18.364  0.00  0.00    +0.000 A 
ENDBRANCH   1  17
BRANCH  10  19
ATOM     19  C   UNL     1       2.928   5.461  17.851  0.00  0.00    +0.000 C 
BRANCH  19  20
ATOM     20  N   UNL     1       4.245   5.194  18.408  0.00  0.00    +0.000 N 
ATOM     21  C   UNL     1       4.578   4.209  19.318  0.00  0.00    +0.000 A 
ATOM     22  C   UNL     1       3.637   3.223  19.911  0.00  0.00    +0.000 C 
ATOM     23  N   UNL     1       5.864   4.260  19.607  0.00  0.00    +0.000 NA
ATOM     24  C   UNL     1       6.370   5.325  18.912  0.00  0.00    +0.000 A 
ATOM     25  C   UNL     1       7.682   5.819  18.873  0.00  0.00    +0.000 A 
ATOM     26  C   UNL     1       7.954   6.952  18.099  0.00  0.00    +0.000 A 
ATOM     27  C   UNL     1       6.936   7.588  17.389  0.00  0.00    +0.000 A 
ATOM     28  C   UNL     1       5.621   7.105  17.411  0.00  0.00    +0.000 A 
ATOM     29  C   UNL     1       5.373   5.957  18.176  0.00  0.00    +0.000 A 
ENDBRANCH  19  20
ENDBRANCH  10  19
TORSDOF 3
ENDMDL
MODEL 5
REMARK VINA RESULT:      -8.5      1.562      2.865
REMARK  Name = 
REMARK  5 active torsions:
REMARK  status: ('A' for Active; 'I' for Inactive)
REMARK    1  A    between atoms: C_1  and  C_2
REMARK    2  A    between atoms: C_6  and  C_7
REMARK    3  A    between atoms: C_16  and  C_17
REMARK    4  A    between atoms: C_17  and  N_18
REMARK    5  A    between atoms: C_19  and  C_20
REMARK                            x       y       z     vdW  Elec       q    Type
REMARK                         _______ _______ _______ _____ _____    ______ ____
ROOT
ATOM      1  C   UNL     1       3.058   4.855  17.842  0.00  0.00    +0.000 C 
ATOM      2  C   UNL     1       3.029   3.613  18.812  0.00  0.00    +0.000 C 
ATOM      3 CL   UNL     1       4.500   3.085  19.721  0.00  0.00    +0.000 Cl
ATOM      4  C   UNL     1       2.099   4.521  19.666  0.00  0.00    +0.000 C 
ATOM      5  O   UNL     1       1.309   4.348  20.567  0.00  0.00    +0.000 OA
ATOM      6  N   UNL     1       2.538   5.612  18.991  0.00  0.00    +0.000 N 
ATOM      7  C   UNL     1       2.134   6.906  19.105  0.00  0.00    +0.000 A 
ATOM      8  N   UNL     1       2.347   7.870  18.234  0.00  0.00    +0.000 NA
ATOM      9  N   UNL     1       1.906   9.102  18.692  0.00  0.00    +0.000 NA
ATOM     10  C   UNL     1       1.382   9.031  19.901  0.00  0.00    +0.000 A 
ATOM     11  S   UNL     1       1.381   7.438  20.550  0.00  0.00    +0.000 S 
ENDROOT
BRANCH   1  17
ATOM     12  C   UNL     1       7.492   7.452  17.626  0.00  0.00    +0.000 C 
ATOM     13  C   UNL     1       6.581   6.420  17.034  0.00  0.00    +0.000 A 
ATOM     14  C   UNL     1       6.978   5.654  15.936  0.00  0.00    +0.000 A 
ATOM     15  C   UNL     1       6.128   4.680  15.428  0.00  0.00    +0.000 A 
ATOM     16  C   UNL     1       4.886   4.458  16.029  0.00  0.00    +0.000 A 
ATOM     17  C   UNL     1       4.442   5.198  17.148  0.00  0.00    +0.000 A 
ATOM     18  C   UNL     1       5.320   6.196  17.612  0.00  0.00    +0.000 A 
ENDBRANCH   1  17
BRANCH  10  19
ATOM     19  C   UNL     1       0.926  10.198  20.713  0.00  0.00    +0.000 C 
BRANCH  19  20
ATOM     20  N   UNL     1       0.524  11.322  19.882  0.00  0.00    +0.000 N 
ATOM     21  C   UNL     1      -0.520  11.356  18.979  0.00  0.00    +0.000 A 
ATOM     22  C   UNL     1      -1.444  10.231  18.679  0.00  0.00    +0.000 C 
ATOM     23  N   UNL     1      -0.592  12.537  18.396  0.00  0.00    +0.000 NA
ATOM     24  C   UNL     1       0.450  13.271  18.892  0.00  0.00    +0.000 A 
ATOM     25  C   UNL     1       0.831  14.589  18.596  0.00  0.00    +0.000 A 
ATOM     26  C   UNL     1       1.966  15.120  19.219  0.00  0.00    +0.000 A 
ATOM     27  C   UNL     1       2.714  14.349  20.108  0.00  0.00    +0.000 A 
ATOM     28  C   UNL     1       2.346  13.034  20.419  0.00  0.00    +0.000 A 
ATOM     29  C   UNL     1       1.195  12.527  19.801  0.00  0.00    +0.000 A 
ENDBRANCH  19  20
ENDBRANCH  10  19
TORSDOF 3
ENDMDL
MODEL 6
REMARK VINA RESULT:      -8.5      1.370      1.880
REMARK  Name = 
REMARK  5 active torsions:
REMARK  status: ('A' for Active; 'I' for Inactive)
REMARK    1  A    between atoms: C_1  and  C_2
REMARK    2  A    between atoms: C_6  and  C_7
REMARK    3  A    between atoms: C_16  and  C_17
REMARK    4  A    between atoms: C_17  and  N_18
REMARK    5  A    between atoms: C_19  and  C_20
REMARK                            x       y       z     vdW  Elec       q    Type
REMARK                         _______ _______ _______ _____ _____    ______ ____
ROOT
ATOM      1  C   UNL     1       3.090   4.414  18.048  0.00  0.00    +0.000 C 
ATOM      2  C   UNL     1       3.012   3.224  19.081  0.00  0.00    +0.000 C 
ATOM      3 CL   UNL     1       4.456   2.702  20.036  0.00  0.00    +0.000 Cl
ATOM      4  C   UNL     1       2.099   4.201  19.874  0.00  0.00    +0.000 C 
ATOM      5  O   UNL     1       1.293   4.098  20.771  0.00  0.00    +0.000 OA
ATOM      6  N   UNL     1       2.578   5.243  19.150  0.00  0.00    +0.000 N 
ATOM      7  C   UNL     1       2.212   6.553  19.192  0.00  0.00    +0.000 A 
ATOM      8  N   UNL     1       2.464   7.464  18.276  0.00  0.00    +0.000 NA
ATOM      9  N   UNL     1       2.054   8.730  18.664  0.00  0.00    +0.000 NA
ATOM     10  C   UNL     1       1.513   8.736  19.867  0.00  0.00    +0.000 A 
ATOM     11  S   UNL     1       1.456   7.180  20.598  0.00  0.00    +0.000 S 
ENDROOT
BRANCH   1  17
ATOM     12  C   UNL     1       6.333   4.007  14.076  0.00  0.00    +0.000 C 
ATOM     13  C   UNL     1       6.058   4.512  15.461  0.00  0.00    +0.000 A 
ATOM     14  C   UNL     1       6.977   5.327  16.124  0.00  0.00    +0.000 A 
ATOM     15  C   UNL     1       6.682   5.809  17.394  0.00  0.00    +0.000 A 
ATOM     16  C   UNL     1       5.461   5.492  17.993  0.00  0.00    +0.000 A 
ATOM     17  C   UNL     1       4.493   4.681  17.358  0.00  0.00    +0.000 A 
ATOM     18  C   UNL     1       4.843   4.187  16.088  0.00  0.00    +0.000 A 
ENDBRANCH   1  17
BRANCH  10  19
ATOM     19  C   UNL     1       1.081   9.956  20.613  0.00  0.00    +0.000 C 
BRANCH  19  20
ATOM     20  N   UNL     1       0.474  10.948  19.738  0.00  0.00    +0.000 N 
ATOM     21  C   UNL     1       0.843  12.272  19.602  0.00  0.00    +0.000 A 
ATOM     22  C   UNL     1       1.945  12.946  20.338  0.00  0.00    +0.000 C 
ATOM     23  N   UNL     1       0.071  12.880  18.722  0.00  0.00    +0.000 NA
ATOM     24  C   UNL     1      -0.846  11.952  18.311  0.00  0.00    +0.000 A 
ATOM     25  C   UNL     1      -1.896  12.085  17.390  0.00  0.00    +0.000 A 
ATOM     26  C   UNL     1      -2.729  10.986  17.152  0.00  0.00    +0.000 A 
ATOM     27  C   UNL     1      -2.527   9.783  17.829  0.00  0.00    +0.000 A 
ATOM     28  C   UNL     1      -1.481   9.630  18.747  0.00  0.00    +0.000 A 
ATOM     29  C   UNL     1      -0.645  10.736  18.957  0.00  0.00    +0.000 A 
ENDBRANCH  19  20
ENDBRANCH  10  19
TORSDOF 3
ENDMDL
MODEL 7
REMARK VINA RESULT:      -8.3      1.611      3.127
REMARK  Name = 
REMARK  5 active torsions:
REMARK  status: ('A' for Active; 'I' for Inactive)
REMARK    1  A    between atoms: C_1  and  C_2
REMARK    2  A    between atoms: C_6  and  C_7
REMARK    3  A    between atoms: C_16  and  C_17
REMARK    4  A    between atoms: C_17  and  N_18
REMARK    5  A    between atoms: C_19  and  C_20
REMARK                            x       y       z     vdW  Elec       q    Type
REMARK                         _______ _______ _______ _____ _____    ______ ____
ROOT
ATOM      1  C   UNL     1       3.001   4.798  17.981  0.00  0.00    +0.000 C 
ATOM      2  C   UNL     1       2.863   3.548  18.933  0.00  0.00    +0.000 C 
ATOM      3 CL   UNL     1       4.251   2.959  19.931  0.00  0.00    +0.000 Cl
ATOM      4  C   UNL     1       1.912   4.481  19.734  0.00  0.00    +0.000 C 
ATOM      5  O   UNL     1       1.057   4.328  20.578  0.00  0.00    +0.000 OA
ATOM      6  N   UNL     1       2.432   5.562  19.103  0.00  0.00    +0.000 N 
ATOM      7  C   UNL     1       2.068   6.869  19.205  0.00  0.00    +0.000 A 
ATOM      8  N   UNL     1       2.373   7.833  18.362  0.00  0.00    +0.000 NA
ATOM      9  N   UNL     1       1.946   9.075  18.805  0.00  0.00    +0.000 NA
ATOM     10  C   UNL     1       1.340   9.011  19.975  0.00  0.00    +0.000 A 
ATOM     11  S   UNL     1       1.240   7.414  20.604  0.00  0.00    +0.000 S 
ENDROOT
BRANCH   1  17
ATOM     12  C   UNL     1       6.513   4.458  14.239  0.00  0.00    +0.000 C 
ATOM     13  C   UNL     1       6.133   4.962  15.599  0.00  0.00    +0.000 A 
ATOM     14  C   UNL     1       6.984   5.802  16.318  0.00  0.00    +0.000 A 
ATOM     15  C   UNL     1       6.593   6.281  17.562  0.00  0.00    +0.000 A 
ATOM     16  C   UNL     1       5.342   5.936  18.080  0.00  0.00    +0.000 A 
ATOM     17  C   UNL     1       4.440   5.098  17.386  0.00  0.00    +0.000 A 
ATOM     18  C   UNL     1       4.887   4.609  16.145  0.00  0.00    +0.000 A 
ENDBRANCH   1  17
BRANCH  10  19
ATOM     19  C   UNL     1       0.873  10.186  20.770  0.00  0.00    +0.000 C 
BRANCH  19  20
ATOM     20  N   UNL     1       0.516  11.314  19.923  0.00  0.00    +0.000 N 
ATOM     21  C   UNL     1      -0.511  11.368  19.001  0.00  0.00    +0.000 A 
ATOM     22  C   UNL     1      -1.458  10.265  18.691  0.00  0.00    +0.000 C 
ATOM     23  N   UNL     1      -0.541  12.546  18.409  0.00  0.00    +0.000 NA
ATOM     24  C   UNL     1       0.511  13.257  18.918  0.00  0.00    +0.000 A 
ATOM     25  C   UNL     1       0.931  14.563  18.620  0.00  0.00    +0.000 A 
ATOM     26  C   UNL     1       2.067  15.069  19.260  0.00  0.00    +0.000 A 
ATOM     27  C   UNL     1       2.779  14.285  20.169  0.00  0.00    +0.000 A 
ATOM     28  C   UNL     1       2.371  12.982  20.482  0.00  0.00    +0.000 A 
ATOM     29  C   UNL     1       1.219  12.501  19.846  0.00  0.00    +0.000 A 
ENDBRANCH  19  20
ENDBRANCH  10  19
TORSDOF 3
ENDMDL
MODEL 8
REMARK VINA RESULT:      -8.3      2.518      8.519
REMARK  Name = 
REMARK  5 active torsions:
REMARK  status: ('A' for Active; 'I' for Inactive)
REMARK    1  A    between atoms: C_1  and  C_2
REMARK    2  A    between atoms: C_6  and  C_7
REMARK    3  A    between atoms: C_16  and  C_17
REMARK    4  A    between atoms: C_17  and  N_18
REMARK    5  A    between atoms: C_19  and  C_20
REMARK                            x       y       z     vdW  Elec       q    Type
REMARK                         _______ _______ _______ _____ _____    ______ ____
ROOT
ATOM      1  C   UNL     1      -0.467  11.525  18.746  0.00  0.00    +0.000 C 
ATOM      2  C   UNL     1      -0.731  12.290  20.100  0.00  0.00    +0.000 C 
ATOM      3 CL   UNL     1      -2.269  12.075  21.026  0.00  0.00    +0.000 Cl
ATOM      4  C   UNL     1       0.414  11.384  20.634  0.00  0.00    +0.000 C 
ATOM      5  O   UNL     1       1.154  11.397  21.592  0.00  0.00    +0.000 OA
ATOM      6  N   UNL     1       0.250  10.547  19.579  0.00  0.00    +0.000 N 
ATOM      7  C   UNL     1       0.968   9.440  19.247  0.00  0.00    +0.000 A 
ATOM      8  N   UNL     1       0.986   8.845  18.073  0.00  0.00    +0.000 NA
ATOM      9  N   UNL     1       1.731   7.676  18.086  0.00  0.00    +0.000 NA
ATOM     10  C   UNL     1       2.245   7.421  19.274  0.00  0.00    +0.000 A 
ATOM     11  S   UNL     1       1.859   8.611  20.454  0.00  0.00    +0.000 S 
ENDROOT
BRANCH   1  17
ATOM     12  C   UNL     1      -5.390  12.149  17.394  0.00  0.00    +0.000 C 
ATOM     13  C   UNL     1      -4.088  11.432  17.200  0.00  0.00    +0.000 A 
ATOM     14  C   UNL     1      -3.927  10.499  16.174  0.00  0.00    +0.000 A 
ATOM     15  C   UNL     1      -2.699   9.874  15.995  0.00  0.00    +0.000 A 
ATOM     16  C   UNL     1      -1.626  10.195  16.830  0.00  0.00    +0.000 A 
ATOM     17  C   UNL     1      -1.736  11.139  17.875  0.00  0.00    +0.000 A 
ATOM     18  C   UNL     1      -3.003  11.726  18.043  0.00  0.00    +0.000 A 
ENDBRANCH   1  17
BRANCH  10  19
ATOM     19  C   UNL     1       2.996   6.183  19.641  0.00  0.00    +0.000 C 
BRANCH  19  20
ATOM     20  N   UNL     1       3.292   5.357  18.481  0.00  0.00    +0.000 N 
ATOM     21  C   UNL     1       2.566   4.273  18.026  0.00  0.00    +0.000 A 
ATOM     22  C   UNL     1       1.327   3.737  18.648  0.00  0.00    +0.000 C 
ATOM     23  N   UNL     1       3.128   3.757  16.950  0.00  0.00    +0.000 NA
ATOM     24  C   UNL     1       4.264   4.485  16.726  0.00  0.00    +0.000 A 
ATOM     25  C   UNL     1       5.226   4.345  15.714  0.00  0.00    +0.000 A 
ATOM     26  C   UNL     1       6.331   5.204  15.708  0.00  0.00    +0.000 A 
ATOM     27  C   UNL     1       6.481   6.174  16.699  0.00  0.00    +0.000 A 
ATOM     28  C   UNL     1       5.528   6.332  17.714  0.00  0.00    +0.000 A 
ATOM     29  C   UNL     1       4.418   5.476  17.690  0.00  0.00    +0.000 A 
ENDBRANCH  19  20
ENDBRANCH  10  19
TORSDOF 3
ENDMDL
MODEL 9
REMARK VINA RESULT:      -8.2      2.615      4.581
REMARK  Name = 
REMARK  5 active torsions:
REMARK  status: ('A' for Active; 'I' for Inactive)
REMARK    1  A    between atoms: C_1  and  C_2
REMARK    2  A    between atoms: C_6  and  C_7
REMARK    3  A    between atoms: C_16  and  C_17
REMARK    4  A    between atoms: C_17  and  N_18
REMARK    5  A    between atoms: C_19  and  C_20
REMARK                            x       y       z     vdW  Elec       q    Type
REMARK                         _______ _______ _______ _____ _____    ______ ____
ROOT
ATOM      1  C   UNL     1       4.405   5.248  18.606  0.00  0.00    +0.000 C 
ATOM      2  C   UNL     1       5.290   5.167  17.303  0.00  0.00    +0.000 C 
ATOM      3 CL   UNL     1       4.787   4.178  15.875  0.00  0.00    +0.000 Cl
ATOM      4  C   UNL     1       4.898   6.664  17.153  0.00  0.00    +0.000 C 
ATOM      5  O   UNL     1       5.318   7.612  16.527  0.00  0.00    +0.000 OA
ATOM      6  N   UNL     1       3.870   6.486  18.020  0.00  0.00    +0.000 N 
ATOM      7  C   UNL     1       2.997   7.407  18.511  0.00  0.00    +0.000 A 
ATOM      8  N   UNL     1       2.228   7.267  19.571  0.00  0.00    +0.000 NA
ATOM      9  N   UNL     1       1.371   8.342  19.746  0.00  0.00    +0.000 NA
ATOM     10  C   UNL     1       1.513   9.257  18.806  0.00  0.00    +0.000 A 
ATOM     11  S   UNL     1       2.725   8.865  17.650  0.00  0.00    +0.000 S 
ENDROOT
BRANCH   1  17
ATOM     12  C   UNL     1       1.455   2.516  21.815  0.00  0.00    +0.000 C 
ATOM     13  C   UNL     1       2.060   2.677  20.452  0.00  0.00    +0.000 A 
ATOM     14  C   UNL     1       1.739   1.802  19.415  0.00  0.00    +0.000 A 
ATOM     15  C   UNL     1       2.287   1.994  18.153  0.00  0.00    +0.000 A 
ATOM     16  C   UNL     1       3.143   3.074  17.922  0.00  0.00    +0.000 A 
ATOM     17  C   UNL     1       3.491   3.994  18.937  0.00  0.00    +0.000 A 
ATOM     18  C   UNL     1       2.940   3.746  20.207  0.00  0.00    +0.000 A 
ENDBRANCH   1  17
BRANCH  10  19
ATOM     19  C   UNL     1       0.659  10.472  18.649  0.00  0.00    +0.000 C 
BRANCH  19  20
ATOM     20  N   UNL     1       1.022  11.523  19.588  0.00  0.00    +0.000 N 
ATOM     21  C   UNL     1       0.529  11.701  20.866  0.00  0.00    +0.000 A 
ATOM     22  C   UNL     1      -0.484  10.840  21.533  0.00  0.00    +0.000 C 
ATOM     23  N   UNL     1       1.076  12.759  21.431  0.00  0.00    +0.000 NA
ATOM     24  C   UNL     1       1.905  13.309  20.491  0.00  0.00    +0.000 A 
ATOM     25  C   UNL     1       2.716  14.450  20.578  0.00  0.00    +0.000 A 
ATOM     26  C   UNL     1       3.464  14.834  19.460  0.00  0.00    +0.000 A 
ATOM     27  C   UNL     1       3.393  14.103  18.274  0.00  0.00    +0.000 A 
ATOM     28  C   UNL     1       2.592  12.959  18.170  0.00  0.00    +0.000 A 
ATOM     29  C   UNL     1       1.868  12.578  19.308  0.00  0.00    +0.000 A 
ENDBRANCH  19  20
ENDBRANCH  10  19
TORSDOF 3
ENDMDL
