MODEL 1
REMARK VINA RESULT:      -7.5      0.000      0.000
REMARK  Name = 
REMARK  7 active torsions:
REMARK  status: ('A' for Active; 'I' for Inactive)
REMARK    1  A    between atoms: C_1  and  C_2
REMARK    2  A    between atoms: C_4  and  O_5
REMARK    3  A    between atoms: O_5  and  C_6
REMARK    4  A    between atoms: C_13  and  S_14
REMARK    5  A    between atoms: S_14  and  C_15
REMARK    6  A    between atoms: C_15  and  C_16
REMARK    7  A    between atoms: N_18  and  C_19
REMARK                            x       y       z     vdW  Elec       q    Type
REMARK                         _______ _______ _______ _____ _____    ______ ____
ROOT
ATOM      1  C   UNL     1       6.482   5.100  14.986  0.00  0.00    +0.000 C 
ATOM      2  C   UNL     1       5.340   5.110  15.955  0.00  0.00    +0.000 A 
ATOM      3  C   UNL     1       4.724   3.946  16.366  0.00  0.00    +0.000 A 
ATOM      4  C   UNL     1       3.685   4.111  17.251  0.00  0.00    +0.000 A 
ATOM      5  N   UNL     1       3.295   5.300  17.756  0.00  0.00    +0.000 NA
ATOM      6  C   UNL     1       3.921   6.374  17.258  0.00  0.00    +0.000 A 
ATOM      7  N   UNL     1       4.929   6.324  16.375  0.00  0.00    +0.000 NA
ENDROOT
BRANCH   4   8
ATOM      8  O   UNL     1       3.008   2.960  17.639  0.00  0.00    +0.000 OA
BRANCH   8   9
ATOM      9  C   UNL     1       2.498   2.929  18.919  0.00  0.00    +0.000 A 
ATOM     10  C   UNL     1       1.144   3.129  19.212  0.00  0.00    +0.000 A 
ATOM     11  C   UNL     1       0.703   3.122  20.534  0.00  0.00    +0.000 A 
ATOM     12  C   UNL     1       1.603   2.865  21.566  0.00  0.00    +0.000 A 
ATOM     13  C   UNL     1       2.942   2.603  21.274  0.00  0.00    +0.000 A 
ATOM     14  C   UNL     1       3.390   2.631  19.951  0.00  0.00    +0.000 A 
ENDBRANCH   8   9
ENDBRANCH   4   8
BRANCH   6  15
ATOM     15  S   UNL     1       3.279   7.985  17.630  0.00  0.00    +0.000 S 
BRANCH  15  16
ATOM     16  C   UNL     1       2.178   7.603  19.024  0.00  0.00    +0.000 C 
BRANCH  16  17
ATOM     17  C   UNL     1       1.498   8.861  19.535  0.00  0.00    +0.000 C 
ATOM     18  O   UNL     1       1.001   8.923  20.656  0.00  0.00    +0.000 OA
ATOM     19  N   UNL     1       1.450   9.877  18.587  0.00  0.00    +0.000 N 
ATOM     20  H   UNL     1       1.364   9.532  17.635  0.00  0.00    +0.000 HD
BRANCH  19  21
ATOM     21  C   UNL     1       0.813  11.108  18.869  0.00  0.00    +0.000 A 
ATOM     22  C   UNL     1       1.606  12.106  19.443  0.00  0.00    +0.000 A 
ATOM     23  C   UNL     1       1.084  13.379  19.671  0.00  0.00    +0.000 A 
ATOM     24  C   UNL     1      -0.248  13.650  19.357  0.00  0.00    +0.000 A 
ATOM     25 CL   UNL     1      -0.883  15.225  19.633  0.00  0.00    +0.000 Cl
ATOM     26  C   UNL     1      -1.069  12.653  18.840  0.00  0.00    +0.000 A 
ATOM     27  C   UNL     1      -0.545  11.376  18.602  0.00  0.00    +0.000 A 
ATOM     28 CL   UNL     1      -1.669  10.145  18.129  0.00  0.00    +0.000 Cl
ENDBRANCH  19  21
ENDBRANCH  16  17
ENDBRANCH  15  16
ENDBRANCH   6  15
TORSDOF 6
ENDMDL
MODEL 2
REMARK VINA RESULT:      -7.4      6.033      6.869
REMARK  Name = 
REMARK  7 active torsions:
REMARK  status: ('A' for Active; 'I' for Inactive)
REMARK    1  A    between atoms: C_1  and  C_2
REMARK    2  A    between atoms: C_4  and  O_5
REMARK    3  A    between atoms: O_5  and  C_6
REMARK    4  A    between atoms: C_13  and  S_14
REMARK    5  A    between atoms: S_14  and  C_15
REMARK    6  A    between atoms: C_15  and  C_16
REMARK    7  A    between atoms: N_18  and  C_19
REMARK                            x       y       z     vdW  Elec       q    Type
REMARK                         _______ _______ _______ _____ _____    ______ ____
ROOT
ATOM      1  C   UNL     1       6.978   4.454  14.028  0.00  0.00    +0.000 C 
ATOM      2  C   UNL     1       6.825   4.881  15.455  0.00  0.00    +0.000 A 
ATOM      3  C   UNL     1       6.290   4.043  16.411  0.00  0.00    +0.000 A 
ATOM      4  C   UNL     1       6.204   4.574  17.677  0.00  0.00    +0.000 A 
ATOM      5  N   UNL     1       6.649   5.800  18.021  0.00  0.00    +0.000 NA
ATOM      6  C   UNL     1       7.104   6.555  17.013  0.00  0.00    +0.000 A 
ATOM      7  N   UNL     1       7.208   6.142  15.742  0.00  0.00    +0.000 NA
ENDROOT
BRANCH   4   8
ATOM      8  O   UNL     1       5.617   3.772  18.651  0.00  0.00    +0.000 OA
BRANCH   8   9
ATOM      9  C   UNL     1       4.256   3.569  18.566  0.00  0.00    +0.000 A 
ATOM     10  C   UNL     1       3.362   4.539  18.099  0.00  0.00    +0.000 A 
ATOM     11  C   UNL     1       1.993   4.279  18.076  0.00  0.00    +0.000 A 
ATOM     12  C   UNL     1       1.516   3.031  18.471  0.00  0.00    +0.000 A 
ATOM     13  C   UNL     1       2.410   2.040  18.878  0.00  0.00    +0.000 A 
ATOM     14  C   UNL     1       3.780   2.306  18.923  0.00  0.00    +0.000 A 
ENDBRANCH   8   9
ENDBRANCH   4   8
BRANCH   6  15
ATOM     15  S   UNL     1       7.426   8.273  17.312  0.00  0.00    +0.000 S 
BRANCH  15  16
ATOM     16  C   UNL     1       8.498   8.174  18.775  0.00  0.00    +0.000 C 
BRANCH  16  17
ATOM     17  C   UNL     1       9.139   9.519  19.067  0.00  0.00    +0.000 C 
ATOM     18  O   UNL     1       9.287   9.935  20.213  0.00  0.00    +0.000 OA
ATOM     19  N   UNL     1       9.466  10.227  17.916  0.00  0.00    +0.000 N 
ATOM     20  H   UNL     1       8.823  10.059  17.146  0.00  0.00    +0.000 HD
BRANCH  19  21
ATOM     21  C   UNL     1      10.031  11.521  17.991  0.00  0.00    +0.000 A 
ATOM     22  C   UNL     1      11.316  11.613  18.533  0.00  0.00    +0.000 A 
ATOM     23  C   UNL     1      11.984  12.837  18.563  0.00  0.00    +0.000 A 
ATOM     24  C   UNL     1      11.354  13.984  18.081  0.00  0.00    +0.000 A 
ATOM     25 CL   UNL     1      12.188  15.488  18.113  0.00  0.00    +0.000 Cl
ATOM     26  C   UNL     1      10.053  13.923  17.592  0.00  0.00    +0.000 A 
ATOM     27  C   UNL     1       9.383  12.694  17.552  0.00  0.00    +0.000 A 
ATOM     28 CL   UNL     1       7.711  12.729  17.100  0.00  0.00    +0.000 Cl
ENDBRANCH  19  21
ENDBRANCH  16  17
ENDBRANCH  15  16
ENDBRANCH   6  15
TORSDOF 6
ENDMDL
MODEL 3
REMARK VINA RESULT:      -7.3      1.314      1.604
REMARK  Name = 
REMARK  7 active torsions:
REMARK  status: ('A' for Active; 'I' for Inactive)
REMARK    1  A    between atoms: C_1  and  C_2
REMARK    2  A    between atoms: C_4  and  O_5
REMARK    3  A    between atoms: O_5  and  C_6
REMARK    4  A    between atoms: C_13  and  S_14
REMARK    5  A    between atoms: S_14  and  C_15
REMARK    6  A    between atoms: C_15  and  C_16
REMARK    7  A    between atoms: N_18  and  C_19
REMARK                            x       y       z     vdW  Elec       q    Type
REMARK                         _______ _______ _______ _____ _____    ______ ____
ROOT
ATOM      1  C   UNL     1       6.315   4.570  14.204  0.00  0.00    +0.000 C 
ATOM      2  C   UNL     1       5.556   4.630  15.493  0.00  0.00    +0.000 A 
ATOM      3  C   UNL     1       5.117   3.489  16.133  0.00  0.00    +0.000 A 
ATOM      4  C   UNL     1       4.426   3.700  17.303  0.00  0.00    +0.000 A 
ATOM      5  N   UNL     1       4.217   4.912  17.858  0.00  0.00    +0.000 NA
ATOM      6  C   UNL     1       4.637   5.959  17.136  0.00  0.00    +0.000 A 
ATOM      7  N   UNL     1       5.298   5.864  15.973  0.00  0.00    +0.000 NA
ENDROOT
BRANCH   4   8
ATOM      8  O   UNL     1       3.922   2.572  17.942  0.00  0.00    +0.000 OA
BRANCH   8   9
ATOM      9  C   UNL     1       3.003   2.774  18.949  0.00  0.00    +0.000 A 
ATOM     10  C   UNL     1       1.652   3.051  18.714  0.00  0.00    +0.000 A 
ATOM     11  C   UNL     1       0.786   3.283  19.781  0.00  0.00    +0.000 A 
ATOM     12  C   UNL     1       1.255   3.188  21.089  0.00  0.00    +0.000 A 
ATOM     13  C   UNL     1       2.587   2.849  21.330  0.00  0.00    +0.000 A 
ATOM     14  C   UNL     1       3.462   2.639  20.262  0.00  0.00    +0.000 A 
ENDBRANCH   8   9
ENDBRANCH   4   8
BRANCH   6  15
ATOM     15  S   UNL     1       4.143   7.589  17.630  0.00  0.00    +0.000 S 
BRANCH  15  16
ATOM     16  C   UNL     1       2.343   7.380  17.757  0.00  0.00    +0.000 C 
BRANCH  16  17
ATOM     17  C   UNL     1       1.727   8.493  18.586  0.00  0.00    +0.000 C 
ATOM     18  O   UNL     1       1.742   8.476  19.814  0.00  0.00    +0.000 OA
ATOM     19  N   UNL     1       1.105   9.468  17.813  0.00  0.00    +0.000 N 
ATOM     20  H   UNL     1       0.692   9.098  16.960  0.00  0.00    +0.000 HD
BRANCH  19  21
ATOM     21  C   UNL     1       0.436  10.559  18.413  0.00  0.00    +0.000 A 
ATOM     22  C   UNL     1      -0.908  10.364  18.742  0.00  0.00    +0.000 A 
ATOM     23  C   UNL     1      -1.620  11.356  19.419  0.00  0.00    +0.000 A 
ATOM     24  C   UNL     1      -0.997  12.562  19.738  0.00  0.00    +0.000 A 
ATOM     25 CL   UNL     1      -1.879  13.776  20.580  0.00  0.00    +0.000 Cl
ATOM     26  C   UNL     1       0.322  12.797  19.366  0.00  0.00    +0.000 A 
ATOM     27  C   UNL     1       1.042  11.801  18.695  0.00  0.00    +0.000 A 
ATOM     28 CL   UNL     1       2.614  12.232  18.109  0.00  0.00    +0.000 Cl
ENDBRANCH  19  21
ENDBRANCH  16  17
ENDBRANCH  15  16
ENDBRANCH   6  15
TORSDOF 6
ENDMDL
MODEL 4
REMARK VINA RESULT:      -7.3      2.521      4.439
REMARK  Name = 
REMARK  7 active torsions:
REMARK  status: ('A' for Active; 'I' for Inactive)
REMARK    1  A    between atoms: C_1  and  C_2
REMARK    2  A    between atoms: C_4  and  O_5
REMARK    3  A    between atoms: O_5  and  C_6
REMARK    4  A    between atoms: C_13  and  S_14
REMARK    5  A    between atoms: S_14  and  C_15
REMARK    6  A    between atoms: C_15  and  C_16
REMARK    7  A    between atoms: N_18  and  C_19
REMARK                            x       y       z     vdW  Elec       q    Type
REMARK                         _______ _______ _______ _____ _____    ______ ____
ROOT
ATOM      1  C   UNL     1       1.257   2.790  21.517  0.00  0.00    +0.000 C 
ATOM      2  C   UNL     1       2.156   3.692  20.728  0.00  0.00    +0.000 A 
ATOM      3  C   UNL     1       3.383   3.268  20.262  0.00  0.00    +0.000 A 
ATOM      4  C   UNL     1       4.102   4.208  19.561  0.00  0.00    +0.000 A 
ATOM      5  N   UNL     1       3.659   5.449  19.274  0.00  0.00    +0.000 NA
ATOM      6  C   UNL     1       2.479   5.782  19.814  0.00  0.00    +0.000 A 
ATOM      7  N   UNL     1       1.711   4.950  20.532  0.00  0.00    +0.000 NA
ENDROOT
BRANCH   4   8
ATOM      8  O   UNL     1       5.368   3.828  19.126  0.00  0.00    +0.000 OA
BRANCH   8   9
ATOM      9  C   UNL     1       6.102   4.761  18.427  0.00  0.00    +0.000 A 
ATOM     10  C   UNL     1       5.967   4.973  17.050  0.00  0.00    +0.000 A 
ATOM     11  C   UNL     1       6.770   5.909  16.401  0.00  0.00    +0.000 A 
ATOM     12  C   UNL     1       7.677   6.673  17.133  0.00  0.00    +0.000 A 
ATOM     13  C   UNL     1       7.770   6.510  18.515  0.00  0.00    +0.000 A 
ATOM     14  C   UNL     1       6.982   5.557  19.164  0.00  0.00    +0.000 A 
ENDBRANCH   8   9
ENDBRANCH   4   8
BRANCH   6  15
ATOM     15  S   UNL     1       1.958   7.475  19.748  0.00  0.00    +0.000 S 
BRANCH  15  16
ATOM     16  C   UNL     1       1.479   7.757  21.477  0.00  0.00    +0.000 C 
BRANCH  16  17
ATOM     17  C   UNL     1       0.246   8.638  21.560  0.00  0.00    +0.000 C 
ATOM     18  O   UNL     1      -0.870   8.178  21.785  0.00  0.00    +0.000 OA
ATOM     19  N   UNL     1       0.514   9.977  21.292  0.00  0.00    +0.000 N 
ATOM     20  H   UNL     1       1.262  10.106  20.615  0.00  0.00    +0.000 HD
BRANCH  19  21
ATOM     21  C   UNL     1      -0.521  10.940  21.277  0.00  0.00    +0.000 A 
ATOM     22  C   UNL     1      -0.833  11.541  22.500  0.00  0.00    +0.000 A 
ATOM     23  C   UNL     1      -1.779  12.565  22.562  0.00  0.00    +0.000 A 
ATOM     24  C   UNL     1      -2.441  12.969  21.404  0.00  0.00    +0.000 A 
ATOM     25 CL   UNL     1      -3.599  14.239  21.486  0.00  0.00    +0.000 Cl
ATOM     26  C   UNL     1      -2.187  12.343  20.188  0.00  0.00    +0.000 A 
ATOM     27  C   UNL     1      -1.232  11.320  20.121  0.00  0.00    +0.000 A 
ATOM     28 CL   UNL     1      -1.100  10.471  18.617  0.00  0.00    +0.000 Cl
ENDBRANCH  19  21
ENDBRANCH  16  17
ENDBRANCH  15  16
ENDBRANCH   6  15
TORSDOF 6
ENDMDL
MODEL 5
REMARK VINA RESULT:      -7.3      6.566      7.385
REMARK  Name = 
REMARK  7 active torsions:
REMARK  status: ('A' for Active; 'I' for Inactive)
REMARK    1  A    between atoms: C_1  and  C_2
REMARK    2  A    between atoms: C_4  and  O_5
REMARK    3  A    between atoms: O_5  and  C_6
REMARK    4  A    between atoms: C_13  and  S_14
REMARK    5  A    between atoms: S_14  and  C_15
REMARK    6  A    between atoms: C_15  and  C_16
REMARK    7  A    between atoms: N_18  and  C_19
REMARK                            x       y       z     vdW  Elec       q    Type
REMARK                         _______ _______ _______ _____ _____    ______ ____
ROOT
ATOM      1  C   UNL     1       8.506   5.144  20.046  0.00  0.00    +0.000 C 
ATOM      2  C   UNL     1       7.826   5.923  18.963  0.00  0.00    +0.000 A 
ATOM      3  C   UNL     1       6.874   5.353  18.144  0.00  0.00    +0.000 A 
ATOM      4  C   UNL     1       6.343   6.188  17.189  0.00  0.00    +0.000 A 
ATOM      5  N   UNL     1       6.654   7.494  17.060  0.00  0.00    +0.000 NA
ATOM      6  C   UNL     1       7.624   7.941  17.869  0.00  0.00    +0.000 A 
ATOM      7  N   UNL     1       8.223   7.204  18.815  0.00  0.00    +0.000 NA
ENDROOT
BRANCH   4   8
ATOM      8  O   UNL     1       5.421   5.625  16.312  0.00  0.00    +0.000 OA
BRANCH   8   9
ATOM      9  C   UNL     1       4.278   5.083  16.858  0.00  0.00    +0.000 A 
ATOM     10  C   UNL     1       3.952   3.725  16.769  0.00  0.00    +0.000 A 
ATOM     11  C   UNL     1       2.759   3.252  17.312  0.00  0.00    +0.000 A 
ATOM     12  C   UNL     1       1.911   4.124  17.991  0.00  0.00    +0.000 A 
ATOM     13  C   UNL     1       2.262   5.467  18.137  0.00  0.00    +0.000 A 
ATOM     14  C   UNL     1       3.446   5.947  17.574  0.00  0.00    +0.000 A 
ENDBRANCH   8   9
ENDBRANCH   4   8
BRANCH   6  15
ATOM     15  S   UNL     1       8.309   9.549  17.571  0.00  0.00    +0.000 S 
BRANCH  15  16
ATOM     16  C   UNL     1       9.168   9.855  19.142  0.00  0.00    +0.000 C 
BRANCH  16  17
ATOM     17  C   UNL     1       9.784  11.242  19.160  0.00  0.00    +0.000 C 
ATOM     18  O   UNL     1      10.502  11.624  20.080  0.00  0.00    +0.000 OA
ATOM     19  N   UNL     1       9.395  12.025  18.078  0.00  0.00    +0.000 N 
ATOM     20  H   UNL     1       8.449  11.826  17.761  0.00  0.00    +0.000 HD
BRANCH  19  21
ATOM     21  C   UNL     1       9.833  13.363  17.950  0.00  0.00    +0.000 A 
ATOM     22  C   UNL     1      11.037  13.565  17.271  0.00  0.00    +0.000 A 
ATOM     23  C   UNL     1      11.499  14.858  17.021  0.00  0.00    +0.000 A 
ATOM     24  C   UNL     1      10.771  15.955  17.480  0.00  0.00    +0.000 A 
ATOM     25 CL   UNL     1      11.341  17.547  17.160  0.00  0.00    +0.000 Cl
ATOM     26  C   UNL     1       9.601  15.773  18.209  0.00  0.00    +0.000 A 
ATOM     27  C   UNL     1       9.131  14.477  18.454  0.00  0.00    +0.000 A 
ATOM     28 CL   UNL     1       7.771  14.326  19.517  0.00  0.00    +0.000 Cl
ENDBRANCH  19  21
ENDBRANCH  16  17
ENDBRANCH  15  16
ENDBRANCH   6  15
TORSDOF 6
ENDMDL
MODEL 6
REMARK VINA RESULT:      -7.2      1.168      1.770
REMARK  Name = 
REMARK  7 active torsions:
REMARK  status: ('A' for Active; 'I' for Inactive)
REMARK    1  A    between atoms: C_1  and  C_2
REMARK    2  A    between atoms: C_4  and  O_5
REMARK    3  A    between atoms: O_5  and  C_6
REMARK    4  A    between atoms: C_13  and  S_14
REMARK    5  A    between atoms: S_14  and  C_15
REMARK    6  A    between atoms: C_15  and  C_16
REMARK    7  A    between atoms: N_18  and  C_19
REMARK                            x       y       z     vdW  Elec       q    Type
REMARK                         _______ _______ _______ _____ _____    ______ ____
ROOT
ATOM      1  C   UNL     1       6.801   4.765  14.983  0.00  0.00    +0.000 C 
ATOM      2  C   UNL     1       5.671   4.852  15.961  0.00  0.00    +0.000 A 
ATOM      3  C   UNL     1       4.932   3.744  16.320  0.00  0.00    +0.000 A 
ATOM      4  C   UNL     1       3.920   3.978  17.221  0.00  0.00    +0.000 A 
ATOM      5  N   UNL     1       3.665   5.176  17.787  0.00  0.00    +0.000 NA
ATOM      6  C   UNL     1       4.404   6.198  17.337  0.00  0.00    +0.000 A 
ATOM      7  N   UNL     1       5.397   6.082  16.444  0.00  0.00    +0.000 NA
ENDROOT
BRANCH   4   8
ATOM      8  O   UNL     1       3.121   2.890  17.559  0.00  0.00    +0.000 OA
BRANCH   8   9
ATOM      9  C   UNL     1       2.587   2.869  18.829  0.00  0.00    +0.000 A 
ATOM     10  C   UNL     1       3.343   2.612  19.977  0.00  0.00    +0.000 A 
ATOM     11  C   UNL     1       2.730   2.568  21.228  0.00  0.00    +0.000 A 
ATOM     12  C   UNL     1       1.366   2.832  21.342  0.00  0.00    +0.000 A 
ATOM     13  C   UNL     1       0.620   3.151  20.207  0.00  0.00    +0.000 A 
ATOM     14  C   UNL     1       1.229   3.173  18.951  0.00  0.00    +0.000 A 
ENDBRANCH   8   9
ENDBRANCH   4   8
BRANCH   6  15
ATOM     15  S   UNL     1       3.944   7.849  17.793  0.00  0.00    +0.000 S 
BRANCH  15  16
ATOM     16  C   UNL     1       2.135   7.701  17.847  0.00  0.00    +0.000 C 
BRANCH  16  17
ATOM     17  C   UNL     1       1.523   8.833  18.653  0.00  0.00    +0.000 C 
ATOM     18  O   UNL     1       1.605   8.878  19.877  0.00  0.00    +0.000 OA
ATOM     19  N   UNL     1       0.826   9.745  17.869  0.00  0.00    +0.000 N 
ATOM     20  H   UNL     1       0.381   9.319  17.059  0.00  0.00    +0.000 HD
BRANCH  19  21
ATOM     21  C   UNL     1       0.150  10.842  18.451  0.00  0.00    +0.000 A 
ATOM     22  C   UNL     1      -1.221  10.686  18.674  0.00  0.00    +0.000 A 
ATOM     23  C   UNL     1      -1.949  11.682  19.326  0.00  0.00    +0.000 A 
ATOM     24  C   UNL     1      -1.312  12.855  19.728  0.00  0.00    +0.000 A 
ATOM     25 CL   UNL     1      -2.214  14.076  20.539  0.00  0.00    +0.000 Cl
ATOM     26  C   UNL     1       0.039  13.054  19.462  0.00  0.00    +0.000 A 
ATOM     27  C   UNL     1       0.774  12.053  18.816  0.00  0.00    +0.000 A 
ATOM     28 CL   UNL     1       2.399  12.444  18.362  0.00  0.00    +0.000 Cl
ENDBRANCH  19  21
ENDBRANCH  16  17
ENDBRANCH  15  16
ENDBRANCH   6  15
TORSDOF 6
ENDMDL
MODEL 7
REMARK VINA RESULT:      -7.2      5.695      6.530
REMARK  Name = 
REMARK  7 active torsions:
REMARK  status: ('A' for Active; 'I' for Inactive)
REMARK    1  A    between atoms: C_1  and  C_2
REMARK    2  A    between atoms: C_4  and  O_5
REMARK    3  A    between atoms: O_5  and  C_6
REMARK    4  A    between atoms: C_13  and  S_14
REMARK    5  A    between atoms: S_14  and  C_15
REMARK    6  A    between atoms: C_15  and  C_16
REMARK    7  A    between atoms: N_18  and  C_19
REMARK                            x       y       z     vdW  Elec       q    Type
REMARK                         _______ _______ _______ _____ _____    ______ ____
ROOT
ATOM      1  C   UNL     1       7.228   5.139  13.655  0.00  0.00    +0.000 C 
ATOM      2  C   UNL     1       6.795   4.961  15.077  0.00  0.00    +0.000 A 
ATOM      3  C   UNL     1       5.741   4.140  15.419  0.00  0.00    +0.000 A 
ATOM      4  C   UNL     1       5.453   4.081  16.762  0.00  0.00    +0.000 A 
ATOM      5  N   UNL     1       6.156   4.717  17.722  0.00  0.00    +0.000 NA
ATOM      6  C   UNL     1       7.128   5.529  17.285  0.00  0.00    +0.000 A 
ATOM      7  N   UNL     1       7.473   5.676  15.998  0.00  0.00    +0.000 NA
ENDROOT
BRANCH   4   8
ATOM      8  O   UNL     1       4.359   3.305  17.132  0.00  0.00    +0.000 OA
BRANCH   8   9
ATOM      9  C   UNL     1       3.491   3.838  18.061  0.00  0.00    +0.000 A 
ATOM     10  C   UNL     1       2.919   3.091  19.096  0.00  0.00    +0.000 A 
ATOM     11  C   UNL     1       2.019   3.687  19.978  0.00  0.00    +0.000 A 
ATOM     12  C   UNL     1       1.726   5.044  19.861  0.00  0.00    +0.000 A 
ATOM     13  C   UNL     1       2.343   5.807  18.869  0.00  0.00    +0.000 A 
ATOM     14  C   UNL     1       3.228   5.207  17.970  0.00  0.00    +0.000 A 
ENDBRANCH   8   9
ENDBRANCH   4   8
BRANCH   6  15
ATOM     15  S   UNL     1       7.903   6.629  18.439  0.00  0.00    +0.000 S 
BRANCH  15  16
ATOM     16  C   UNL     1       7.725   8.217  17.575  0.00  0.00    +0.000 C 
BRANCH  16  17
ATOM     17  C   UNL     1       8.536   9.301  18.263  0.00  0.00    +0.000 C 
ATOM     18  O   UNL     1       8.994   9.154  19.393  0.00  0.00    +0.000 OA
ATOM     19  N   UNL     1       8.637  10.466  17.509  0.00  0.00    +0.000 N 
ATOM     20  H   UNL     1       7.814  10.646  16.940  0.00  0.00    +0.000 HD
BRANCH  19  21
ATOM     21  C   UNL     1       9.317  11.601  18.008  0.00  0.00    +0.000 A 
ATOM     22  C   UNL     1      10.558  11.372  18.609  0.00  0.00    +0.000 A 
ATOM     23  C   UNL     1      11.338  12.443  19.047  0.00  0.00    +0.000 A 
ATOM     24  C   UNL     1      10.863  13.747  18.917  0.00  0.00    +0.000 A 
ATOM     25 CL   UNL     1      11.834  15.063  19.452  0.00  0.00    +0.000 Cl
ATOM     26  C   UNL     1       9.605  13.990  18.376  0.00  0.00    +0.000 A 
ATOM     27  C   UNL     1       8.823  12.919  17.926  0.00  0.00    +0.000 A 
ATOM     28 CL   UNL     1       7.204  13.284  17.432  0.00  0.00    +0.000 Cl
ENDBRANCH  19  21
ENDBRANCH  16  17
ENDBRANCH  15  16
ENDBRANCH   6  15
TORSDOF 6
ENDMDL
MODEL 8
REMARK VINA RESULT:      -7.2      1.926      4.460
REMARK  Name = 
REMARK  7 active torsions:
REMARK  status: ('A' for Active; 'I' for Inactive)
REMARK    1  A    between atoms: C_1  and  C_2
REMARK    2  A    between atoms: C_4  and  O_5
REMARK    3  A    between atoms: O_5  and  C_6
REMARK    4  A    between atoms: C_13  and  S_14
REMARK    5  A    between atoms: S_14  and  C_15
REMARK    6  A    between atoms: C_15  and  C_16
REMARK    7  A    between atoms: N_18  and  C_19
REMARK                            x       y       z     vdW  Elec       q    Type
REMARK                         _______ _______ _______ _____ _____    ______ ____
ROOT
ATOM      1  C   UNL     1       1.099   3.588  20.510  0.00  0.00    +0.000 C 
ATOM      2  C   UNL     1       2.106   4.391  19.747  0.00  0.00    +0.000 A 
ATOM      3  C   UNL     1       3.328   3.867  19.380  0.00  0.00    +0.000 A 
ATOM      4  C   UNL     1       4.153   4.724  18.692  0.00  0.00    +0.000 A 
ATOM      5  N   UNL     1       3.817   5.979  18.327  0.00  0.00    +0.000 NA
ATOM      6  C   UNL     1       2.631   6.413  18.774  0.00  0.00    +0.000 A 
ATOM      7  N   UNL     1       1.763   5.666  19.472  0.00  0.00    +0.000 NA
ENDROOT
BRANCH   4   8
ATOM      8  O   UNL     1       5.415   4.242  18.357  0.00  0.00    +0.000 OA
BRANCH   8   9
ATOM      9  C   UNL     1       5.816   4.378  17.046  0.00  0.00    +0.000 A 
ATOM     10  C   UNL     1       5.016   4.016  15.956  0.00  0.00    +0.000 A 
ATOM     11  C   UNL     1       5.500   4.145  14.655  0.00  0.00    +0.000 A 
ATOM     12  C   UNL     1       6.766   4.685  14.436  0.00  0.00    +0.000 A 
ATOM     13  C   UNL     1       7.542   5.106  15.517  0.00  0.00    +0.000 A 
ATOM     14  C   UNL     1       7.067   4.956  16.822  0.00  0.00    +0.000 A 
ENDBRANCH   8   9
ENDBRANCH   4   8
BRANCH   6  15
ATOM     15  S   UNL     1       2.234   8.133  18.606  0.00  0.00    +0.000 S 
BRANCH  15  16
ATOM     16  C   UNL     1       1.711   8.533  20.299  0.00  0.00    +0.000 C 
BRANCH  16  17
ATOM     17  C   UNL     1       0.338   9.183  20.302  0.00  0.00    +0.000 C 
ATOM     18  O   UNL     1      -0.477   8.981  21.197  0.00  0.00    +0.000 OA
ATOM     19  N   UNL     1       0.100   9.956  19.169  0.00  0.00    +0.000 N 
ATOM     20  H   UNL     1       0.557   9.595  18.336  0.00  0.00    +0.000 HD
BRANCH  19  21
ATOM     21  C   UNL     1      -1.143  10.601  18.975  0.00  0.00    +0.000 A 
ATOM     22  C   UNL     1      -1.972  10.075  17.980  0.00  0.00    +0.000 A 
ATOM     23  C   UNL     1      -3.252  10.594  17.782  0.00  0.00    +0.000 A 
ATOM     24  C   UNL     1      -3.695  11.665  18.556  0.00  0.00    +0.000 A 
ATOM     25 CL   UNL     1      -5.278  12.293  18.312  0.00  0.00    +0.000 Cl
ATOM     26  C   UNL     1      -2.862  12.240  19.510  0.00  0.00    +0.000 A 
ATOM     27  C   UNL     1      -1.580  11.716  19.719  0.00  0.00    +0.000 A 
ATOM     28 CL   UNL     1      -0.541  12.594  20.792  0.00  0.00    +0.000 Cl
ENDBRANCH  19  21
ENDBRANCH  16  17
ENDBRANCH  15  16
ENDBRANCH   6  15
TORSDOF 6
ENDMDL
MODEL 9
REMARK VINA RESULT:      -7.2      1.872      2.721
REMARK  Name = 
REMARK  7 active torsions:
REMARK  status: ('A' for Active; 'I' for Inactive)
REMARK    1  A    between atoms: C_1  and  C_2
REMARK    2  A    between atoms: C_4  and  O_5
REMARK    3  A    between atoms: O_5  and  C_6
REMARK    4  A    between atoms: C_13  and  S_14
REMARK    5  A    between atoms: S_14  and  C_15
REMARK    6  A    between atoms: C_15  and  C_16
REMARK    7  A    between atoms: N_18  and  C_19
REMARK                            x       y       z     vdW  Elec       q    Type
REMARK                         _______ _______ _______ _____ _____    ______ ____
ROOT
ATOM      1  C   UNL     1       6.848   7.064  17.128  0.00  0.00    +0.000 C 
ATOM      2  C   UNL     1       5.436   6.686  17.451  0.00  0.00    +0.000 A 
ATOM      3  C   UNL     1       5.047   5.369  17.582  0.00  0.00    +0.000 A 
ATOM      4  C   UNL     1       3.717   5.175  17.872  0.00  0.00    +0.000 A 
ATOM      5  N   UNL     1       2.828   6.168  18.080  0.00  0.00    +0.000 NA
ATOM      6  C   UNL     1       3.291   7.410  17.881  0.00  0.00    +0.000 A 
ATOM      7  N   UNL     1       4.561   7.706  17.573  0.00  0.00    +0.000 NA
ENDROOT
BRANCH   4   8
ATOM      8  O   UNL     1       3.282   3.855  17.953  0.00  0.00    +0.000 OA
BRANCH   8   9
ATOM      9  C   UNL     1       2.676   3.462  19.127  0.00  0.00    +0.000 A 
ATOM     10  C   UNL     1       3.382   3.196  20.306  0.00  0.00    +0.000 A 
ATOM     11  C   UNL     1       2.707   2.764  21.446  0.00  0.00    +0.000 A 
ATOM     12  C   UNL     1       1.319   2.646  21.429  0.00  0.00    +0.000 A 
ATOM     13  C   UNL     1       0.605   2.970  20.275  0.00  0.00    +0.000 A 
ATOM     14  C   UNL     1       1.282   3.381  19.124  0.00  0.00    +0.000 A 
ENDBRANCH   8   9
ENDBRANCH   4   8
BRANCH   6  15
ATOM     15  S   UNL     1       2.134   8.753  17.834  0.00  0.00    +0.000 S 
BRANCH  15  16
ATOM     16  C   UNL     1       1.654   8.856  19.583  0.00  0.00    +0.000 C 
BRANCH  16  17
ATOM     17  C   UNL     1       0.256   9.430  19.726  0.00  0.00    +0.000 C 
ATOM     18  O   UNL     1      -0.422   9.251  20.734  0.00  0.00    +0.000 OA
ATOM     19  N   UNL     1      -0.175  10.105  18.588  0.00  0.00    +0.000 N 
ATOM     20  H   UNL     1       0.192   9.709  17.726  0.00  0.00    +0.000 HD
BRANCH  19  21
ATOM     21  C   UNL     1      -1.470  10.668  18.520  0.00  0.00    +0.000 A 
ATOM     22  C   UNL     1      -2.365  10.072  17.627  0.00  0.00    +0.000 A 
ATOM     23  C   UNL     1      -3.690  10.505  17.560  0.00  0.00    +0.000 A 
ATOM     24  C   UNL     1      -4.116  11.562  18.364  0.00  0.00    +0.000 A 
ATOM     25 CL   UNL     1      -5.753  12.085  18.282  0.00  0.00    +0.000 Cl
ATOM     26  C   UNL     1      -3.224  12.206  19.215  0.00  0.00    +0.000 A 
ATOM     27  C   UNL     1      -1.897  11.768  19.291  0.00  0.00    +0.000 A 
ATOM     28 CL   UNL     1      -0.808  12.730  20.235  0.00  0.00    +0.000 Cl
ENDBRANCH  19  21
ENDBRANCH  16  17
ENDBRANCH  15  16
ENDBRANCH   6  15
TORSDOF 6
ENDMDL
