MODEL 1
REMARK VINA RESULT:      -9.3      0.000      0.000
REMARK  Name = 
REMARK  8 active torsions:
REMARK  status: ('A' for Active; 'I' for Inactive)
REMARK    1  A    between atoms: C_1  and  O_2
REMARK    2  A    between atoms: O_2  and  C_3
REMARK    3  A    between atoms: C_3  and  C_4
REMARK    4  A    between atoms: C_4  and  N_5
REMARK    5  A    between atoms: C_6  and  C_8
REMARK    6  A    between atoms: C_12  and  C_13
REMARK    7  A    between atoms: C_19  and  C_20
REMARK    8  A    between atoms: C_20  and  C_21
REMARK                            x       y       z     vdW  Elec       q    Type
REMARK                         _______ _______ _______ _____ _____    ______ ____
ROOT
ATOM      1  C   UNL     1       3.690   3.606  18.212  0.00  0.00    +0.000 A 
ATOM      2  C   UNL     1       3.179   2.323  17.882  0.00  0.00    +0.000 A 
ATOM      3  C   UNL     1       1.937   1.872  18.298  0.00  0.00    +0.000 A 
ATOM      4  C   UNL     1       1.154   2.673  19.113  0.00  0.00    +0.000 A 
ATOM      5  C   UNL     1       1.618   3.941  19.533  0.00  0.00    +0.000 A 
ATOM      6  C   UNL     1       0.956   4.887  20.384  0.00  0.00    +0.000 A 
ATOM      7  C   UNL     1       1.664   6.049  20.570  0.00  0.00    +0.000 A 
ATOM      8  S   UNL     1       3.127   6.011  19.699  0.00  0.00    +0.000 S 
ATOM      9  C   UNL     1       2.868   4.403  19.077  0.00  0.00    +0.000 A 
ENDROOT
BRANCH   1  14
ATOM     10  C   UNL     1       6.451   4.519  15.697  0.00  0.00    +0.000 A 
ATOM     11  C   UNL     1       7.493   4.870  16.559  0.00  0.00    +0.000 A 
ATOM     12  C   UNL     1       7.289   4.836  17.932  0.00  0.00    +0.000 A 
ATOM     13  C   UNL     1       6.058   4.415  18.437  0.00  0.00    +0.000 A 
ATOM     14  C   UNL     1       4.975   4.055  17.600  0.00  0.00    +0.000 A 
ATOM     15  C   UNL     1       5.195   4.148  16.214  0.00  0.00    +0.000 A 
BRANCH  10  17
ATOM     16  N   UNL     1       6.198   3.417  13.534  0.00  0.00    +0.000 N 
ATOM     17  C   UNL     1       6.752   4.463  14.242  0.00  0.00    +0.000 C 
ATOM     18  O   UNL     1       7.451   5.326  13.725  0.00  0.00    +0.000 OA
ATOM     19  H   UNL     1       5.374   2.966  13.914  0.00  0.00    +0.000 HD
BRANCH  16  20
ATOM     20  C   UNL     1       6.359   3.365  12.091  0.00  0.00    +0.000 C 
BRANCH  20  21
ATOM     21  C   UNL     1       5.261   2.544  11.423  0.00  0.00    +0.000 C 
BRANCH  21  23
ATOM     22  C   UNL     1       3.405   3.494  10.319  0.00  0.00    +0.000 C 
ATOM     23  O   UNL     1       4.015   3.233  11.575  0.00  0.00    +0.000 OA
ENDBRANCH  21  23
ENDBRANCH  20  21
ENDBRANCH  16  20
ENDBRANCH  10  17
ENDBRANCH   1  14
BRANCH   7  24
ATOM     24  C   UNL     1       1.243   7.264  21.350  0.00  0.00    +0.000 C 
BRANCH  24  25
ATOM     25  C   UNL     1       1.221   8.543  20.542  0.00  0.00    +0.000 A 
ATOM     26  C   UNL     1       1.613   8.540  19.197  0.00  0.00    +0.000 A 
ATOM     27  C   UNL     1       1.562   9.716  18.449  0.00  0.00    +0.000 A 
ATOM     28  F   UNL     1       1.926   9.689  17.159  0.00  0.00    +0.000 F 
ATOM     29  C   UNL     1       1.132  10.911  19.009  0.00  0.00    +0.000 A 
ATOM     30  C   UNL     1       0.746  10.923  20.345  0.00  0.00    +0.000 A 
ATOM     31 CL   UNL     1       0.206  12.391  21.061  0.00  0.00    +0.000 Cl
ATOM     32  C   UNL     1       0.788   9.752  21.110  0.00  0.00    +0.000 A 
ENDBRANCH  24  25
ENDBRANCH   7  24
TORSDOF 7
ENDMDL
MODEL 2
REMARK VINA RESULT:      -8.8      1.307      1.528
REMARK  Name = 
REMARK  8 active torsions:
REMARK  status: ('A' for Active; 'I' for Inactive)
REMARK    1  A    between atoms: C_1  and  O_2
REMARK    2  A    between atoms: O_2  and  C_3
REMARK    3  A    between atoms: C_3  and  C_4
REMARK    4  A    between atoms: C_4  and  N_5
REMARK    5  A    between atoms: C_6  and  C_8
REMARK    6  A    between atoms: C_12  and  C_13
REMARK    7  A    between atoms: C_19  and  C_20
REMARK    8  A    between atoms: C_20  and  C_21
REMARK                            x       y       z     vdW  Elec       q    Type
REMARK                         _______ _______ _______ _____ _____    ______ ____
ROOT
ATOM      1  C   UNL     1       3.618   3.669  18.189  0.00  0.00    +0.000 A 
ATOM      2  C   UNL     1       3.078   2.420  17.785  0.00  0.00    +0.000 A 
ATOM      3  C   UNL     1       1.819   1.980  18.161  0.00  0.00    +0.000 A 
ATOM      4  C   UNL     1       1.047   2.757  19.008  0.00  0.00    +0.000 A 
ATOM      5  C   UNL     1       1.538   3.989  19.501  0.00  0.00    +0.000 A 
ATOM      6  C   UNL     1       0.890   4.904  20.394  0.00  0.00    +0.000 A 
ATOM      7  C   UNL     1       1.625   6.036  20.650  0.00  0.00    +0.000 A 
ATOM      8  S   UNL     1       3.098   6.005  19.796  0.00  0.00    +0.000 S 
ATOM      9  C   UNL     1       2.805   4.440  19.085  0.00  0.00    +0.000 A 
ENDROOT
BRANCH   1  14
ATOM     10  C   UNL     1       6.462   4.563  15.761  0.00  0.00    +0.000 A 
ATOM     11  C   UNL     1       7.472   4.928  16.654  0.00  0.00    +0.000 A 
ATOM     12  C   UNL     1       7.221   4.909  18.020  0.00  0.00    +0.000 A 
ATOM     13  C   UNL     1       5.974   4.490  18.486  0.00  0.00    +0.000 A 
ATOM     14  C   UNL     1       4.922   4.115  17.617  0.00  0.00    +0.000 A 
ATOM     15  C   UNL     1       5.190   4.194  16.238  0.00  0.00    +0.000 A 
BRANCH  10  17
ATOM     16  N   UNL     1       6.282   3.439  13.601  0.00  0.00    +0.000 N 
ATOM     17  C   UNL     1       6.814   4.491  14.317  0.00  0.00    +0.000 C 
ATOM     18  O   UNL     1       7.532   5.347  13.817  0.00  0.00    +0.000 OA
ATOM     19  H   UNL     1       5.444   2.993  13.957  0.00  0.00    +0.000 HD
BRANCH  16  20
ATOM     20  C   UNL     1       6.494   3.372  12.166  0.00  0.00    +0.000 C 
BRANCH  20  21
ATOM     21  C   UNL     1       5.337   2.681  11.450  0.00  0.00    +0.000 C 
BRANCH  21  23
ATOM     22  C   UNL     1       3.231   3.117  10.481  0.00  0.00    +0.000 C 
ATOM     23  O   UNL     1       4.243   3.600  11.354  0.00  0.00    +0.000 OA
ENDBRANCH  21  23
ENDBRANCH  20  21
ENDBRANCH  16  20
ENDBRANCH  10  17
ENDBRANCH   1  14
BRANCH   7  24
ATOM     24  C   UNL     1       1.226   7.218  21.490  0.00  0.00    +0.000 C 
BRANCH  24  25
ATOM     25  C   UNL     1       0.882   8.457  20.692  0.00  0.00    +0.000 A 
ATOM     26  C   UNL     1      -0.197   9.267  21.067  0.00  0.00    +0.000 A 
ATOM     27  C   UNL     1      -0.491  10.423  20.346  0.00  0.00    +0.000 A 
ATOM     28  F   UNL     1      -1.518  11.193  20.731  0.00  0.00    +0.000 F 
ATOM     29  C   UNL     1       0.263  10.798  19.243  0.00  0.00    +0.000 A 
ATOM     30  C   UNL     1       1.332   9.996  18.860  0.00  0.00    +0.000 A 
ATOM     31 CL   UNL     1       2.285  10.441  17.497  0.00  0.00    +0.000 Cl
ATOM     32  C   UNL     1       1.644   8.834  19.575  0.00  0.00    +0.000 A 
ENDBRANCH  24  25
ENDBRANCH   7  24
TORSDOF 7
ENDMDL
MODEL 3
REMARK VINA RESULT:      -8.6      5.416      9.572
REMARK  Name = 
REMARK  8 active torsions:
REMARK  status: ('A' for Active; 'I' for Inactive)
REMARK    1  A    between atoms: C_1  and  O_2
REMARK    2  A    between atoms: O_2  and  C_3
REMARK    3  A    between atoms: C_3  and  C_4
REMARK    4  A    between atoms: C_4  and  N_5
REMARK    5  A    between atoms: C_6  and  C_8
REMARK    6  A    between atoms: C_12  and  C_13
REMARK    7  A    between atoms: C_19  and  C_20
REMARK    8  A    between atoms: C_20  and  C_21
REMARK                            x       y       z     vdW  Elec       q    Type
REMARK                         _______ _______ _______ _____ _____    ______ ____
ROOT
ATOM      1  C   UNL     1       2.368   5.722  18.619  0.00  0.00    +0.000 A 
ATOM      2  C   UNL     1       1.458   4.748  19.109  0.00  0.00    +0.000 A 
ATOM      3  C   UNL     1       1.709   3.386  19.066  0.00  0.00    +0.000 A 
ATOM      4  C   UNL     1       2.875   2.923  18.481  0.00  0.00    +0.000 A 
ATOM      5  C   UNL     1       3.806   3.827  17.918  0.00  0.00    +0.000 A 
ATOM      6  C   UNL     1       5.045   3.526  17.262  0.00  0.00    +0.000 A 
ATOM      7  C   UNL     1       5.739   4.640  16.859  0.00  0.00    +0.000 A 
ATOM      8  S   UNL     1       4.903   6.060  17.290  0.00  0.00    +0.000 S 
ATOM      9  C   UNL     1       3.556   5.210  17.998  0.00  0.00    +0.000 A 
ENDROOT
BRANCH   1  14
ATOM     10  C   UNL     1       1.419   9.084  20.223  0.00  0.00    +0.000 A 
ATOM     11  C   UNL     1       1.471   9.934  19.115  0.00  0.00    +0.000 A 
ATOM     12  C   UNL     1       1.835   9.425  17.876  0.00  0.00    +0.000 A 
ATOM     13  C   UNL     1       2.109   8.062  17.743  0.00  0.00    +0.000 A 
ATOM     14  C   UNL     1       2.072   7.168  18.839  0.00  0.00    +0.000 A 
ATOM     15  C   UNL     1       1.750   7.722  20.091  0.00  0.00    +0.000 A 
BRANCH  10  17
ATOM     16  N   UNL     1      -0.154  10.519  21.417  0.00  0.00    +0.000 N 
ATOM     17  C   UNL     1       0.916   9.653  21.502  0.00  0.00    +0.000 C 
ATOM     18  O   UNL     1       1.440   9.337  22.564  0.00  0.00    +0.000 OA
ATOM     19  H   UNL     1      -0.751  10.463  20.601  0.00  0.00    +0.000 HD
BRANCH  16  20
ATOM     20  C   UNL     1      -0.764  11.022  22.635  0.00  0.00    +0.000 C 
BRANCH  20  21
ATOM     21  C   UNL     1      -1.966  11.917  22.345  0.00  0.00    +0.000 C 
BRANCH  21  23
ATOM     22  C   UNL     1      -3.028  13.290  23.941  0.00  0.00    +0.000 C 
ATOM     23  O   UNL     1      -2.800  11.956  23.508  0.00  0.00    +0.000 OA
ENDBRANCH  21  23
ENDBRANCH  20  21
ENDBRANCH  16  20
ENDBRANCH  10  17
ENDBRANCH   1  14
BRANCH   7  24
ATOM     24  C   UNL     1       7.088   4.690  16.197  0.00  0.00    +0.000 C 
BRANCH  24  25
ATOM     25  C   UNL     1       7.039   4.639  14.685  0.00  0.00    +0.000 A 
ATOM     26  C   UNL     1       7.755   5.567  13.918  0.00  0.00    +0.000 A 
ATOM     27  C   UNL     1       7.729   5.495  12.526  0.00  0.00    +0.000 A 
ATOM     28  F   UNL     1       8.434   6.383  11.811  0.00  0.00    +0.000 F 
ATOM     29  C   UNL     1       6.997   4.518  11.866  0.00  0.00    +0.000 A 
ATOM     30  C   UNL     1       6.279   3.597  12.620  0.00  0.00    +0.000 A 
ATOM     31 CL   UNL     1       5.365   2.375  11.824  0.00  0.00    +0.000 Cl
ATOM     32  C   UNL     1       6.296   3.651  14.018  0.00  0.00    +0.000 A 
ENDBRANCH  24  25
ENDBRANCH   7  24
TORSDOF 7
ENDMDL
MODEL 4
REMARK VINA RESULT:      -8.6      1.021      1.211
REMARK  Name = 
REMARK  8 active torsions:
REMARK  status: ('A' for Active; 'I' for Inactive)
REMARK    1  A    between atoms: C_1  and  O_2
REMARK    2  A    between atoms: O_2  and  C_3
REMARK    3  A    between atoms: C_3  and  C_4
REMARK    4  A    between atoms: C_4  and  N_5
REMARK    5  A    between atoms: C_6  and  C_8
REMARK    6  A    between atoms: C_12  and  C_13
REMARK    7  A    between atoms: C_19  and  C_20
REMARK    8  A    between atoms: C_20  and  C_21
REMARK                            x       y       z     vdW  Elec       q    Type
REMARK                         _______ _______ _______ _____ _____    ______ ____
ROOT
ATOM      1  C   UNL     1       3.617   3.887  18.252  0.00  0.00    +0.000 A 
ATOM      2  C   UNL     1       3.062   2.615  17.956  0.00  0.00    +0.000 A 
ATOM      3  C   UNL     1       1.809   2.214  18.391  0.00  0.00    +0.000 A 
ATOM      4  C   UNL     1       1.060   3.059  19.193  0.00  0.00    +0.000 A 
ATOM      5  C   UNL     1       1.568   4.321  19.580  0.00  0.00    +0.000 A 
ATOM      6  C   UNL     1       0.945   5.306  20.414  0.00  0.00    +0.000 A 
ATOM      7  C   UNL     1       1.692   6.448  20.568  0.00  0.00    +0.000 A 
ATOM      8  S   UNL     1       3.146   6.342  19.687  0.00  0.00    +0.000 S 
ATOM      9  C   UNL     1       2.829   4.730  19.104  0.00  0.00    +0.000 A 
ENDROOT
BRANCH   1  14
ATOM     10  C   UNL     1       6.392   4.636  15.698  0.00  0.00    +0.000 A 
ATOM     11  C   UNL     1       7.446   4.989  16.543  0.00  0.00    +0.000 A 
ATOM     12  C   UNL     1       7.247   5.009  17.917  0.00  0.00    +0.000 A 
ATOM     13  C   UNL     1       6.007   4.639  18.441  0.00  0.00    +0.000 A 
ATOM     14  C   UNL     1       4.911   4.279  17.621  0.00  0.00    +0.000 A 
ATOM     15  C   UNL     1       5.128   4.318  16.232  0.00  0.00    +0.000 A 
BRANCH  10  17
ATOM     16  N   UNL     1       6.141   3.437  13.586  0.00  0.00    +0.000 N 
ATOM     17  C   UNL     1       6.685   4.520  14.244  0.00  0.00    +0.000 C 
ATOM     18  O   UNL     1       7.369   5.370  13.686  0.00  0.00    +0.000 OA
ATOM     19  H   UNL     1       5.326   2.992  13.990  0.00  0.00    +0.000 HD
BRANCH  16  20
ATOM     20  C   UNL     1       6.295   3.325  12.146  0.00  0.00    +0.000 C 
BRANCH  20  21
ATOM     21  C   UNL     1       5.570   2.104  11.588  0.00  0.00    +0.000 C 
BRANCH  21  23
ATOM     22  C   UNL     1       6.129  -0.146  11.154  0.00  0.00    +0.000 C 
ATOM     23  O   UNL     1       6.540   1.209  11.033  0.00  0.00    +0.000 OA
ENDBRANCH  21  23
ENDBRANCH  20  21
ENDBRANCH  16  20
ENDBRANCH  10  17
ENDBRANCH   1  14
BRANCH   7  24
ATOM     24  C   UNL     1       1.318   7.694  21.323  0.00  0.00    +0.000 C 
BRANCH  24  25
ATOM     25  C   UNL     1       1.067   8.900  20.444  0.00  0.00    +0.000 A 
ATOM     26  C   UNL     1       0.515   8.746  19.166  0.00  0.00    +0.000 A 
ATOM     27  C   UNL     1       0.258   9.863  18.373  0.00  0.00    +0.000 A 
ATOM     28  F   UNL     1      -0.285   9.695  17.159  0.00  0.00    +0.000 F 
ATOM     29  C   UNL     1       0.545  11.146  18.817  0.00  0.00    +0.000 A 
ATOM     30  C   UNL     1       1.098  11.308  20.083  0.00  0.00    +0.000 A 
ATOM     31 CL   UNL     1       1.459  12.889  20.658  0.00  0.00    +0.000 Cl
ATOM     32  C   UNL     1       1.359  10.198  20.894  0.00  0.00    +0.000 A 
ENDBRANCH  24  25
ENDBRANCH   7  24
TORSDOF 7
ENDMDL
MODEL 5
REMARK VINA RESULT:      -8.2      3.517      6.133
REMARK  Name = 
REMARK  8 active torsions:
REMARK  status: ('A' for Active; 'I' for Inactive)
REMARK    1  A    between atoms: C_1  and  O_2
REMARK    2  A    between atoms: O_2  and  C_3
REMARK    3  A    between atoms: C_3  and  C_4
REMARK    4  A    between atoms: C_4  and  N_5
REMARK    5  A    between atoms: C_6  and  C_8
REMARK    6  A    between atoms: C_12  and  C_13
REMARK    7  A    between atoms: C_19  and  C_20
REMARK    8  A    between atoms: C_20  and  C_21
REMARK                            x       y       z     vdW  Elec       q    Type
REMARK                         _______ _______ _______ _____ _____    ______ ____
ROOT
ATOM      1  C   UNL     1       1.769   8.333  19.306  0.00  0.00    +0.000 A 
ATOM      2  C   UNL     1       2.208   8.937  18.099  0.00  0.00    +0.000 A 
ATOM      3  C   UNL     1       1.957  10.262  17.779  0.00  0.00    +0.000 A 
ATOM      4  C   UNL     1       1.207  11.044  18.641  0.00  0.00    +0.000 A 
ATOM      5  C   UNL     1       0.685  10.500  19.838  0.00  0.00    +0.000 A 
ATOM      6  C   UNL     1      -0.121  11.152  20.828  0.00  0.00    +0.000 A 
ATOM      7  C   UNL     1      -0.434  10.349  21.897  0.00  0.00    +0.000 A 
ATOM      8  S   UNL     1       0.262   8.805  21.718  0.00  0.00    +0.000 S 
ATOM      9  C   UNL     1       0.975   9.161  20.167  0.00  0.00    +0.000 A 
ENDROOT
BRANCH   1  14
ATOM     10  C   UNL     1       3.679   4.997  19.363  0.00  0.00    +0.000 A 
ATOM     11  C   UNL     1       2.909   4.263  20.268  0.00  0.00    +0.000 A 
ATOM     12  C   UNL     1       1.805   4.854  20.869  0.00  0.00    +0.000 A 
ATOM     13  C   UNL     1       1.455   6.163  20.533  0.00  0.00    +0.000 A 
ATOM     14  C   UNL     1       2.210   6.943  19.624  0.00  0.00    +0.000 A 
ATOM     15  C   UNL     1       3.351   6.335  19.072  0.00  0.00    +0.000 A 
BRANCH  10  17
ATOM     16  N   UNL     1       4.984   4.606  17.337  0.00  0.00    +0.000 N 
ATOM     17  C   UNL     1       4.782   4.285  18.664  0.00  0.00    +0.000 C 
ATOM     18  O   UNL     1       5.468   3.470  19.268  0.00  0.00    +0.000 OA
ATOM     19  H   UNL     1       4.649   5.503  17.006  0.00  0.00    +0.000 HD
BRANCH  16  20
ATOM     20  C   UNL     1       6.113   4.032  16.627  0.00  0.00    +0.000 C 
BRANCH  20  21
ATOM     21  C   UNL     1       7.421   4.739  16.968  0.00  0.00    +0.000 C 
BRANCH  21  23
ATOM     22  C   UNL     1       7.481   7.050  17.438  0.00  0.00    +0.000 C 
ATOM     23  O   UNL     1       7.384   6.062  16.421  0.00  0.00    +0.000 OA
ENDBRANCH  21  23
ENDBRANCH  20  21
ENDBRANCH  16  20
ENDBRANCH  10  17
ENDBRANCH   1  14
BRANCH   7  24
ATOM     24  C   UNL     1      -1.209  10.725  23.130  0.00  0.00    +0.000 C 
BRANCH  24  25
ATOM     25  C   UNL     1      -1.794  12.120  23.092  0.00  0.00    +0.000 A 
ATOM     26  C   UNL     1      -3.177  12.308  22.968  0.00  0.00    +0.000 A 
ATOM     27  C   UNL     1      -3.713  13.595  22.964  0.00  0.00    +0.000 A 
ATOM     28  F   UNL     1      -5.040  13.752  22.860  0.00  0.00    +0.000 F 
ATOM     29  C   UNL     1      -2.902  14.716  23.075  0.00  0.00    +0.000 A 
ATOM     30  C   UNL     1      -1.528  14.539  23.193  0.00  0.00    +0.000 A 
ATOM     31 CL   UNL     1      -0.502  15.913  23.335  0.00  0.00    +0.000 Cl
ATOM     32  C   UNL     1      -0.973  13.254  23.203  0.00  0.00    +0.000 A 
ENDBRANCH  24  25
ENDBRANCH   7  24
TORSDOF 7
ENDMDL
MODEL 6
REMARK VINA RESULT:      -8.1      4.728      8.816
REMARK  Name = 
REMARK  8 active torsions:
REMARK  status: ('A' for Active; 'I' for Inactive)
REMARK    1  A    between atoms: C_1  and  O_2
REMARK    2  A    between atoms: O_2  and  C_3
REMARK    3  A    between atoms: C_3  and  C_4
REMARK    4  A    between atoms: C_4  and  N_5
REMARK    5  A    between atoms: C_6  and  C_8
REMARK    6  A    between atoms: C_12  and  C_13
REMARK    7  A    between atoms: C_19  and  C_20
REMARK    8  A    between atoms: C_20  and  C_21
REMARK                            x       y       z     vdW  Elec       q    Type
REMARK                         _______ _______ _______ _____ _____    ______ ____
ROOT
ATOM      1  C   UNL     1       2.159   5.057  18.591  0.00  0.00    +0.000 A 
ATOM      2  C   UNL     1       1.235   3.994  18.762  0.00  0.00    +0.000 A 
ATOM      3  C   UNL     1       1.482   2.699  18.338  0.00  0.00    +0.000 A 
ATOM      4  C   UNL     1       2.661   2.409  17.672  0.00  0.00    +0.000 A 
ATOM      5  C   UNL     1       3.608   3.427  17.411  0.00  0.00    +0.000 A 
ATOM      6  C   UNL     1       4.862   3.313  16.724  0.00  0.00    +0.000 A 
ATOM      7  C   UNL     1       5.569   4.489  16.672  0.00  0.00    +0.000 A 
ATOM      8  S   UNL     1       4.728   5.736  17.471  0.00  0.00    +0.000 S 
ATOM      9  C   UNL     1       3.360   4.733  17.877  0.00  0.00    +0.000 A 
ENDROOT
BRANCH   1  14
ATOM     10  C   UNL     1       1.579   8.819  19.136  0.00  0.00    +0.000 A 
ATOM     11  C   UNL     1       1.344   8.857  20.512  0.00  0.00    +0.000 A 
ATOM     12  C   UNL     1       1.347   7.676  21.243  0.00  0.00    +0.000 A 
ATOM     13  C   UNL     1       1.623   6.468  20.600  0.00  0.00    +0.000 A 
ATOM     14  C   UNL     1       1.863   6.384  19.207  0.00  0.00    +0.000 A 
ATOM     15  C   UNL     1       1.802   7.590  18.486  0.00  0.00    +0.000 A 
BRANCH  10  17
ATOM     16  N   UNL     1       1.019  11.190  18.986  0.00  0.00    +0.000 N 
ATOM     17  C   UNL     1       1.677  10.118  18.419  0.00  0.00    +0.000 C 
ATOM     18  O   UNL     1       2.328  10.202  17.385  0.00  0.00    +0.000 OA
ATOM     19  H   UNL     1       0.815  11.156  19.978  0.00  0.00    +0.000 HD
BRANCH  16  20
ATOM     20  C   UNL     1       1.165  12.510  18.399  0.00  0.00    +0.000 C 
BRANCH  20  21
ATOM     21  C   UNL     1       0.884  13.619  19.409  0.00  0.00    +0.000 C 
BRANCH  21  23
ATOM     22  C   UNL     1       1.719  15.824  19.358  0.00  0.00    +0.000 C 
ATOM     23  O   UNL     1       2.045  14.450  19.514  0.00  0.00    +0.000 OA
ENDBRANCH  21  23
ENDBRANCH  20  21
ENDBRANCH  16  20
ENDBRANCH  10  17
ENDBRANCH   1  14
BRANCH   7  24
ATOM     24  C   UNL     1       6.935   4.712  16.082  0.00  0.00    +0.000 C 
BRANCH  24  25
ATOM     25  C   UNL     1       6.975   4.644  14.571  0.00  0.00    +0.000 A 
ATOM     26  C   UNL     1       7.713   5.581  13.837  0.00  0.00    +0.000 A 
ATOM     27  C   UNL     1       7.772   5.494  12.446  0.00  0.00    +0.000 A 
ATOM     28  F   UNL     1       8.496   6.391  11.763  0.00  0.00    +0.000 F 
ATOM     29  C   UNL     1       7.103   4.493  11.756  0.00  0.00    +0.000 A 
ATOM     30  C   UNL     1       6.363   3.562  12.477  0.00  0.00    +0.000 A 
ATOM     31 CL   UNL     1       5.528   2.310  11.644  0.00  0.00    +0.000 Cl
ATOM     32  C   UNL     1       6.297   3.631  13.874  0.00  0.00    +0.000 A 
ENDBRANCH  24  25
ENDBRANCH   7  24
TORSDOF 7
ENDMDL
MODEL 7
REMARK VINA RESULT:      -8.0      5.261      7.900
REMARK  Name = 
REMARK  8 active torsions:
REMARK  status: ('A' for Active; 'I' for Inactive)
REMARK    1  A    between atoms: C_1  and  O_2
REMARK    2  A    between atoms: O_2  and  C_3
REMARK    3  A    between atoms: C_3  and  C_4
REMARK    4  A    between atoms: C_4  and  N_5
REMARK    5  A    between atoms: C_6  and  C_8
REMARK    6  A    between atoms: C_12  and  C_13
REMARK    7  A    between atoms: C_19  and  C_20
REMARK    8  A    between atoms: C_20  and  C_21
REMARK                            x       y       z     vdW  Elec       q    Type
REMARK                         _______ _______ _______ _____ _____    ______ ____
ROOT
ATOM      1  C   UNL     1       0.540  10.091  19.768  0.00  0.00    +0.000 A 
ATOM      2  C   UNL     1       0.906  10.681  21.006  0.00  0.00    +0.000 A 
ATOM      3  C   UNL     1       0.119  11.614  21.664  0.00  0.00    +0.000 A 
ATOM      4  C   UNL     1      -1.063  12.042  21.085  0.00  0.00    +0.000 A 
ATOM      5  C   UNL     1      -1.469  11.544  19.824  0.00  0.00    +0.000 A 
ATOM      6  C   UNL     1      -2.642  11.888  19.074  0.00  0.00    +0.000 A 
ATOM      7  C   UNL     1      -2.763  11.193  17.895  0.00  0.00    +0.000 A 
ATOM      8  S   UNL     1      -1.466  10.107  17.698  0.00  0.00    +0.000 S 
ATOM      9  C   UNL     1      -0.678  10.572  19.182  0.00  0.00    +0.000 A 
ENDROOT
BRANCH   1  14
ATOM     10  C   UNL     1       2.387   6.756  19.268  0.00  0.00    +0.000 A 
ATOM     11  C   UNL     1       3.069   7.004  18.074  0.00  0.00    +0.000 A 
ATOM     12  C   UNL     1       2.907   8.224  17.431  0.00  0.00    +0.000 A 
ATOM     13  C   UNL     1       2.095   9.204  18.005  0.00  0.00    +0.000 A 
ATOM     14  C   UNL     1       1.383   8.994  19.210  0.00  0.00    +0.000 A 
ATOM     15  C   UNL     1       1.526   7.730  19.810  0.00  0.00    +0.000 A 
BRANCH  10  17
ATOM     16  N   UNL     1       3.578   4.628  19.368  0.00  0.00    +0.000 N 
ATOM     17  C   UNL     1       2.679   5.481  19.975  0.00  0.00    +0.000 C 
ATOM     18  O   UNL     1       2.142   5.235  21.048  0.00  0.00    +0.000 OA
ATOM     19  H   UNL     1       4.237   5.020  18.706  0.00  0.00    +0.000 HD
BRANCH  16  20
ATOM     20  C   UNL     1       3.993   3.419  20.058  0.00  0.00    +0.000 C 
BRANCH  20  21
ATOM     21  C   UNL     1       3.354   2.171  19.457  0.00  0.00    +0.000 C 
BRANCH  21  23
ATOM     22  C   UNL     1       1.133   2.376  18.692  0.00  0.00    +0.000 C 
ATOM     23  O   UNL     1       2.504   2.566  18.374  0.00  0.00    +0.000 OA
ENDBRANCH  21  23
ENDBRANCH  20  21
ENDBRANCH  16  20
ENDBRANCH  10  17
ENDBRANCH   1  14
BRANCH   7  24
ATOM     24  C   UNL     1      -3.890  11.264  16.901  0.00  0.00    +0.000 C 
BRANCH  24  25
ATOM     25  C   UNL     1      -5.211  11.706  17.493  0.00  0.00    +0.000 A 
ATOM     26  C   UNL     1      -5.915  12.780  16.935  0.00  0.00    +0.000 A 
ATOM     27  C   UNL     1      -7.147  13.163  17.466  0.00  0.00    +0.000 A 
ATOM     28  F   UNL     1      -7.812  14.183  16.908  0.00  0.00    +0.000 F 
ATOM     29  C   UNL     1      -7.701  12.503  18.554  0.00  0.00    +0.000 A 
ATOM     30  C   UNL     1      -7.005  11.439  19.117  0.00  0.00    +0.000 A 
ATOM     31 CL   UNL     1      -7.674  10.603  20.465  0.00  0.00    +0.000 Cl
ATOM     32  C   UNL     1      -5.770  11.039  18.595  0.00  0.00    +0.000 A 
ENDBRANCH  24  25
ENDBRANCH   7  24
TORSDOF 7
ENDMDL
MODEL 8
REMARK VINA RESULT:      -8.0      1.176      1.382
REMARK  Name = 
REMARK  8 active torsions:
REMARK  status: ('A' for Active; 'I' for Inactive)
REMARK    1  A    between atoms: C_1  and  O_2
REMARK    2  A    between atoms: O_2  and  C_3
REMARK    3  A    between atoms: C_3  and  C_4
REMARK    4  A    between atoms: C_4  and  N_5
REMARK    5  A    between atoms: C_6  and  C_8
REMARK    6  A    between atoms: C_12  and  C_13
REMARK    7  A    between atoms: C_19  and  C_20
REMARK    8  A    between atoms: C_20  and  C_21
REMARK                            x       y       z     vdW  Elec       q    Type
REMARK                         _______ _______ _______ _____ _____    ______ ____
ROOT
ATOM      1  C   UNL     1       3.382   4.101  18.569  0.00  0.00    +0.000 A 
ATOM      2  C   UNL     1       2.713   2.867  18.363  0.00  0.00    +0.000 A 
ATOM      3  C   UNL     1       1.438   2.606  18.840  0.00  0.00    +0.000 A 
ATOM      4  C   UNL     1       0.781   3.562  19.596  0.00  0.00    +0.000 A 
ATOM      5  C   UNL     1       1.404   4.796  19.894  0.00  0.00    +0.000 A 
ATOM      6  C   UNL     1       0.885   5.884  20.671  0.00  0.00    +0.000 A 
ATOM      7  C   UNL     1       1.731   6.963  20.740  0.00  0.00    +0.000 A 
ATOM      8  S   UNL     1       3.153   6.674  19.848  0.00  0.00    +0.000 S 
ATOM      9  C   UNL     1       2.686   5.062  19.375  0.00  0.00    +0.000 A 
ENDROOT
BRANCH   1  14
ATOM     10  C   UNL     1       6.118   4.649  15.923  0.00  0.00    +0.000 A 
ATOM     11  C   UNL     1       7.257   4.727  16.729  0.00  0.00    +0.000 A 
ATOM     12  C   UNL     1       7.131   4.630  18.108  0.00  0.00    +0.000 A 
ATOM     13  C   UNL     1       5.872   4.419  18.673  0.00  0.00    +0.000 A 
ATOM     14  C   UNL     1       4.692   4.338  17.895  0.00  0.00    +0.000 A 
ATOM     15  C   UNL     1       4.845   4.491  16.505  0.00  0.00    +0.000 A 
BRANCH  10  17
ATOM     16  N   UNL     1       6.283   3.417  13.823  0.00  0.00    +0.000 N 
ATOM     17  C   UNL     1       6.317   4.645  14.449  0.00  0.00    +0.000 C 
ATOM     18  O   UNL     1       6.487   5.699  13.850  0.00  0.00    +0.000 OA
ATOM     19  H   UNL     1       5.798   2.657  14.286  0.00  0.00    +0.000 HD
BRANCH  16  20
ATOM     20  C   UNL     1       6.358   3.352  12.374  0.00  0.00    +0.000 C 
BRANCH  20  21
ATOM     21  C   UNL     1       5.128   2.683  11.768  0.00  0.00    +0.000 C 
BRANCH  21  23
ATOM     22  C   UNL     1       6.904   1.344  10.983  0.00  0.00    +0.000 C 
ATOM     23  O   UNL     1       5.510   1.404  11.249  0.00  0.00    +0.000 OA
ENDBRANCH  21  23
ENDBRANCH  20  21
ENDBRANCH  16  20
ENDBRANCH  10  17
ENDBRANCH   1  14
BRANCH   7  24
ATOM     24  C   UNL     1       1.481   8.282  21.418  0.00  0.00    +0.000 C 
BRANCH  24  25
ATOM     25  C   UNL     1       0.604   9.229  20.628  0.00  0.00    +0.000 A 
ATOM     26  C   UNL     1       0.530   9.132  19.232  0.00  0.00    +0.000 A 
ATOM     27  C   UNL     1      -0.303   9.987  18.512  0.00  0.00    +0.000 A 
ATOM     28  F   UNL     1      -0.371   9.867  17.179  0.00  0.00    +0.000 F 
ATOM     29  C   UNL     1      -1.069  10.954  19.148  0.00  0.00    +0.000 A 
ATOM     30  C   UNL     1      -0.997  11.061  20.532  0.00  0.00    +0.000 A 
ATOM     31 CL   UNL     1      -1.940  12.250  21.344  0.00  0.00    +0.000 Cl
ATOM     32  C   UNL     1      -0.169  10.208  21.272  0.00  0.00    +0.000 A 
ENDBRANCH  24  25
ENDBRANCH   7  24
TORSDOF 7
ENDMDL
MODEL 9
REMARK VINA RESULT:      -8.0      5.287      9.374
REMARK  Name = 
REMARK  8 active torsions:
REMARK  status: ('A' for Active; 'I' for Inactive)
REMARK    1  A    between atoms: C_1  and  O_2
REMARK    2  A    between atoms: O_2  and  C_3
REMARK    3  A    between atoms: C_3  and  C_4
REMARK    4  A    between atoms: C_4  and  N_5
REMARK    5  A    between atoms: C_6  and  C_8
REMARK    6  A    between atoms: C_12  and  C_13
REMARK    7  A    between atoms: C_19  and  C_20
REMARK    8  A    between atoms: C_20  and  C_21
REMARK                            x       y       z     vdW  Elec       q    Type
REMARK                         _______ _______ _______ _____ _____    ______ ____
ROOT
ATOM      1  C   UNL     1       2.340   5.995  19.656  0.00  0.00    +0.000 A 
ATOM      2  C   UNL     1       1.531   5.180  20.491  0.00  0.00    +0.000 A 
ATOM      3  C   UNL     1       1.878   3.889  20.857  0.00  0.00    +0.000 A 
ATOM      4  C   UNL     1       3.042   3.326  20.360  0.00  0.00    +0.000 A 
ATOM      5  C   UNL     1       3.872   4.053  19.476  0.00  0.00    +0.000 A 
ATOM      6  C   UNL     1       5.092   3.625  18.855  0.00  0.00    +0.000 A 
ATOM      7  C   UNL     1       5.680   4.590  18.074  0.00  0.00    +0.000 A 
ATOM      8  S   UNL     1       4.767   6.028  18.101  0.00  0.00    +0.000 S 
ATOM      9  C   UNL     1       3.526   5.376  19.139  0.00  0.00    +0.000 A 
ENDROOT
BRANCH   1  14
ATOM     10  C   UNL     1       1.051   9.582  20.161  0.00  0.00    +0.000 A 
ATOM     11  C   UNL     1       1.190  10.100  18.871  0.00  0.00    +0.000 A 
ATOM     12  C   UNL     1       1.720   9.305  17.864  0.00  0.00    +0.000 A 
ATOM     13  C   UNL     1       2.072   7.983  18.143  0.00  0.00    +0.000 A 
ATOM     14  C   UNL     1       1.951   7.419  19.435  0.00  0.00    +0.000 A 
ATOM     15  C   UNL     1       1.460   8.265  20.445  0.00  0.00    +0.000 A 
BRANCH  10  17
ATOM     16  N   UNL     1      -0.648  11.242  20.725  0.00  0.00    +0.000 N 
ATOM     17  C   UNL     1       0.376  10.435  21.176  0.00  0.00    +0.000 C 
ATOM     18  O   UNL     1       0.728  10.389  22.348  0.00  0.00    +0.000 OA
ATOM     19  H   UNL     1      -1.118  10.983  19.866  0.00  0.00    +0.000 HD
BRANCH  16  20
ATOM     20  C   UNL     1      -1.421  12.015  21.681  0.00  0.00    +0.000 C 
BRANCH  20  21
ATOM     21  C   UNL     1      -1.926  13.324  21.082  0.00  0.00    +0.000 C 
BRANCH  21  23
ATOM     22  C   UNL     1      -1.337  13.863  23.301  0.00  0.00    +0.000 C 
ATOM     23  O   UNL     1      -1.984  14.311  22.118  0.00  0.00    +0.000 OA
ENDBRANCH  21  23
ENDBRANCH  20  21
ENDBRANCH  16  20
ENDBRANCH  10  17
ENDBRANCH   1  14
BRANCH   7  24
ATOM     24  C   UNL     1       6.984   4.498  17.331  0.00  0.00    +0.000 C 
BRANCH  24  25
ATOM     25  C   UNL     1       6.840   4.513  15.824  0.00  0.00    +0.000 A 
ATOM     26  C   UNL     1       5.750   3.885  15.208  0.00  0.00    +0.000 A 
ATOM     27  C   UNL     1       5.607   3.927  13.822  0.00  0.00    +0.000 A 
ATOM     28  F   UNL     1       4.549   3.333  13.253  0.00  0.00    +0.000 F 
ATOM     29  C   UNL     1       6.532   4.580  13.020  0.00  0.00    +0.000 A 
ATOM     30  C   UNL     1       7.620   5.201  13.623  0.00  0.00    +0.000 A 
ATOM     31 CL   UNL     1       8.779   6.020  12.650  0.00  0.00    +0.000 Cl
ATOM     32  C   UNL     1       7.778   5.172  15.013  0.00  0.00    +0.000 A 
ENDBRANCH  24  25
ENDBRANCH   7  24
TORSDOF 7
ENDMDL
