MODEL 1
REMARK VINA RESULT:      -6.0      0.000      0.000
REMARK  Name = 
REMARK  9 active torsions:
REMARK  status: ('A' for Active; 'I' for Inactive)
REMARK    1  A    between atoms: C_1  and  N_2
REMARK    2  A    between atoms: N_2  and  C_3
REMARK    3  A    between atoms: N_2  and  C_4
REMARK    4  A    between atoms: N_2  and  C_5
REMARK    5  A    between atoms: C_5  and  C_6
REMARK    6  A    between atoms: C_5  and  C_18
REMARK    7  A    between atoms: C_6  and  C_7
REMARK    8  A    between atoms: C_7  and  O_8
REMARK    9  A    between atoms: O_8  and  C_9
REMARK                            x       y       z     vdW  Elec       q    Type
REMARK                         _______ _______ _______ _____ _____    ______ ____
ROOT
ATOM      1  C   UNL     1       1.292   6.354  20.779  0.00  0.00    +0.000 C 
ENDROOT
BRANCH   1   2
ATOM      2  C   UNL     1       2.300   5.192  20.828  0.00  0.00    +0.000 C 
BRANCH   2   3
ATOM      3  C   UNL     1       2.127   4.273  19.598  0.00  0.00    +0.000 C 
BRANCH   3   5
ATOM      4  C   UNL     1       4.499   5.059  19.216  0.00  0.00    +0.000 C 
ATOM      5  N   UNL     1       3.549   3.889  18.923  0.00  0.00    +0.000 N 
ATOM      6  C   UNL     1       3.372   3.793  17.411  0.00  0.00    +0.000 C 
ATOM      7  C   UNL     1       4.124   2.623  19.488  0.00  0.00    +0.000 C 
ENDBRANCH   3   5
BRANCH   3   8
ATOM      8  C   UNL     1       1.231   3.010  19.915  0.00  0.00    +0.000 C 
ATOM      9  O   UNL     1       0.633   2.518  18.921  0.00  0.00    +0.000 OA
ATOM     10  O   UNL     1       1.126   2.766  21.149  0.00  0.00    +0.000 OA
ENDBRANCH   3   8
ENDBRANCH   2   3
ENDBRANCH   1   2
BRANCH   1  11
ATOM     11  O   UNL     1       1.973   7.603  20.649  0.00  0.00    +0.000 OA
BRANCH  11  12
ATOM     12  C   UNL     1       1.236   8.684  20.216  0.00  0.00    +0.000 A 
ATOM     13  C   UNL     1       1.447   9.061  18.869  0.00  0.00    +0.000 A 
ATOM     14 CL   UNL     1       2.517   8.164  17.838  0.00  0.00    +0.000 Cl
ATOM     15  C   UNL     1       0.811  10.172  18.299  0.00  0.00    +0.000 A 
ATOM     16  C   UNL     1      -0.058  10.928  19.069  0.00  0.00    +0.000 A 
ATOM     17 BR   UNL     1      -0.918  12.442  18.335  0.00  0.00    +0.000 Br
ATOM     18  C   UNL     1      -0.276  10.596  20.404  0.00  0.00    +0.000 A 
ATOM     19  C   UNL     1       0.385   9.501  20.985  0.00  0.00    +0.000 A 
ATOM     20 BR   UNL     1       0.091   9.380  22.862  0.00  0.00    +0.000 Br
ENDBRANCH  11  12
ENDBRANCH   1  11
TORSDOF 6
ENDMDL
MODEL 2
REMARK VINA RESULT:      -5.8      0.704      1.044
REMARK  Name = 
REMARK  9 active torsions:
REMARK  status: ('A' for Active; 'I' for Inactive)
REMARK    1  A    between atoms: C_1  and  N_2
REMARK    2  A    between atoms: N_2  and  C_3
REMARK    3  A    between atoms: N_2  and  C_4
REMARK    4  A    between atoms: N_2  and  C_5
REMARK    5  A    between atoms: C_5  and  C_6
REMARK    6  A    between atoms: C_5  and  C_18
REMARK    7  A    between atoms: C_6  and  C_7
REMARK    8  A    between atoms: C_7  and  O_8
REMARK    9  A    between atoms: O_8  and  C_9
REMARK                            x       y       z     vdW  Elec       q    Type
REMARK                         _______ _______ _______ _____ _____    ______ ____
ROOT
ATOM      1  C   UNL     1       1.385   6.370  20.695  0.00  0.00    +0.000 C 
ENDROOT
BRANCH   1   2
ATOM      2  C   UNL     1       2.385   5.210  20.542  0.00  0.00    +0.000 C 
BRANCH   2   3
ATOM      3  C   UNL     1       2.538   4.819  19.055  0.00  0.00    +0.000 C 
BRANCH   3   5
ATOM      4  C   UNL     1       5.011   5.300  19.256  0.00  0.00    +0.000 C 
ATOM      5  N   UNL     1       4.020   4.255  18.726  0.00  0.00    +0.000 N 
ATOM      6  C   UNL     1       4.195   4.167  17.213  0.00  0.00    +0.000 C 
ATOM      7  C   UNL     1       4.286   2.932  19.385  0.00  0.00    +0.000 C 
ENDBRANCH   3   5
BRANCH   3   8
ATOM      8  C   UNL     1       1.386   3.854  18.568  0.00  0.00    +0.000 C 
ATOM      9  O   UNL     1       0.987   3.024  19.428  0.00  0.00    +0.000 OA
ATOM     10  O   UNL     1       1.134   3.955  17.335  0.00  0.00    +0.000 OA
ENDBRANCH   3   8
ENDBRANCH   2   3
ENDBRANCH   1   2
BRANCH   1  11
ATOM     11  O   UNL     1       2.049   7.627  20.550  0.00  0.00    +0.000 OA
BRANCH  11  12
ATOM     12  C   UNL     1       1.287   8.702  20.146  0.00  0.00    +0.000 A 
ATOM     13  C   UNL     1       1.472   9.104  18.802  0.00  0.00    +0.000 A 
ATOM     14 CL   UNL     1       2.542   8.243  17.741  0.00  0.00    +0.000 Cl
ATOM     15  C   UNL     1       0.809  10.213  18.260  0.00  0.00    +0.000 A 
ATOM     16  C   UNL     1      -0.060  10.941  19.055  0.00  0.00    +0.000 A 
ATOM     17 BR   UNL     1      -0.957  12.452  18.358  0.00  0.00    +0.000 Br
ATOM     18  C   UNL     1      -0.254  10.584  20.386  0.00  0.00    +0.000 A 
ATOM     19  C   UNL     1       0.434   9.490  20.940  0.00  0.00    +0.000 A 
ATOM     20 BR   UNL     1       0.169   9.334  22.819  0.00  0.00    +0.000 Br
ENDBRANCH  11  12
ENDBRANCH   1  11
TORSDOF 6
ENDMDL
MODEL 3
REMARK VINA RESULT:      -5.8      1.805      2.128
REMARK  Name = 
REMARK  9 active torsions:
REMARK  status: ('A' for Active; 'I' for Inactive)
REMARK    1  A    between atoms: C_1  and  N_2
REMARK    2  A    between atoms: N_2  and  C_3
REMARK    3  A    between atoms: N_2  and  C_4
REMARK    4  A    between atoms: N_2  and  C_5
REMARK    5  A    between atoms: C_5  and  C_6
REMARK    6  A    between atoms: C_5  and  C_18
REMARK    7  A    between atoms: C_6  and  C_7
REMARK    8  A    between atoms: C_7  and  O_8
REMARK    9  A    between atoms: O_8  and  C_9
REMARK                            x       y       z     vdW  Elec       q    Type
REMARK                         _______ _______ _______ _____ _____    ______ ____
ROOT
ATOM      1  C   UNL     1       1.082   6.330  20.676  0.00  0.00    +0.000 C 
ENDROOT
BRANCH   1   2
ATOM      2  C   UNL     1       2.185   5.256  20.685  0.00  0.00    +0.000 C 
BRANCH   2   3
ATOM      3  C   UNL     1       2.189   4.473  19.353  0.00  0.00    +0.000 C 
BRANCH   3   5
ATOM      4  C   UNL     1       4.574   5.307  19.357  0.00  0.00    +0.000 C 
ATOM      5  N   UNL     1       3.692   4.164  18.835  0.00  0.00    +0.000 N 
ATOM      6  C   UNL     1       3.713   4.214  17.310  0.00  0.00    +0.000 C 
ATOM      7  C   UNL     1       4.214   2.853  19.347  0.00  0.00    +0.000 C 
ENDBRANCH   3   5
BRANCH   3   8
ATOM      8  C   UNL     1       1.278   3.183  19.415  0.00  0.00    +0.000 C 
ATOM      9  O   UNL     1       0.821   2.799  18.305  0.00  0.00    +0.000 OA
ATOM     10  O   UNL     1       1.017   2.808  20.592  0.00  0.00    +0.000 OA
ENDBRANCH   3   8
ENDBRANCH   2   3
ENDBRANCH   1   2
BRANCH   1  11
ATOM     11  O   UNL     1       1.616   7.601  21.048  0.00  0.00    +0.000 OA
BRANCH  11  12
ATOM     12  C   UNL     1       1.138   8.708  20.380  0.00  0.00    +0.000 A 
ATOM     13  C   UNL     1       0.148   9.448  21.067  0.00  0.00    +0.000 A 
ATOM     14 CL   UNL     1      -0.362   9.008  22.666  0.00  0.00    +0.000 Cl
ATOM     15  C   UNL     1      -0.472  10.569  20.498  0.00  0.00    +0.000 A 
ATOM     16  C   UNL     1      -0.108  10.974  19.224  0.00  0.00    +0.000 A 
ATOM     17 BR   UNL     1      -0.938  12.469  18.421  0.00  0.00    +0.000 Br
ATOM     18  C   UNL     1       0.852  10.259  18.512  0.00  0.00    +0.000 A 
ATOM     19  C   UNL     1       1.452   9.117  19.070  0.00  0.00    +0.000 A 
ATOM     20 BR   UNL     1       2.564   8.195  17.831  0.00  0.00    +0.000 Br
ENDBRANCH  11  12
ENDBRANCH   1  11
TORSDOF 6
ENDMDL
MODEL 4
REMARK VINA RESULT:      -5.8      0.752      1.482
REMARK  Name = 
REMARK  9 active torsions:
REMARK  status: ('A' for Active; 'I' for Inactive)
REMARK    1  A    between atoms: C_1  and  N_2
REMARK    2  A    between atoms: N_2  and  C_3
REMARK    3  A    between atoms: N_2  and  C_4
REMARK    4  A    between atoms: N_2  and  C_5
REMARK    5  A    between atoms: C_5  and  C_6
REMARK    6  A    between atoms: C_5  and  C_18
REMARK    7  A    between atoms: C_6  and  C_7
REMARK    8  A    between atoms: C_7  and  O_8
REMARK    9  A    between atoms: O_8  and  C_9
REMARK                            x       y       z     vdW  Elec       q    Type
REMARK                         _______ _______ _______ _____ _____    ______ ____
ROOT
ATOM      1  C   UNL     1       1.435   6.361  20.757  0.00  0.00    +0.000 C 
ENDROOT
BRANCH   1   2
ATOM      2  C   UNL     1       2.440   5.224  20.495  0.00  0.00    +0.000 C 
BRANCH   2   3
ATOM      3  C   UNL     1       2.506   4.898  18.985  0.00  0.00    +0.000 C 
BRANCH   3   5
ATOM      4  C   UNL     1       4.169   2.995  18.969  0.00  0.00    +0.000 C 
ATOM      5  N   UNL     1       3.994   4.455  18.526  0.00  0.00    +0.000 N 
ATOM      6  C   UNL     1       5.020   5.299  19.277  0.00  0.00    +0.000 C 
ATOM      7  C   UNL     1       4.186   4.554  17.040  0.00  0.00    +0.000 C 
ENDBRANCH   3   5
BRANCH   3   8
ATOM      8  C   UNL     1       1.390   3.870  18.545  0.00  0.00    +0.000 C 
ATOM      9  O   UNL     1       1.013   3.075  19.446  0.00  0.00    +0.000 OA
ATOM     10  O   UNL     1       1.143   3.896  17.307  0.00  0.00    +0.000 OA
ENDBRANCH   3   8
ENDBRANCH   2   3
ENDBRANCH   1   2
BRANCH   1  11
ATOM     11  O   UNL     1       2.059   7.633  20.577  0.00  0.00    +0.000 OA
BRANCH  11  12
ATOM     12  C   UNL     1       1.262   8.674  20.151  0.00  0.00    +0.000 A 
ATOM     13  C   UNL     1       1.445   9.064  18.804  0.00  0.00    +0.000 A 
ATOM     14 CL   UNL     1       2.554   8.227  17.764  0.00  0.00    +0.000 Cl
ATOM     15  C   UNL     1       0.747  10.140  18.239  0.00  0.00    +0.000 A 
ATOM     16  C   UNL     1      -0.156  10.847  19.016  0.00  0.00    +0.000 A 
ATOM     17 BR   UNL     1      -1.100  12.315  18.290  0.00  0.00    +0.000 Br
ATOM     18  C   UNL     1      -0.348  10.502  20.351  0.00  0.00    +0.000 A 
ATOM     19  C   UNL     1       0.374   9.442  20.927  0.00  0.00    +0.000 A 
ATOM     20 BR   UNL     1       0.098   9.303  22.805  0.00  0.00    +0.000 Br
ENDBRANCH  11  12
ENDBRANCH   1  11
TORSDOF 6
ENDMDL
MODEL 5
REMARK VINA RESULT:      -5.8      0.752      1.305
REMARK  Name = 
REMARK  9 active torsions:
REMARK  status: ('A' for Active; 'I' for Inactive)
REMARK    1  A    between atoms: C_1  and  N_2
REMARK    2  A    between atoms: N_2  and  C_3
REMARK    3  A    between atoms: N_2  and  C_4
REMARK    4  A    between atoms: N_2  and  C_5
REMARK    5  A    between atoms: C_5  and  C_6
REMARK    6  A    between atoms: C_5  and  C_18
REMARK    7  A    between atoms: C_6  and  C_7
REMARK    8  A    between atoms: C_7  and  O_8
REMARK    9  A    between atoms: O_8  and  C_9
REMARK                            x       y       z     vdW  Elec       q    Type
REMARK                         _______ _______ _______ _____ _____    ______ ____
ROOT
ATOM      1  C   UNL     1       1.393   6.287  20.714  0.00  0.00    +0.000 C 
ENDROOT
BRANCH   1   2
ATOM      2  C   UNL     1       2.325   5.071  20.565  0.00  0.00    +0.000 C 
BRANCH   2   3
ATOM      3  C   UNL     1       2.606   4.784  19.072  0.00  0.00    +0.000 C 
BRANCH   3   5
ATOM      4  C   UNL     1       4.214   3.880  17.344  0.00  0.00    +0.000 C 
ATOM      5  N   UNL     1       4.115   4.244  18.832  0.00  0.00    +0.000 N 
ATOM      6  C   UNL     1       4.321   2.969  19.643  0.00  0.00    +0.000 C 
ATOM      7  C   UNL     1       5.150   5.279  19.166  0.00  0.00    +0.000 C 
ENDBRANCH   3   5
BRANCH   3   8
ATOM      8  C   UNL     1       1.505   3.854  18.423  0.00  0.00    +0.000 C 
ATOM      9  O   UNL     1       1.110   4.213  17.282  0.00  0.00    +0.000 OA
ATOM     10  O   UNL     1       1.071   2.966  19.209  0.00  0.00    +0.000 OA
ENDBRANCH   3   8
ENDBRANCH   2   3
ENDBRANCH   1   2
BRANCH   1  11
ATOM     11  O   UNL     1       2.106   7.499  20.464  0.00  0.00    +0.000 OA
BRANCH  11  12
ATOM     12  C   UNL     1       1.371   8.599  20.079  0.00  0.00    +0.000 A 
ATOM     13  C   UNL     1       1.574   9.027  18.746  0.00  0.00    +0.000 A 
ATOM     14 CL   UNL     1       2.634   8.167  17.674  0.00  0.00    +0.000 Cl
ATOM     15  C   UNL     1       0.939  10.161  18.224  0.00  0.00    +0.000 A 
ATOM     16  C   UNL     1       0.078  10.890  19.029  0.00  0.00    +0.000 A 
ATOM     17 BR   UNL     1      -0.781  12.435  18.360  0.00  0.00    +0.000 Br
ATOM     18  C   UNL     1      -0.133  10.507  20.351  0.00  0.00    +0.000 A 
ATOM     19  C   UNL     1       0.528   9.387  20.885  0.00  0.00    +0.000 A 
ATOM     20 BR   UNL     1       0.245   9.194  22.757  0.00  0.00    +0.000 Br
ENDBRANCH  11  12
ENDBRANCH   1  11
TORSDOF 6
ENDMDL
MODEL 6
REMARK VINA RESULT:      -5.8      1.732      2.250
REMARK  Name = 
REMARK  9 active torsions:
REMARK  status: ('A' for Active; 'I' for Inactive)
REMARK    1  A    between atoms: C_1  and  N_2
REMARK    2  A    between atoms: N_2  and  C_3
REMARK    3  A    between atoms: N_2  and  C_4
REMARK    4  A    between atoms: N_2  and  C_5
REMARK    5  A    between atoms: C_5  and  C_6
REMARK    6  A    between atoms: C_5  and  C_18
REMARK    7  A    between atoms: C_6  and  C_7
REMARK    8  A    between atoms: C_7  and  O_8
REMARK    9  A    between atoms: O_8  and  C_9
REMARK                            x       y       z     vdW  Elec       q    Type
REMARK                         _______ _______ _______ _____ _____    ______ ____
ROOT
ATOM      1  C   UNL     1       1.626   6.466  20.750  0.00  0.00    +0.000 C 
ENDROOT
BRANCH   1   2
ATOM      2  C   UNL     1       2.028   5.512  19.610  0.00  0.00    +0.000 C 
BRANCH   2   3
ATOM      3  C   UNL     1       3.281   4.696  20.004  0.00  0.00    +0.000 C 
BRANCH   3   5
ATOM      4  C   UNL     1       4.291   2.380  19.960  0.00  0.00    +0.000 C 
ATOM      5  N   UNL     1       2.956   3.116  20.143  0.00  0.00    +0.000 N 
ATOM      6  C   UNL     1       2.028   2.696  19.007  0.00  0.00    +0.000 C 
ATOM      7  C   UNL     1       2.372   2.770  21.483  0.00  0.00    +0.000 C 
ENDBRANCH   3   5
BRANCH   3   8
ATOM      8  C   UNL     1       4.511   4.994  19.057  0.00  0.00    +0.000 C 
ATOM      9  O   UNL     1       5.573   5.322  19.650  0.00  0.00    +0.000 OA
ATOM     10  O   UNL     1       4.209   5.007  17.831  0.00  0.00    +0.000 OA
ENDBRANCH   3   8
ENDBRANCH   2   3
ENDBRANCH   1   2
BRANCH   1  11
ATOM     11  O   UNL     1       2.128   7.781  20.504  0.00  0.00    +0.000 OA
BRANCH  11  12
ATOM     12  C   UNL     1       1.227   8.733  20.078  0.00  0.00    +0.000 A 
ATOM     13  C   UNL     1       1.331   9.098  18.716  0.00  0.00    +0.000 A 
ATOM     14 CL   UNL     1       2.479   8.335  17.661  0.00  0.00    +0.000 Cl
ATOM     15  C   UNL     1       0.520  10.090  18.147  0.00  0.00    +0.000 A 
ATOM     16  C   UNL     1      -0.418  10.735  18.936  0.00  0.00    +0.000 A 
ATOM     17 BR   UNL     1      -1.514  12.090  18.204  0.00  0.00    +0.000 Br
ATOM     18  C   UNL     1      -0.536  10.413  20.285  0.00  0.00    +0.000 A 
ATOM     19  C   UNL     1       0.298   9.440  20.864  0.00  0.00    +0.000 A 
ATOM     20 BR   UNL     1       0.094   9.331  22.753  0.00  0.00    +0.000 Br
ENDBRANCH  11  12
ENDBRANCH   1  11
TORSDOF 6
ENDMDL
MODEL 7
REMARK VINA RESULT:      -5.7      1.707      2.345
REMARK  Name = 
REMARK  9 active torsions:
REMARK  status: ('A' for Active; 'I' for Inactive)
REMARK    1  A    between atoms: C_1  and  N_2
REMARK    2  A    between atoms: N_2  and  C_3
REMARK    3  A    between atoms: N_2  and  C_4
REMARK    4  A    between atoms: N_2  and  C_5
REMARK    5  A    between atoms: C_5  and  C_6
REMARK    6  A    between atoms: C_5  and  C_18
REMARK    7  A    between atoms: C_6  and  C_7
REMARK    8  A    between atoms: C_7  and  O_8
REMARK    9  A    between atoms: O_8  and  C_9
REMARK                            x       y       z     vdW  Elec       q    Type
REMARK                         _______ _______ _______ _____ _____    ______ ____
ROOT
ATOM      1  C   UNL     1       1.760   6.449  20.655  0.00  0.00    +0.000 C 
ENDROOT
BRANCH   1   2
ATOM      2  C   UNL     1       2.092   5.552  19.449  0.00  0.00    +0.000 C 
BRANCH   2   3
ATOM      3  C   UNL     1       3.132   4.479  19.843  0.00  0.00    +0.000 C 
BRANCH   3   5
ATOM      4  C   UNL     1       0.970   3.180  19.678  0.00  0.00    +0.000 C 
ATOM      5  N   UNL     1       2.459   3.015  20.012  0.00  0.00    +0.000 N 
ATOM      6  C   UNL     1       2.568   2.582  21.471  0.00  0.00    +0.000 C 
ATOM      7  C   UNL     1       3.070   1.998  19.093  0.00  0.00    +0.000 C 
ENDBRANCH   3   5
BRANCH   3   8
ATOM      8  C   UNL     1       4.385   4.477  18.880  0.00  0.00    +0.000 C 
ATOM      9  O   UNL     1       5.469   4.122  19.416  0.00  0.00    +0.000 OA
ATOM     10  O   UNL     1       4.147   4.977  17.745  0.00  0.00    +0.000 OA
ENDBRANCH   3   8
ENDBRANCH   2   3
ENDBRANCH   1   2
BRANCH   1  11
ATOM     11  O   UNL     1       2.203   7.787  20.421  0.00  0.00    +0.000 OA
BRANCH  11  12
ATOM     12  C   UNL     1       1.264   8.699  19.990  0.00  0.00    +0.000 A 
ATOM     13  C   UNL     1       1.369   9.080  18.632  0.00  0.00    +0.000 A 
ATOM     14 CL   UNL     1       2.565   8.380  17.588  0.00  0.00    +0.000 Cl
ATOM     15  C   UNL     1       0.520  10.037  18.060  0.00  0.00    +0.000 A 
ATOM     16  C   UNL     1      -0.459  10.631  18.840  0.00  0.00    +0.000 A 
ATOM     17 BR   UNL     1      -1.608  11.938  18.104  0.00  0.00    +0.000 Br
ATOM     18  C   UNL     1      -0.580  10.292  20.186  0.00  0.00    +0.000 A 
ATOM     19  C   UNL     1       0.291   9.355  20.768  0.00  0.00    +0.000 A 
ATOM     20 BR   UNL     1       0.068   9.221  22.653  0.00  0.00    +0.000 Br
ENDBRANCH  11  12
ENDBRANCH   1  11
TORSDOF 6
ENDMDL
MODEL 8
REMARK VINA RESULT:      -5.6      0.741      1.033
REMARK  Name = 
REMARK  9 active torsions:
REMARK  status: ('A' for Active; 'I' for Inactive)
REMARK    1  A    between atoms: C_1  and  N_2
REMARK    2  A    between atoms: N_2  and  C_3
REMARK    3  A    between atoms: N_2  and  C_4
REMARK    4  A    between atoms: N_2  and  C_5
REMARK    5  A    between atoms: C_5  and  C_6
REMARK    6  A    between atoms: C_5  and  C_18
REMARK    7  A    between atoms: C_6  and  C_7
REMARK    8  A    between atoms: C_7  and  O_8
REMARK    9  A    between atoms: O_8  and  C_9
REMARK                            x       y       z     vdW  Elec       q    Type
REMARK                         _______ _______ _______ _____ _____    ______ ____
ROOT
ATOM      1  C   UNL     1       1.670   6.418  20.580  0.00  0.00    +0.000 C 
ENDROOT
BRANCH   1   2
ATOM      2  C   UNL     1       2.813   5.513  20.088  0.00  0.00    +0.000 C 
BRANCH   2   3
ATOM      3  C   UNL     1       2.267   4.128  19.673  0.00  0.00    +0.000 C 
BRANCH   3   5
ATOM      4  C   UNL     1       4.722   3.645  19.317  0.00  0.00    +0.000 C 
ATOM      5  N   UNL     1       3.329   3.303  18.770  0.00  0.00    +0.000 N 
ATOM      6  C   UNL     1       3.253   3.803  17.331  0.00  0.00    +0.000 C 
ATOM      7  C   UNL     1       3.111   1.820  18.847  0.00  0.00    +0.000 C 
ENDBRANCH   3   5
BRANCH   3   8
ATOM      8  C   UNL     1       1.730   3.301  20.908  0.00  0.00    +0.000 C 
ATOM      9  O   UNL     1       2.526   3.219  21.881  0.00  0.00    +0.000 OA
ATOM     10  O   UNL     1       0.636   2.714  20.682  0.00  0.00    +0.000 OA
ENDBRANCH   3   8
ENDBRANCH   2   3
ENDBRANCH   1   2
BRANCH   1  11
ATOM     11  O   UNL     1       2.092   7.783  20.618  0.00  0.00    +0.000 OA
BRANCH  11  12
ATOM     12  C   UNL     1       1.205   8.732  20.158  0.00  0.00    +0.000 A 
ATOM     13  C   UNL     1       1.359   9.096  18.800  0.00  0.00    +0.000 A 
ATOM     14 CL   UNL     1       2.547   8.334  17.790  0.00  0.00    +0.000 Cl
ATOM     15  C   UNL     1       0.569  10.085  18.200  0.00  0.00    +0.000 A 
ATOM     16  C   UNL     1      -0.400  10.730  18.952  0.00  0.00    +0.000 A 
ATOM     17 BR   UNL     1      -1.471  12.082  18.179  0.00  0.00    +0.000 Br
ATOM     18  C   UNL     1      -0.568  10.409  20.297  0.00  0.00    +0.000 A 
ATOM     19  C   UNL     1       0.246   9.439  20.907  0.00  0.00    +0.000 A 
ATOM     20 BR   UNL     1      -0.027   9.332  22.788  0.00  0.00    +0.000 Br
ENDBRANCH  11  12
ENDBRANCH   1  11
TORSDOF 6
ENDMDL
MODEL 9
REMARK VINA RESULT:      -5.6      1.762      2.263
REMARK  Name = 
REMARK  9 active torsions:
REMARK  status: ('A' for Active; 'I' for Inactive)
REMARK    1  A    between atoms: C_1  and  N_2
REMARK    2  A    between atoms: N_2  and  C_3
REMARK    3  A    between atoms: N_2  and  C_4
REMARK    4  A    between atoms: N_2  and  C_5
REMARK    5  A    between atoms: C_5  and  C_6
REMARK    6  A    between atoms: C_5  and  C_18
REMARK    7  A    between atoms: C_6  and  C_7
REMARK    8  A    between atoms: C_7  and  O_8
REMARK    9  A    between atoms: O_8  and  C_9
REMARK                            x       y       z     vdW  Elec       q    Type
REMARK                         _______ _______ _______ _____ _____    ______ ____
ROOT
ATOM      1  C   UNL     1       1.714   6.354  20.634  0.00  0.00    +0.000 C 
ENDROOT
BRANCH   1   2
ATOM      2  C   UNL     1       2.191   5.429  19.499  0.00  0.00    +0.000 C 
BRANCH   2   3
ATOM      3  C   UNL     1       3.416   4.603  19.953  0.00  0.00    +0.000 C 
BRANCH   3   5
ATOM      4  C   UNL     1       2.441   2.829  21.466  0.00  0.00    +0.000 C 
ATOM      5  N   UNL     1       3.071   3.026  20.080  0.00  0.00    +0.000 N 
ATOM      6  C   UNL     1       4.370   2.227  20.037  0.00  0.00    +0.000 C 
ATOM      7  C   UNL     1       2.110   2.565  19.023  0.00  0.00    +0.000 C 
ENDBRANCH   3   5
BRANCH   3   8
ATOM      8  C   UNL     1       4.692   4.888  19.065  0.00  0.00    +0.000 C 
ATOM      9  O   UNL     1       4.504   4.809  17.821  0.00  0.00    +0.000 OA
ATOM     10  O   UNL     1       5.755   5.008  19.736  0.00  0.00    +0.000 OA
ENDBRANCH   3   8
ENDBRANCH   2   3
ENDBRANCH   1   2
BRANCH   1  11
ATOM     11  O   UNL     1       2.214   7.679  20.443  0.00  0.00    +0.000 OA
BRANCH  11  12
ATOM     12  C   UNL     1       1.318   8.638  20.022  0.00  0.00    +0.000 A 
ATOM     13  C   UNL     1       1.435   9.022  18.666  0.00  0.00    +0.000 A 
ATOM     14 CL   UNL     1       2.591   8.272  17.612  0.00  0.00    +0.000 Cl
ATOM     15  C   UNL     1       0.632  10.024  18.105  0.00  0.00    +0.000 A 
ATOM     16  C   UNL     1      -0.313  10.660  18.894  0.00  0.00    +0.000 A 
ATOM     17 BR   UNL     1      -1.400  12.027  18.171  0.00  0.00    +0.000 Br
ATOM     18  C   UNL     1      -0.444  10.319  20.237  0.00  0.00    +0.000 A 
ATOM     19  C   UNL     1       0.383   9.337  20.809  0.00  0.00    +0.000 A 
ATOM     20 BR   UNL     1       0.162   9.201  22.695  0.00  0.00    +0.000 Br
ENDBRANCH  11  12
ENDBRANCH   1  11
TORSDOF 6
ENDMDL
