MODEL 1
REMARK VINA RESULT:      -6.2      0.000      0.000
REMARK  Name = 
REMARK  15 active torsions:
REMARK  status: ('A' for Active; 'I' for Inactive)
REMARK    1  A    between atoms: C_1  and  C_2
REMARK    2  A    between atoms: C_2  and  C_3
REMARK    3  A    between atoms: C_3  and  C_4
REMARK    4  A    between atoms: C_4  and  C_5
REMARK    5  A    between atoms: C_5  and  C_6
REMARK    6  A    between atoms: C_6  and  C_7
REMARK    7  A    between atoms: C_7  and  C_8
REMARK    8  A    between atoms: C_8  and  C_9
REMARK    9  A    between atoms: C_9  and  C_10
REMARK   10  A    between atoms: C_10  and  C_11
REMARK   11  A    between atoms: C_11  and  C_12
REMARK   12  A    between atoms: C_12  and  N_13
REMARK   13  A    between atoms: N_13  and  C_14
REMARK   14  A    between atoms: C_18  and  O_19
REMARK   15  A    between atoms: C_21  and  O_22
REMARK                            x       y       z     vdW  Elec       q    Type
REMARK                         _______ _______ _______ _____ _____    ______ ____
ROOT
ATOM      1  N   UNL     1       5.718   3.509  16.606  0.00  0.00    +0.000 N 
ATOM      2  H   UNL     1       5.818   2.669  17.177  0.00  0.00    +0.000 HD
ENDROOT
BRANCH   1   3
ATOM      3  C   UNL     1       6.441   4.569  17.186  0.00  0.00    +0.000 A 
ATOM      4  C   UNL     1       7.117   5.464  16.345  0.00  0.00    +0.000 A 
ATOM      5  N   UNL     1       7.165   5.192  14.962  0.00  0.00    +0.000 N 
ATOM      6  N   UNL     1       7.764   6.564  16.763  0.00  0.00    +0.000 NA
ATOM      7  C   UNL     1       7.704   6.777  18.076  0.00  0.00    +0.000 A 
ATOM      8  N   UNL     1       7.105   6.038  19.005  0.00  0.00    +0.000 NA
ATOM      9  C   UNL     1       6.481   4.959  18.519  0.00  0.00    +0.000 A 
ATOM     10  H   UNL     1       6.222   5.000  14.631  0.00  0.00    +0.000 HD
ATOM     11  H   UNL     1       7.591   5.988  14.500  0.00  0.00    +0.000 HD
BRANCH   7  12
ATOM     12  O   UNL     1       8.328   7.910  18.493  0.00  0.00    +0.000 OA
ATOM     13  H   UNL     1       9.238   7.678  18.250  0.00  0.00    +0.000 HD
ENDBRANCH   7  12
BRANCH   9  14
ATOM     14  O   UNL     1       5.904   4.236  19.517  0.00  0.00    +0.000 OA
ATOM     15  H   UNL     1       6.686   3.773  19.866  0.00  0.00    +0.000 HD
ENDBRANCH   9  14
ENDBRANCH   1   3
BRANCH   1  16
ATOM     16  C   UNL     1       4.373   3.769  16.129  0.00  0.00    +0.000 C 
BRANCH  16  17
ATOM     17  C   UNL     1       3.355   3.512  17.241  0.00  0.00    +0.000 C 
BRANCH  17  18
ATOM     18  C   UNL     1       3.553   2.138  17.886  0.00  0.00    +0.000 C 
BRANCH  18  19
ATOM     19  C   UNL     1       3.215   2.145  19.375  0.00  0.00    +0.000 C 
BRANCH  19  20
ATOM     20  C   UNL     1       1.714   2.089  19.622  0.00  0.00    +0.000 C 
BRANCH  20  21
ATOM     21  C   UNL     1       1.391   2.735  20.965  0.00  0.00    +0.000 C 
BRANCH  21  22
ATOM     22  C   UNL     1       2.132   4.054  21.121  0.00  0.00    +0.000 C 
BRANCH  22  23
ATOM     23  C   UNL     1       1.369   5.183  20.436  0.00  0.00    +0.000 C 
BRANCH  23  24
ATOM     24  C   UNL     1       2.202   6.461  20.423  0.00  0.00    +0.000 C 
BRANCH  24  25
ATOM     25  C   UNL     1       3.086   6.522  19.182  0.00  0.00    +0.000 C 
BRANCH  25  27
ATOM     26  C   UNL     1       2.097   8.443  17.908  0.00  0.00    +0.000 C 
ATOM     27  C   UNL     1       2.279   6.939  17.955  0.00  0.00    +0.000 C 
ENDBRANCH  25  27
ENDBRANCH  24  25
ENDBRANCH  23  24
ENDBRANCH  22  23
ENDBRANCH  21  22
ENDBRANCH  20  21
ENDBRANCH  19  20
ENDBRANCH  18  19
ENDBRANCH  17  18
ENDBRANCH  16  17
ENDBRANCH   1  16
TORSDOF 14
ENDMDL
MODEL 2
REMARK VINA RESULT:      -6.2      1.579      2.437
REMARK  Name = 
REMARK  15 active torsions:
REMARK  status: ('A' for Active; 'I' for Inactive)
REMARK    1  A    between atoms: C_1  and  C_2
REMARK    2  A    between atoms: C_2  and  C_3
REMARK    3  A    between atoms: C_3  and  C_4
REMARK    4  A    between atoms: C_4  and  C_5
REMARK    5  A    between atoms: C_5  and  C_6
REMARK    6  A    between atoms: C_6  and  C_7
REMARK    7  A    between atoms: C_7  and  C_8
REMARK    8  A    between atoms: C_8  and  C_9
REMARK    9  A    between atoms: C_9  and  C_10
REMARK   10  A    between atoms: C_10  and  C_11
REMARK   11  A    between atoms: C_11  and  C_12
REMARK   12  A    between atoms: C_12  and  N_13
REMARK   13  A    between atoms: N_13  and  C_14
REMARK   14  A    between atoms: C_18  and  O_19
REMARK   15  A    between atoms: C_21  and  O_22
REMARK                            x       y       z     vdW  Elec       q    Type
REMARK                         _______ _______ _______ _____ _____    ______ ____
ROOT
ATOM      1  N   UNL     1       4.598   2.785  17.110  0.00  0.00    +0.000 N 
ATOM      2  H   UNL     1       5.017   2.225  17.854  0.00  0.00    +0.000 HD
ENDROOT
BRANCH   1   3
ATOM      3  C   UNL     1       5.290   4.005  16.986  0.00  0.00    +0.000 A 
ATOM      4  C   UNL     1       5.883   4.563  18.126  0.00  0.00    +0.000 A 
ATOM      5  N   UNL     1       5.649   3.958  19.379  0.00  0.00    +0.000 N 
ATOM      6  N   UNL     1       6.645   5.669  18.127  0.00  0.00    +0.000 NA
ATOM      7  C   UNL     1       6.832   6.214  16.926  0.00  0.00    +0.000 A 
ATOM      8  N   UNL     1       6.351   5.812  15.754  0.00  0.00    +0.000 NA
ATOM      9  C   UNL     1       5.601   4.706  15.827  0.00  0.00    +0.000 A 
ATOM     10  H   UNL     1       5.837   2.961  19.303  0.00  0.00    +0.000 HD
ATOM     11  H   UNL     1       6.236   4.420  20.065  0.00  0.00    +0.000 HD
BRANCH   7  12
ATOM     12  O   UNL     1       7.633   7.312  16.923  0.00  0.00    +0.000 OA
ATOM     13  H   UNL     1       7.034   7.935  17.364  0.00  0.00    +0.000 HD
ENDBRANCH   7  12
BRANCH   9  14
ATOM     14  O   UNL     1       5.126   4.355  14.601  0.00  0.00    +0.000 OA
ATOM     15  H   UNL     1       4.635   3.547  14.834  0.00  0.00    +0.000 HD
ENDBRANCH   9  14
ENDBRANCH   1   3
BRANCH   1  16
ATOM     16  C   UNL     1       3.147   2.809  17.104  0.00  0.00    +0.000 C 
BRANCH  16  17
ATOM     17  C   UNL     1       2.601   2.305  18.440  0.00  0.00    +0.000 C 
BRANCH  17  18
ATOM     18  C   UNL     1       1.100   2.572  18.577  0.00  0.00    +0.000 C 
BRANCH  18  19
ATOM     19  C   UNL     1       0.734   3.117  19.957  0.00  0.00    +0.000 C 
BRANCH  19  20
ATOM     20  C   UNL     1       1.865   2.946  20.959  0.00  0.00    +0.000 C 
BRANCH  20  21
ATOM     21  C   UNL     1       2.376   4.316  21.394  0.00  0.00    +0.000 C 
BRANCH  21  22
ATOM     22  C   UNL     1       1.669   5.423  20.627  0.00  0.00    +0.000 C 
BRANCH  22  23
ATOM     23  C   UNL     1       2.679   6.290  19.882  0.00  0.00    +0.000 C 
BRANCH  23  24
ATOM     24  C   UNL     1       2.510   6.133  18.374  0.00  0.00    +0.000 C 
BRANCH  24  25
ATOM     25  C   UNL     1       3.093   7.331  17.633  0.00  0.00    +0.000 C 
BRANCH  25  27
ATOM     26  C   UNL     1       1.230   9.010  17.670  0.00  0.00    +0.000 C 
ATOM     27  C   UNL     1       2.590   8.643  18.230  0.00  0.00    +0.000 C 
ENDBRANCH  25  27
ENDBRANCH  24  25
ENDBRANCH  23  24
ENDBRANCH  22  23
ENDBRANCH  21  22
ENDBRANCH  20  21
ENDBRANCH  19  20
ENDBRANCH  18  19
ENDBRANCH  17  18
ENDBRANCH  16  17
ENDBRANCH   1  16
TORSDOF 14
ENDMDL
MODEL 3
REMARK VINA RESULT:      -6.1      3.634      6.819
REMARK  Name = 
REMARK  15 active torsions:
REMARK  status: ('A' for Active; 'I' for Inactive)
REMARK    1  A    between atoms: C_1  and  C_2
REMARK    2  A    between atoms: C_2  and  C_3
REMARK    3  A    between atoms: C_3  and  C_4
REMARK    4  A    between atoms: C_4  and  C_5
REMARK    5  A    between atoms: C_5  and  C_6
REMARK    6  A    between atoms: C_6  and  C_7
REMARK    7  A    between atoms: C_7  and  C_8
REMARK    8  A    between atoms: C_8  and  C_9
REMARK    9  A    between atoms: C_9  and  C_10
REMARK   10  A    between atoms: C_10  and  C_11
REMARK   11  A    between atoms: C_11  and  C_12
REMARK   12  A    between atoms: C_12  and  N_13
REMARK   13  A    between atoms: N_13  and  C_14
REMARK   14  A    between atoms: C_18  and  O_19
REMARK   15  A    between atoms: C_21  and  O_22
REMARK                            x       y       z     vdW  Elec       q    Type
REMARK                         _______ _______ _______ _____ _____    ______ ____
ROOT
ATOM      1  N   UNL     1       5.391   4.065  18.865  0.00  0.00    +0.000 N 
ATOM      2  H   UNL     1       5.898   3.617  18.100  0.00  0.00    +0.000 HD
ENDROOT
BRANCH   1   3
ATOM      3  C   UNL     1       4.021   3.754  18.775  0.00  0.00    +0.000 A 
ATOM      4  C   UNL     1       3.605   2.810  17.826  0.00  0.00    +0.000 A 
ATOM      5  N   UNL     1       4.549   2.310  16.905  0.00  0.00    +0.000 N 
ATOM      6  N   UNL     1       2.347   2.359  17.700  0.00  0.00    +0.000 NA
ATOM      7  C   UNL     1       1.485   2.863  18.581  0.00  0.00    +0.000 A 
ATOM      8  N   UNL     1       1.715   3.754  19.541  0.00  0.00    +0.000 NA
ATOM      9  C   UNL     1       2.987   4.161  19.610  0.00  0.00    +0.000 A 
ATOM     10  H   UNL     1       5.373   1.998  17.415  0.00  0.00    +0.000 HD
ATOM     11  H   UNL     1       4.108   1.568  16.374  0.00  0.00    +0.000 HD
BRANCH   7  12
ATOM     12  O   UNL     1       0.220   2.379  18.475  0.00  0.00    +0.000 OA
ATOM     13  H   UNL     1       0.352   1.777  17.726  0.00  0.00    +0.000 HD
ENDBRANCH   7  12
BRANCH   9  14
ATOM     14  O   UNL     1       3.155   5.081  20.597  0.00  0.00    +0.000 OA
ATOM     15  H   UNL     1       3.776   5.690  20.159  0.00  0.00    +0.000 HD
ENDBRANCH   9  14
ENDBRANCH   1   3
BRANCH   1  16
ATOM     16  C   UNL     1       5.773   5.439  19.131  0.00  0.00    +0.000 C 
BRANCH  16  17
ATOM     17  C   UNL     1       6.199   6.133  17.837  0.00  0.00    +0.000 C 
BRANCH  17  18
ATOM     18  C   UNL     1       5.024   6.308  16.872  0.00  0.00    +0.000 C 
BRANCH  18  19
ATOM     19  C   UNL     1       5.298   5.675  15.508  0.00  0.00    +0.000 C 
BRANCH  19  20
ATOM     20  C   UNL     1       6.740   5.211  15.371  0.00  0.00    +0.000 C 
BRANCH  20  21
ATOM     21  C   UNL     1       6.804   4.005  14.439  0.00  0.00    +0.000 C 
BRANCH  21  22
ATOM     22  C   UNL     1       5.538   3.903  13.601  0.00  0.00    +0.000 C 
BRANCH  22  23
ATOM     23  C   UNL     1       5.879   3.572  12.152  0.00  0.00    +0.000 C 
BRANCH  23  24
ATOM     24  C   UNL     1       4.758   2.760  11.511  0.00  0.00    +0.000 C 
BRANCH  24  25
ATOM     25  C   UNL     1       3.578   3.655  11.144  0.00  0.00    +0.000 C 
BRANCH  25  27
ATOM     26  C   UNL     1       2.428   4.738   9.196  0.00  0.00    +0.000 C 
ATOM     27  C   UNL     1       3.260   3.556   9.654  0.00  0.00    +0.000 C 
ENDBRANCH  25  27
ENDBRANCH  24  25
ENDBRANCH  23  24
ENDBRANCH  22  23
ENDBRANCH  21  22
ENDBRANCH  20  21
ENDBRANCH  19  20
ENDBRANCH  18  19
ENDBRANCH  17  18
ENDBRANCH  16  17
ENDBRANCH   1  16
TORSDOF 14
ENDMDL
MODEL 4
REMARK VINA RESULT:      -6.0      4.119      7.300
REMARK  Name = 
REMARK  15 active torsions:
REMARK  status: ('A' for Active; 'I' for Inactive)
REMARK    1  A    between atoms: C_1  and  C_2
REMARK    2  A    between atoms: C_2  and  C_3
REMARK    3  A    between atoms: C_3  and  C_4
REMARK    4  A    between atoms: C_4  and  C_5
REMARK    5  A    between atoms: C_5  and  C_6
REMARK    6  A    between atoms: C_6  and  C_7
REMARK    7  A    between atoms: C_7  and  C_8
REMARK    8  A    between atoms: C_8  and  C_9
REMARK    9  A    between atoms: C_9  and  C_10
REMARK   10  A    between atoms: C_10  and  C_11
REMARK   11  A    between atoms: C_11  and  C_12
REMARK   12  A    between atoms: C_12  and  N_13
REMARK   13  A    between atoms: N_13  and  C_14
REMARK   14  A    between atoms: C_18  and  O_19
REMARK   15  A    between atoms: C_21  and  O_22
REMARK                            x       y       z     vdW  Elec       q    Type
REMARK                         _______ _______ _______ _____ _____    ______ ____
ROOT
ATOM      1  N   UNL     1       3.791   5.309  17.923  0.00  0.00    +0.000 N 
ATOM      2  H   UNL     1       3.810   6.306  18.142  0.00  0.00    +0.000 HD
ENDROOT
BRANCH   1   3
ATOM      3  C   UNL     1       3.391   4.580  19.059  0.00  0.00    +0.000 A 
ATOM      4  C   UNL     1       2.667   5.239  20.062  0.00  0.00    +0.000 A 
ATOM      5  N   UNL     1       2.484   6.633  19.964  0.00  0.00    +0.000 N 
ATOM      6  N   UNL     1       2.150   4.640  21.148  0.00  0.00    +0.000 NA
ATOM      7  C   UNL     1       2.354   3.326  21.207  0.00  0.00    +0.000 A 
ATOM      8  N   UNL     1       3.008   2.553  20.345  0.00  0.00    +0.000 NA
ATOM      9  C   UNL     1       3.497   3.213  19.288  0.00  0.00    +0.000 A 
ATOM     10  H   UNL     1       2.133   6.856  19.035  0.00  0.00    +0.000 HD
ATOM     11  H   UNL     1       1.853   6.920  20.704  0.00  0.00    +0.000 HD
BRANCH   7  12
ATOM     12  O   UNL     1       1.799   2.716  22.287  0.00  0.00    +0.000 OA
ATOM     13  H   UNL     1       1.714   3.489  22.868  0.00  0.00    +0.000 HD
ENDBRANCH   7  12
BRANCH   9  14
ATOM     14  O   UNL     1       4.168   2.374  18.454  0.00  0.00    +0.000 OA
ATOM     15  H   UNL     1       4.161   1.561  18.989  0.00  0.00    +0.000 HD
ENDBRANCH   9  14
ENDBRANCH   1   3
BRANCH   1  16
ATOM     16  C   UNL     1       4.924   4.828  17.156  0.00  0.00    +0.000 C 
BRANCH  16  17
ATOM     17  C   UNL     1       5.238   5.790  16.010  0.00  0.00    +0.000 C 
BRANCH  17  18
ATOM     18  C   UNL     1       5.551   5.043  14.711  0.00  0.00    +0.000 C 
BRANCH  18  19
ATOM     19  C   UNL     1       7.007   4.586  14.644  0.00  0.00    +0.000 C 
BRANCH  19  20
ATOM     20  C   UNL     1       7.632   4.861  13.284  0.00  0.00    +0.000 C 
BRANCH  20  21
ATOM     21  C   UNL     1       6.641   4.504  12.182  0.00  0.00    +0.000 C 
BRANCH  21  22
ATOM     22  C   UNL     1       6.751   3.032  11.813  0.00  0.00    +0.000 C 
BRANCH  22  23
ATOM     23  C   UNL     1       5.366   2.415  11.651  0.00  0.00    +0.000 C 
BRANCH  23  24
ATOM     24  C   UNL     1       4.298   3.503  11.589  0.00  0.00    +0.000 C 
BRANCH  24  25
ATOM     25  C   UNL     1       3.218   3.150  10.572  0.00  0.00    +0.000 C 
BRANCH  25  27
ATOM     26  C   UNL     1       2.152   4.925   9.157  0.00  0.00    +0.000 C 
ATOM     27  C   UNL     1       3.348   4.007   9.316  0.00  0.00    +0.000 C 
ENDBRANCH  25  27
ENDBRANCH  24  25
ENDBRANCH  23  24
ENDBRANCH  22  23
ENDBRANCH  21  22
ENDBRANCH  20  21
ENDBRANCH  19  20
ENDBRANCH  18  19
ENDBRANCH  17  18
ENDBRANCH  16  17
ENDBRANCH   1  16
TORSDOF 14
ENDMDL
MODEL 5
REMARK VINA RESULT:      -6.0      3.234      6.648
REMARK  Name = 
REMARK  15 active torsions:
REMARK  status: ('A' for Active; 'I' for Inactive)
REMARK    1  A    between atoms: C_1  and  C_2
REMARK    2  A    between atoms: C_2  and  C_3
REMARK    3  A    between atoms: C_3  and  C_4
REMARK    4  A    between atoms: C_4  and  C_5
REMARK    5  A    between atoms: C_5  and  C_6
REMARK    6  A    between atoms: C_6  and  C_7
REMARK    7  A    between atoms: C_7  and  C_8
REMARK    8  A    between atoms: C_8  and  C_9
REMARK    9  A    between atoms: C_9  and  C_10
REMARK   10  A    between atoms: C_10  and  C_11
REMARK   11  A    between atoms: C_11  and  C_12
REMARK   12  A    between atoms: C_12  and  N_13
REMARK   13  A    between atoms: N_13  and  C_14
REMARK   14  A    between atoms: C_18  and  O_19
REMARK   15  A    between atoms: C_21  and  O_22
REMARK                            x       y       z     vdW  Elec       q    Type
REMARK                         _______ _______ _______ _____ _____    ______ ____
ROOT
ATOM      1  N   UNL     1       5.369   4.294  18.829  0.00  0.00    +0.000 N 
ATOM      2  H   UNL     1       5.264   4.505  17.836  0.00  0.00    +0.000 HD
ENDROOT
BRANCH   1   3
ATOM      3  C   UNL     1       4.117   3.957  19.379  0.00  0.00    +0.000 A 
ATOM      4  C   UNL     1       3.996   2.761  20.099  0.00  0.00    +0.000 A 
ATOM      5  N   UNL     1       5.091   1.872  20.128  0.00  0.00    +0.000 N 
ATOM      6  N   UNL     1       2.888   2.370  20.748  0.00  0.00    +0.000 NA
ATOM      7  C   UNL     1       1.875   3.232  20.687  0.00  0.00    +0.000 A 
ATOM      8  N   UNL     1       1.826   4.403  20.059  0.00  0.00    +0.000 NA
ATOM      9  C   UNL     1       2.963   4.730  19.433  0.00  0.00    +0.000 A 
ATOM     10  H   UNL     1       5.928   2.389  20.389  0.00  0.00    +0.000 HD
ATOM     11  H   UNL     1       4.870   1.123  20.775  0.00  0.00    +0.000 HD
BRANCH   7  12
ATOM     12  O   UNL     1       0.767   2.852  21.374  0.00  0.00    +0.000 OA
ATOM     13  H   UNL     1       0.226   3.646  21.238  0.00  0.00    +0.000 HD
ENDBRANCH   7  12
BRANCH   9  14
ATOM     14  O   UNL     1       2.845   5.926  18.797  0.00  0.00    +0.000 OA
ATOM     15  H   UNL     1       2.503   5.628  17.935  0.00  0.00    +0.000 HD
ENDBRANCH   9  14
ENDBRANCH   1   3
BRANCH   1  16
ATOM     16  C   UNL     1       6.224   5.207  19.563  0.00  0.00    +0.000 C 
BRANCH  16  17
ATOM     17  C   UNL     1       7.551   5.401  18.828  0.00  0.00    +0.000 C 
BRANCH  17  18
ATOM     18  C   UNL     1       7.687   6.818  18.266  0.00  0.00    +0.000 C 
BRANCH  18  19
ATOM     19  C   UNL     1       7.250   6.904  16.805  0.00  0.00    +0.000 C 
BRANCH  19  20
ATOM     20  C   UNL     1       5.736   6.926  16.659  0.00  0.00    +0.000 C 
BRANCH  20  21
ATOM     21  C   UNL     1       5.315   5.987  15.534  0.00  0.00    +0.000 C 
BRANCH  21  22
ATOM     22  C   UNL     1       5.902   4.599  15.742  0.00  0.00    +0.000 C 
BRANCH  22  23
ATOM     23  C   UNL     1       6.556   4.094  14.460  0.00  0.00    +0.000 C 
BRANCH  23  24
ATOM     24  C   UNL     1       5.524   3.978  13.343  0.00  0.00    +0.000 C 
BRANCH  24  25
ATOM     25  C   UNL     1       6.132   3.324  12.106  0.00  0.00    +0.000 C 
BRANCH  25  27
ATOM     26  C   UNL     1       3.872   3.139  11.034  0.00  0.00    +0.000 C 
ATOM     27  C   UNL     1       5.129   2.391  11.432  0.00  0.00    +0.000 C 
ENDBRANCH  25  27
ENDBRANCH  24  25
ENDBRANCH  23  24
ENDBRANCH  22  23
ENDBRANCH  21  22
ENDBRANCH  20  21
ENDBRANCH  19  20
ENDBRANCH  18  19
ENDBRANCH  17  18
ENDBRANCH  16  17
ENDBRANCH   1  16
TORSDOF 14
ENDMDL
MODEL 6
REMARK VINA RESULT:      -6.0      3.929      7.053
REMARK  Name = 
REMARK  15 active torsions:
REMARK  status: ('A' for Active; 'I' for Inactive)
REMARK    1  A    between atoms: C_1  and  C_2
REMARK    2  A    between atoms: C_2  and  C_3
REMARK    3  A    between atoms: C_3  and  C_4
REMARK    4  A    between atoms: C_4  and  C_5
REMARK    5  A    between atoms: C_5  and  C_6
REMARK    6  A    between atoms: C_6  and  C_7
REMARK    7  A    between atoms: C_7  and  C_8
REMARK    8  A    between atoms: C_8  and  C_9
REMARK    9  A    between atoms: C_9  and  C_10
REMARK   10  A    between atoms: C_10  and  C_11
REMARK   11  A    between atoms: C_11  and  C_12
REMARK   12  A    between atoms: C_12  and  N_13
REMARK   13  A    between atoms: N_13  and  C_14
REMARK   14  A    between atoms: C_18  and  O_19
REMARK   15  A    between atoms: C_21  and  O_22
REMARK                            x       y       z     vdW  Elec       q    Type
REMARK                         _______ _______ _______ _____ _____    ______ ____
ROOT
ATOM      1  N   UNL     1       5.617   3.886  18.424  0.00  0.00    +0.000 N 
ATOM      2  H   UNL     1       5.627   3.776  17.409  0.00  0.00    +0.000 HD
ENDROOT
BRANCH   1   3
ATOM      3  C   UNL     1       4.306   3.719  18.909  0.00  0.00    +0.000 A 
ATOM      4  C   UNL     1       4.068   2.746  19.888  0.00  0.00    +0.000 A 
ATOM      5  N   UNL     1       5.117   1.877  20.252  0.00  0.00    +0.000 N 
ATOM      6  N   UNL     1       2.887   2.549  20.497  0.00  0.00    +0.000 NA
ATOM      7  C   UNL     1       1.921   3.383  20.117  0.00  0.00    +0.000 A 
ATOM      8  N   UNL     1       1.980   4.357  19.214  0.00  0.00    +0.000 NA
ATOM      9  C   UNL     1       3.184   4.498  18.647  0.00  0.00    +0.000 A 
ATOM     10  H   UNL     1       5.945   2.430  20.461  0.00  0.00    +0.000 HD
ATOM     11  H   UNL     1       4.805   1.320  21.040  0.00  0.00    +0.000 HD
BRANCH   7  12
ATOM     12  O   UNL     1       0.737   3.206  20.760  0.00  0.00    +0.000 OA
ATOM     13  H   UNL     1       0.136   3.428  20.031  0.00  0.00    +0.000 HD
ENDBRANCH   7  12
BRANCH   9  14
ATOM     14  O   UNL     1       3.177   5.495  17.723  0.00  0.00    +0.000 OA
ATOM     15  H   UNL     1       2.515   6.090  18.120  0.00  0.00    +0.000 HD
ENDBRANCH   9  14
ENDBRANCH   1   3
BRANCH   1  16
ATOM     16  C   UNL     1       6.405   4.996  18.928  0.00  0.00    +0.000 C 
BRANCH  16  17
ATOM     17  C   UNL     1       6.454   6.125  17.898  0.00  0.00    +0.000 C 
BRANCH  17  18
ATOM     18  C   UNL     1       7.147   5.685  16.606  0.00  0.00    +0.000 C 
BRANCH  18  19
ATOM     19  C   UNL     1       6.400   4.549  15.909  0.00  0.00    +0.000 C 
BRANCH  19  20
ATOM     20  C   UNL     1       6.703   4.493  14.419  0.00  0.00    +0.000 C 
BRANCH  20  21
ATOM     21  C   UNL     1       5.508   3.910  13.673  0.00  0.00    +0.000 C 
BRANCH  21  22
ATOM     22  C   UNL     1       5.821   3.750  12.193  0.00  0.00    +0.000 C 
BRANCH  22  23
ATOM     23  C   UNL     1       5.265   2.431  11.665  0.00  0.00    +0.000 C 
BRANCH  23  24
ATOM     24  C   UNL     1       3.870   2.634  11.083  0.00  0.00    +0.000 C 
BRANCH  24  25
ATOM     25  C   UNL     1       3.722   4.035  10.499  0.00  0.00    +0.000 C 
BRANCH  25  27
ATOM     26  C   UNL     1       2.037   5.185   9.040  0.00  0.00    +0.000 C 
ATOM     27  C   UNL     1       2.970   3.998   9.171  0.00  0.00    +0.000 C 
ENDBRANCH  25  27
ENDBRANCH  24  25
ENDBRANCH  23  24
ENDBRANCH  22  23
ENDBRANCH  21  22
ENDBRANCH  20  21
ENDBRANCH  19  20
ENDBRANCH  18  19
ENDBRANCH  17  18
ENDBRANCH  16  17
ENDBRANCH   1  16
TORSDOF 14
ENDMDL
MODEL 7
REMARK VINA RESULT:      -6.0      3.249      6.493
REMARK  Name = 
REMARK  15 active torsions:
REMARK  status: ('A' for Active; 'I' for Inactive)
REMARK    1  A    between atoms: C_1  and  C_2
REMARK    2  A    between atoms: C_2  and  C_3
REMARK    3  A    between atoms: C_3  and  C_4
REMARK    4  A    between atoms: C_4  and  C_5
REMARK    5  A    between atoms: C_5  and  C_6
REMARK    6  A    between atoms: C_6  and  C_7
REMARK    7  A    between atoms: C_7  and  C_8
REMARK    8  A    between atoms: C_8  and  C_9
REMARK    9  A    between atoms: C_9  and  C_10
REMARK   10  A    between atoms: C_10  and  C_11
REMARK   11  A    between atoms: C_11  and  C_12
REMARK   12  A    between atoms: C_12  and  N_13
REMARK   13  A    between atoms: N_13  and  C_14
REMARK   14  A    between atoms: C_18  and  O_19
REMARK   15  A    between atoms: C_21  and  O_22
REMARK                            x       y       z     vdW  Elec       q    Type
REMARK                         _______ _______ _______ _____ _____    ______ ____
ROOT
ATOM      1  N   UNL     1       4.022   4.546  17.207  0.00  0.00    +0.000 N 
ATOM      2  H   UNL     1       4.648   5.239  17.617  0.00  0.00    +0.000 HD
ENDROOT
BRANCH   1   3
ATOM      3  C   UNL     1       3.251   3.942  18.218  0.00  0.00    +0.000 A 
ATOM      4  C   UNL     1       3.899   3.465  19.366  0.00  0.00    +0.000 A 
ATOM      5  N   UNL     1       5.308   3.482  19.407  0.00  0.00    +0.000 N 
ATOM      6  N   UNL     1       3.273   2.954  20.438  0.00  0.00    +0.000 NA
ATOM      7  C   UNL     1       1.944   2.947  20.354  0.00  0.00    +0.000 A 
ATOM      8  N   UNL     1       1.179   3.364  19.349  0.00  0.00    +0.000 NA
ATOM      9  C   UNL     1       1.867   3.860  18.314  0.00  0.00    +0.000 A 
ATOM     10  H   UNL     1       5.635   4.409  19.145  0.00  0.00    +0.000 HD
ATOM     11  H   UNL     1       5.598   3.209  20.339  0.00  0.00    +0.000 HD
BRANCH   7  12
ATOM     12  O   UNL     1       1.310   2.464  21.455  0.00  0.00    +0.000 OA
ATOM     13  H   UNL     1       0.394   2.539  21.145  0.00  0.00    +0.000 HD
ENDBRANCH   7  12
BRANCH   9  14
ATOM     14  O   UNL     1       1.032   4.252  17.315  0.00  0.00    +0.000 OA
ATOM     15  H   UNL     1       1.661   4.285  16.571  0.00  0.00    +0.000 HD
ENDBRANCH   9  14
ENDBRANCH   1   3
BRANCH   1  16
ATOM     16  C   UNL     1       4.627   3.696  16.197  0.00  0.00    +0.000 C 
BRANCH  16  17
ATOM     17  C   UNL     1       5.313   4.547  15.128  0.00  0.00    +0.000 C 
BRANCH  17  18
ATOM     18  C   UNL     1       6.838   4.483  15.244  0.00  0.00    +0.000 C 
BRANCH  18  19
ATOM     19  C   UNL     1       7.318   4.719  16.675  0.00  0.00    +0.000 C 
BRANCH  19  20
ATOM     20  C   UNL     1       7.254   6.187  17.067  0.00  0.00    +0.000 C 
BRANCH  20  21
ATOM     21  C   UNL     1       7.721   6.354  18.509  0.00  0.00    +0.000 C 
BRANCH  21  22
ATOM     22  C   UNL     1       8.381   7.711  18.709  0.00  0.00    +0.000 C 
BRANCH  22  23
ATOM     23  C   UNL     1       7.873   8.712  17.676  0.00  0.00    +0.000 C 
BRANCH  23  24
ATOM     24  C   UNL     1       8.427  10.104  17.963  0.00  0.00    +0.000 C 
BRANCH  24  25
ATOM     25  C   UNL     1       9.330  10.088  19.192  0.00  0.00    +0.000 C 
BRANCH  25  27
ATOM     26  C   UNL     1      10.551  11.737  20.634  0.00  0.00    +0.000 C 
ATOM     27  C   UNL     1      10.248  11.308  19.212  0.00  0.00    +0.000 C 
ENDBRANCH  25  27
ENDBRANCH  24  25
ENDBRANCH  23  24
ENDBRANCH  22  23
ENDBRANCH  21  22
ENDBRANCH  20  21
ENDBRANCH  19  20
ENDBRANCH  18  19
ENDBRANCH  17  18
ENDBRANCH  16  17
ENDBRANCH   1  16
TORSDOF 14
ENDMDL
MODEL 8
REMARK VINA RESULT:      -5.9      1.582      2.176
REMARK  Name = 
REMARK  15 active torsions:
REMARK  status: ('A' for Active; 'I' for Inactive)
REMARK    1  A    between atoms: C_1  and  C_2
REMARK    2  A    between atoms: C_2  and  C_3
REMARK    3  A    between atoms: C_3  and  C_4
REMARK    4  A    between atoms: C_4  and  C_5
REMARK    5  A    between atoms: C_5  and  C_6
REMARK    6  A    between atoms: C_6  and  C_7
REMARK    7  A    between atoms: C_7  and  C_8
REMARK    8  A    between atoms: C_8  and  C_9
REMARK    9  A    between atoms: C_9  and  C_10
REMARK   10  A    between atoms: C_10  and  C_11
REMARK   11  A    between atoms: C_11  and  C_12
REMARK   12  A    between atoms: C_12  and  N_13
REMARK   13  A    between atoms: N_13  and  C_14
REMARK   14  A    between atoms: C_18  and  O_19
REMARK   15  A    between atoms: C_21  and  O_22
REMARK                            x       y       z     vdW  Elec       q    Type
REMARK                         _______ _______ _______ _____ _____    ______ ____
ROOT
ATOM      1  N   UNL     1       6.642   4.340  17.724  0.00  0.00    +0.000 N 
ATOM      2  H   UNL     1       7.402   3.755  18.074  0.00  0.00    +0.000 HD
ENDROOT
BRANCH   1   3
ATOM      3  C   UNL     1       7.018   5.695  17.782  0.00  0.00    +0.000 A 
ATOM      4  C   UNL     1       7.856   6.119  18.822  0.00  0.00    +0.000 A 
ATOM      5  N   UNL     1       8.180   5.207  19.848  0.00  0.00    +0.000 N 
ATOM      6  N   UNL     1       8.360   7.358  18.940  0.00  0.00    +0.000 NA
ATOM      7  C   UNL     1       8.022   8.190  17.957  0.00  0.00    +0.000 A 
ATOM      8  N   UNL     1       7.248   7.950  16.903  0.00  0.00    +0.000 NA
ATOM      9  C   UNL     1       6.780   6.697  16.848  0.00  0.00    +0.000 A 
ATOM     10  H   UNL     1       8.506   4.339  19.427  0.00  0.00    +0.000 HD
ATOM     11  H   UNL     1       8.873   5.641  20.447  0.00  0.00    +0.000 HD
BRANCH   7  12
ATOM     12  O   UNL     1       8.561   9.433  18.059  0.00  0.00    +0.000 OA
ATOM     13  H   UNL     1       9.133   9.412  17.275  0.00  0.00    +0.000 HD
ENDBRANCH   7  12
BRANCH   9  14
ATOM     14  O   UNL     1       5.984   6.519  15.760  0.00  0.00    +0.000 OA
ATOM     15  H   UNL     1       5.107   6.596  16.176  0.00  0.00    +0.000 HD
ENDBRANCH   9  14
ENDBRANCH   1   3
BRANCH   1  16
ATOM     16  C   UNL     1       5.319   3.968  18.190  0.00  0.00    +0.000 C 
BRANCH  16  17
ATOM     17  C   UNL     1       4.309   4.051  17.045  0.00  0.00    +0.000 C 
BRANCH  17  18
ATOM     18  C   UNL     1       2.941   3.500  17.455  0.00  0.00    +0.000 C 
BRANCH  18  19
ATOM     19  C   UNL     1       2.973   1.991  17.690  0.00  0.00    +0.000 C 
BRANCH  19  20
ATOM     20  C   UNL     1       2.320   1.603  19.009  0.00  0.00    +0.000 C 
BRANCH  20  21
ATOM     21  C   UNL     1       2.550   2.704  20.039  0.00  0.00    +0.000 C 
BRANCH  21  22
ATOM     22  C   UNL     1       1.255   3.047  20.760  0.00  0.00    +0.000 C 
BRANCH  22  23
ATOM     23  C   UNL     1       0.927   4.528  20.600  0.00  0.00    +0.000 C 
BRANCH  23  24
ATOM     24  C   UNL     1       2.207   5.350  20.481  0.00  0.00    +0.000 C 
BRANCH  24  25
ATOM     25  C   UNL     1       2.019   6.516  19.516  0.00  0.00    +0.000 C 
BRANCH  25  27
ATOM     26  C   UNL     1       3.140   7.756  17.646  0.00  0.00    +0.000 C 
ATOM     27  C   UNL     1       3.352   6.946  18.911  0.00  0.00    +0.000 C 
ENDBRANCH  25  27
ENDBRANCH  24  25
ENDBRANCH  23  24
ENDBRANCH  22  23
ENDBRANCH  21  22
ENDBRANCH  20  21
ENDBRANCH  19  20
ENDBRANCH  18  19
ENDBRANCH  17  18
ENDBRANCH  16  17
ENDBRANCH   1  16
TORSDOF 14
ENDMDL
MODEL 9
REMARK VINA RESULT:      -5.9      3.805      7.106
REMARK  Name = 
REMARK  15 active torsions:
REMARK  status: ('A' for Active; 'I' for Inactive)
REMARK    1  A    between atoms: C_1  and  C_2
REMARK    2  A    between atoms: C_2  and  C_3
REMARK    3  A    between atoms: C_3  and  C_4
REMARK    4  A    between atoms: C_4  and  C_5
REMARK    5  A    between atoms: C_5  and  C_6
REMARK    6  A    between atoms: C_6  and  C_7
REMARK    7  A    between atoms: C_7  and  C_8
REMARK    8  A    between atoms: C_8  and  C_9
REMARK    9  A    between atoms: C_9  and  C_10
REMARK   10  A    between atoms: C_10  and  C_11
REMARK   11  A    between atoms: C_11  and  C_12
REMARK   12  A    between atoms: C_12  and  N_13
REMARK   13  A    between atoms: N_13  and  C_14
REMARK   14  A    between atoms: C_18  and  O_19
REMARK   15  A    between atoms: C_21  and  O_22
REMARK                            x       y       z     vdW  Elec       q    Type
REMARK                         _______ _______ _______ _____ _____    ______ ____
ROOT
ATOM      1  N   UNL     1       5.322   3.397  19.299  0.00  0.00    +0.000 N 
ATOM      2  H   UNL     1       5.703   2.484  19.047  0.00  0.00    +0.000 HD
ENDROOT
BRANCH   1   3
ATOM      3  C   UNL     1       3.916   3.337  19.324  0.00  0.00    +0.000 A 
ATOM      4  C   UNL     1       3.287   2.131  18.988  0.00  0.00    +0.000 A 
ATOM      5  N   UNL     1       4.074   1.066  18.504  0.00  0.00    +0.000 N 
ATOM      6  N   UNL     1       1.963   1.915  19.060  0.00  0.00    +0.000 NA
ATOM      7  C   UNL     1       1.256   2.949  19.511  0.00  0.00    +0.000 A 
ATOM      8  N   UNL     1       1.693   4.151  19.877  0.00  0.00    +0.000 NA
ATOM      9  C   UNL     1       3.020   4.297  19.780  0.00  0.00    +0.000 A 
ATOM     10  H   UNL     1       4.857   0.921  19.136  0.00  0.00    +0.000 HD
ATOM     11  H   UNL     1       3.479   0.250  18.417  0.00  0.00    +0.000 HD
BRANCH   7  12
ATOM     12  O   UNL     1      -0.079   2.717  19.618  0.00  0.00    +0.000 OA
ATOM     13  H   UNL     1      -0.154   2.721  20.586  0.00  0.00    +0.000 HD
ENDBRANCH   7  12
BRANCH   9  14
ATOM     14  O   UNL     1       3.403   5.548  20.151  0.00  0.00    +0.000 OA
ATOM     15  H   UNL     1       4.364   5.416  20.229  0.00  0.00    +0.000 HD
ENDBRANCH   9  14
ENDBRANCH   1   3
BRANCH   1  16
ATOM     16  C   UNL     1       5.955   4.527  18.644  0.00  0.00    +0.000 C 
BRANCH  16  17
ATOM     17  C   UNL     1       5.636   4.521  17.148  0.00  0.00    +0.000 C 
BRANCH  17  18
ATOM     18  C   UNL     1       6.002   5.851  16.485  0.00  0.00    +0.000 C 
BRANCH  18  19
ATOM     19  C   UNL     1       6.283   6.950  17.509  0.00  0.00    +0.000 C 
BRANCH  19  20
ATOM     20  C   UNL     1       7.699   7.492  17.393  0.00  0.00    +0.000 C 
BRANCH  20  21
ATOM     21  C   UNL     1       7.681   9.010  17.543  0.00  0.00    +0.000 C 
BRANCH  21  22
ATOM     22  C   UNL     1       8.659   9.458  18.619  0.00  0.00    +0.000 C 
BRANCH  22  23
ATOM     23  C   UNL     1       9.289  10.796  18.249  0.00  0.00    +0.000 C 
BRANCH  23  24
ATOM     24  C   UNL     1      10.334  11.200  19.285  0.00  0.00    +0.000 C 
BRANCH  24  25
ATOM     25  C   UNL     1       9.753  11.151  20.694  0.00  0.00    +0.000 C 
BRANCH  25  27
ATOM     26  C   UNL     1       8.916  12.530  22.614  0.00  0.00    +0.000 C 
ATOM     27  C   UNL     1       9.303  12.537  21.148  0.00  0.00    +0.000 C 
ENDBRANCH  25  27
ENDBRANCH  24  25
ENDBRANCH  23  24
ENDBRANCH  22  23
ENDBRANCH  21  22
ENDBRANCH  20  21
ENDBRANCH  19  20
ENDBRANCH  18  19
ENDBRANCH  17  18
ENDBRANCH  16  17
ENDBRANCH   1  16
TORSDOF 14
ENDMDL
