MODEL 1
REMARK VINA RESULT:      -7.7      0.000      0.000
REMARK  Name = 
REMARK  5 active torsions:
REMARK  status: ('A' for Active; 'I' for Inactive)
REMARK    1  A    between atoms: C_1  and  C_2
REMARK    2  A    between atoms: C_3  and  C_4
REMARK    3  A    between atoms: N_9  and  C_10
REMARK    4  A    between atoms: C_10  and  C_11
REMARK    5  A    between atoms: C_10  and  C_12
REMARK                            x       y       z     vdW  Elec       q    Type
REMARK                         _______ _______ _______ _____ _____    ______ ____
ROOT
ATOM      1  C   UNL     1       0.857   7.429  21.403  0.00  0.00    +0.000 C 
ATOM      2  C   UNL     1       1.622   7.749  20.157  0.00  0.00    +0.000 A 
ATOM      3  C   UNL     1       1.576   8.948  19.434  0.00  0.00    +0.000 A 
ATOM      4  S   UNL     1       2.327   8.747  17.897  0.00  0.00    +0.000 S 
ATOM      5  C   UNL     1       3.030   7.271  18.346  0.00  0.00    +0.000 A 
ATOM      6  C   UNL     1       2.548   6.839  19.558  0.00  0.00    +0.000 A 
ATOM      7  N   UNL     1       2.948   5.614  20.063  0.00  0.00    +0.000 N 
ATOM      8  C   UNL     1       3.799   4.764  19.386  0.00  0.00    +0.000 A 
ATOM      9  O   UNL     1       4.131   3.686  19.868  0.00  0.00    +0.000 OA
ATOM     10  C   UNL     1       4.324   5.216  18.059  0.00  0.00    +0.000 A 
ATOM     11  C   UNL     1       5.158   4.364  17.330  0.00  0.00    +0.000 A 
ATOM     12  C   UNL     1       5.654   4.765  16.095  0.00  0.00    +0.000 A 
ATOM     13  C   UNL     1       5.328   6.027  15.595  0.00  0.00    +0.000 A 
ATOM     14  C   UNL     1       4.492   6.884  16.312  0.00  0.00    +0.000 A 
ATOM     15  C   UNL     1       3.963   6.482  17.544  0.00  0.00    +0.000 A 
ATOM     16  H   UNL     1       2.602   5.295  20.959  0.00  0.00    +0.000 HD
ENDROOT
BRANCH   3  17
ATOM     17  C   UNL     1       0.829  10.166  19.787  0.00  0.00    +0.000 C 
ATOM     18  O   UNL     1       1.332  11.003  20.542  0.00  0.00    +0.000 OA
ATOM     19  N   UNL     1      -0.425  10.441  19.211  0.00  0.00    +0.000 N 
ATOM     20  C   UNL     1      -1.061  11.733  19.503  0.00  0.00    +0.000 C 
ATOM     21  C   UNL     1      -1.656  12.370  18.228  0.00  0.00    +0.000 C 
ATOM     22  N   UNL     1      -2.606  11.507  17.485  0.00  0.00    +0.000 NA
ATOM     23  C   UNL     1      -1.910  10.234  17.200  0.00  0.00    +0.000 C 
ATOM     24  C   UNL     1      -1.267   9.537  18.416  0.00  0.00    +0.000 C 
BRANCH  22  25
ATOM     25  C   UNL     1      -3.924  11.351  18.145  0.00  0.00    +0.000 C 
ATOM     26  C   UNL     1      -4.100  12.377  19.279  0.00  0.00    +0.000 C 
ATOM     27  C   UNL     1      -5.095  11.564  17.167  0.00  0.00    +0.000 C 
ENDBRANCH  22  25
ENDBRANCH   3  17
TORSDOF 2
ENDMDL
MODEL 2
REMARK VINA RESULT:      -7.7      1.620      2.711
REMARK  Name = 
REMARK  5 active torsions:
REMARK  status: ('A' for Active; 'I' for Inactive)
REMARK    1  A    between atoms: C_1  and  C_2
REMARK    2  A    between atoms: C_3  and  C_4
REMARK    3  A    between atoms: N_9  and  C_10
REMARK    4  A    between atoms: C_10  and  C_11
REMARK    5  A    between atoms: C_10  and  C_12
REMARK                            x       y       z     vdW  Elec       q    Type
REMARK                         _______ _______ _______ _____ _____    ______ ____
ROOT
ATOM      1  C   UNL     1       2.298   9.699  17.880  0.00  0.00    +0.000 C 
ATOM      2  C   UNL     1       1.975   8.654  18.902  0.00  0.00    +0.000 A 
ATOM      3  C   UNL     1       1.190   8.823  20.049  0.00  0.00    +0.000 A 
ATOM      4  S   UNL     1       1.383   7.478  21.108  0.00  0.00    +0.000 S 
ATOM      5  C   UNL     1       2.143   6.546  19.912  0.00  0.00    +0.000 A 
ATOM      6  C   UNL     1       2.428   7.301  18.800  0.00  0.00    +0.000 A 
ATOM      7  N   UNL     1       3.115   6.737  17.740  0.00  0.00    +0.000 N 
ATOM      8  C   UNL     1       3.575   5.436  17.751  0.00  0.00    +0.000 A 
ATOM      9  O   UNL     1       4.182   4.972  16.790  0.00  0.00    +0.000 OA
ATOM     10  C   UNL     1       3.284   4.604  18.960  0.00  0.00    +0.000 A 
ATOM     11  C   UNL     1       3.767   3.294  19.020  0.00  0.00    +0.000 A 
ATOM     12  C   UNL     1       3.507   2.507  20.136  0.00  0.00    +0.000 A 
ATOM     13  C   UNL     1       2.751   3.025  21.188  0.00  0.00    +0.000 A 
ATOM     14  C   UNL     1       2.267   4.333  21.141  0.00  0.00    +0.000 A 
ATOM     15  C   UNL     1       2.544   5.147  20.036  0.00  0.00    +0.000 A 
ATOM     16  H   UNL     1       3.321   7.287  16.915  0.00  0.00    +0.000 HD
ENDROOT
BRANCH   3  17
ATOM     17  C   UNL     1       0.458  10.035  20.449  0.00  0.00    +0.000 C 
ATOM     18  O   UNL     1       0.907  10.765  21.337  0.00  0.00    +0.000 OA
ATOM     19  N   UNL     1      -0.713  10.431  19.776  0.00  0.00    +0.000 N 
ATOM     20  C   UNL     1      -1.325  11.718  20.134  0.00  0.00    +0.000 C 
ATOM     21  C   UNL     1      -1.749  12.510  18.878  0.00  0.00    +0.000 C 
ATOM     22  N   UNL     1      -2.645  11.777  17.952  0.00  0.00    +0.000 NA
ATOM     23  C   UNL     1      -1.974  10.506  17.609  0.00  0.00    +0.000 C 
ATOM     24  C   UNL     1      -1.497   9.657  18.805  0.00  0.00    +0.000 C 
BRANCH  22  25
ATOM     25  C   UNL     1      -4.033  11.623  18.449  0.00  0.00    +0.000 C 
ATOM     26  C   UNL     1      -4.358  12.679  19.520  0.00  0.00    +0.000 C 
ATOM     27  C   UNL     1      -5.077  11.792  17.328  0.00  0.00    +0.000 C 
ENDBRANCH  22  25
ENDBRANCH   3  17
TORSDOF 2
ENDMDL
MODEL 3
REMARK VINA RESULT:      -7.4      1.990      2.530
REMARK  Name = 
REMARK  5 active torsions:
REMARK  status: ('A' for Active; 'I' for Inactive)
REMARK    1  A    between atoms: C_1  and  C_2
REMARK    2  A    between atoms: C_3  and  C_4
REMARK    3  A    between atoms: N_9  and  C_10
REMARK    4  A    between atoms: C_10  and  C_11
REMARK    5  A    between atoms: C_10  and  C_12
REMARK                            x       y       z     vdW  Elec       q    Type
REMARK                         _______ _______ _______ _____ _____    ______ ____
ROOT
ATOM      1  C   UNL     1       1.108   4.875  20.694  0.00  0.00    +0.000 C 
ATOM      2  C   UNL     1       2.029   5.637  19.793  0.00  0.00    +0.000 A 
ATOM      3  C   UNL     1       2.216   7.025  19.772  0.00  0.00    +0.000 A 
ATOM      4  S   UNL     1       3.080   7.489  18.356  0.00  0.00    +0.000 S 
ATOM      5  C   UNL     1       3.531   5.891  18.013  0.00  0.00    +0.000 A 
ATOM      6  C   UNL     1       2.878   5.003  18.833  0.00  0.00    +0.000 A 
ATOM      7  N   UNL     1       3.057   3.642  18.659  0.00  0.00    +0.000 N 
ATOM      8  C   UNL     1       3.848   3.110  17.661  0.00  0.00    +0.000 A 
ATOM      9  O   UNL     1       3.982   1.896  17.540  0.00  0.00    +0.000 OA
ATOM     10  C   UNL     1       4.557   4.064  16.751  0.00  0.00    +0.000 A 
ATOM     11  C   UNL     1       5.336   3.559  15.707  0.00  0.00    +0.000 A 
ATOM     12  C   UNL     1       6.000   4.431  14.851  0.00  0.00    +0.000 A 
ATOM     13  C   UNL     1       5.898   5.808  15.050  0.00  0.00    +0.000 A 
ATOM     14  C   UNL     1       5.120   6.324  16.087  0.00  0.00    +0.000 A 
ATOM     15  C   UNL     1       4.423   5.459  16.939  0.00  0.00    +0.000 A 
ATOM     16  H   UNL     1       2.584   2.984  19.266  0.00  0.00    +0.000 HD
ENDROOT
BRANCH   3  17
ATOM     17  C   UNL     1       1.609   8.013  20.678  0.00  0.00    +0.000 C 
ATOM     18  O   UNL     1       1.660   7.846  21.900  0.00  0.00    +0.000 OA
ATOM     19  N   UNL     1       1.040   9.200  20.181  0.00  0.00    +0.000 N 
ATOM     20  C   UNL     1       0.568  10.206  21.142  0.00  0.00    +0.000 C 
ATOM     21  C   UNL     1       0.995  11.630  20.724  0.00  0.00    +0.000 C 
ATOM     22  N   UNL     1       0.588  12.026  19.354  0.00  0.00    +0.000 NA
ATOM     23  C   UNL     1       1.104  10.995  18.430  0.00  0.00    +0.000 C 
ATOM     24  C   UNL     1       0.743   9.538  18.783  0.00  0.00    +0.000 C 
BRANCH  22  25
ATOM     25  C   UNL     1      -0.861  12.308  19.212  0.00  0.00    +0.000 C 
ATOM     26  C   UNL     1      -1.211  13.700  19.765  0.00  0.00    +0.000 C 
ATOM     27  C   UNL     1      -1.318  12.286  17.741  0.00  0.00    +0.000 C 
ENDBRANCH  22  25
ENDBRANCH   3  17
TORSDOF 2
ENDMDL
MODEL 4
REMARK VINA RESULT:      -7.2      2.916      3.919
REMARK  Name = 
REMARK  5 active torsions:
REMARK  status: ('A' for Active; 'I' for Inactive)
REMARK    1  A    between atoms: C_1  and  C_2
REMARK    2  A    between atoms: C_3  and  C_4
REMARK    3  A    between atoms: N_9  and  C_10
REMARK    4  A    between atoms: C_10  and  C_11
REMARK    5  A    between atoms: C_10  and  C_12
REMARK                            x       y       z     vdW  Elec       q    Type
REMARK                         _______ _______ _______ _____ _____    ______ ____
ROOT
ATOM      1  C   UNL     1      -0.268   8.977  21.402  0.00  0.00    +0.000 C 
ATOM      2  C   UNL     1       0.666   8.976  20.231  0.00  0.00    +0.000 A 
ATOM      3  C   UNL     1       0.816   9.997  19.284  0.00  0.00    +0.000 A 
ATOM      4  S   UNL     1       1.720   9.427  17.933  0.00  0.00    +0.000 S 
ATOM      5  C   UNL     1       2.226   8.035  18.758  0.00  0.00    +0.000 A 
ATOM      6  C   UNL     1       1.566   7.900  19.956  0.00  0.00    +0.000 A 
ATOM      7  N   UNL     1       1.789   6.785  20.745  0.00  0.00    +0.000 N 
ATOM      8  C   UNL     1       2.630   5.757  20.371  0.00  0.00    +0.000 A 
ATOM      9  O   UNL     1       2.801   4.784  21.099  0.00  0.00    +0.000 OA
ATOM     10  C   UNL     1       3.347   5.883  19.063  0.00  0.00    +0.000 A 
ATOM     11  C   UNL     1       4.178   4.844  18.638  0.00  0.00    +0.000 A 
ATOM     12  C   UNL     1       4.850   4.942  17.425  0.00  0.00    +0.000 A 
ATOM     13  C   UNL     1       4.704   6.090  16.644  0.00  0.00    +0.000 A 
ATOM     14  C   UNL     1       3.874   7.133  17.057  0.00  0.00    +0.000 A 
ATOM     15  C   UNL     1       3.169   7.035  18.262  0.00  0.00    +0.000 A 
ATOM     16  H   UNL     1       1.311   6.685  21.632  0.00  0.00    +0.000 HD
ENDROOT
BRANCH   3  17
ATOM     17  C   UNL     1       0.149  11.308  19.284  0.00  0.00    +0.000 C 
ATOM     18  O   UNL     1      -1.060  11.388  19.518  0.00  0.00    +0.000 OA
ATOM     19  N   UNL     1       0.883  12.495  19.103  0.00  0.00    +0.000 N 
ATOM     20  C   UNL     1       0.182  13.779  19.243  0.00  0.00    +0.000 C 
ATOM     21  C   UNL     1       1.011  14.787  20.069  0.00  0.00    +0.000 C 
ATOM     22  N   UNL     1       2.385  15.026  19.565  0.00  0.00    +0.000 NA
ATOM     23  C   UNL     1       3.049  13.709  19.464  0.00  0.00    +0.000 C 
ATOM     24  C   UNL     1       2.280  12.632  18.672  0.00  0.00    +0.000 C 
BRANCH  22  25
ATOM     25  C   UNL     1       2.442  15.838  18.327  0.00  0.00    +0.000 C 
ATOM     26  C   UNL     1       1.900  17.258  18.570  0.00  0.00    +0.000 C 
ATOM     27  C   UNL     1       3.880  15.997  17.798  0.00  0.00    +0.000 C 
ENDBRANCH  22  25
ENDBRANCH   3  17
TORSDOF 2
ENDMDL
MODEL 5
REMARK VINA RESULT:      -6.6      3.170      5.435
REMARK  Name = 
REMARK  5 active torsions:
REMARK  status: ('A' for Active; 'I' for Inactive)
REMARK    1  A    between atoms: C_1  and  C_2
REMARK    2  A    between atoms: C_3  and  C_4
REMARK    3  A    between atoms: N_9  and  C_10
REMARK    4  A    between atoms: C_10  and  C_11
REMARK    5  A    between atoms: C_10  and  C_12
REMARK                            x       y       z     vdW  Elec       q    Type
REMARK                         _______ _______ _______ _____ _____    ______ ____
ROOT
ATOM      1  C   UNL     1       6.599   6.537  18.298  0.00  0.00    +0.000 C 
ATOM      2  C   UNL     1       5.755   5.778  17.323  0.00  0.00    +0.000 A 
ATOM      3  C   UNL     1       4.448   5.319  17.531  0.00  0.00    +0.000 A 
ATOM      4  S   UNL     1       4.005   4.200  16.299  0.00  0.00    +0.000 S 
ATOM      5  C   UNL     1       5.328   4.626  15.328  0.00  0.00    +0.000 A 
ATOM      6  C   UNL     1       6.196   5.448  16.004  0.00  0.00    +0.000 A 
ATOM      7  N   UNL     1       7.377   5.848  15.403  0.00  0.00    +0.000 N 
ATOM      8  C   UNL     1       7.759   5.429  14.145  0.00  0.00    +0.000 A 
ATOM      9  O   UNL     1       8.815   5.806  13.647  0.00  0.00    +0.000 OA
ATOM     10  C   UNL     1       6.829   4.523  13.400  0.00  0.00    +0.000 A 
ATOM     11  C   UNL     1       7.202   4.050  12.139  0.00  0.00    +0.000 A 
ATOM     12  C   UNL     1       6.351   3.206  11.433  0.00  0.00    +0.000 A 
ATOM     13  C   UNL     1       5.120   2.848  11.983  0.00  0.00    +0.000 A 
ATOM     14  C   UNL     1       4.739   3.311  13.243  0.00  0.00    +0.000 A 
ATOM     15  C   UNL     1       5.597   4.138  13.977  0.00  0.00    +0.000 A 
ATOM     16  H   UNL     1       8.017   6.460  15.894  0.00  0.00    +0.000 HD
ENDROOT
BRANCH   3  17
ATOM     17  C   UNL     1       3.606   5.553  18.716  0.00  0.00    +0.000 C 
ATOM     18  O   UNL     1       3.712   4.821  19.704  0.00  0.00    +0.000 OA
ATOM     19  N   UNL     1       2.734   6.655  18.781  0.00  0.00    +0.000 N 
ATOM     20  C   UNL     1       2.020   6.908  20.039  0.00  0.00    +0.000 C 
ATOM     21  C   UNL     1       2.044   8.408  20.410  0.00  0.00    +0.000 C 
ATOM     22  N   UNL     1       1.532   9.318  19.358  0.00  0.00    +0.000 NA
ATOM     23  C   UNL     1       2.297   9.036  18.125  0.00  0.00    +0.000 C 
ATOM     24  C   UNL     1       2.343   7.558  17.690  0.00  0.00    +0.000 C 
BRANCH  22  25
ATOM     25  C   UNL     1       0.059   9.279  19.189  0.00  0.00    +0.000 C 
ATOM     26  C   UNL     1      -0.652   9.968  20.367  0.00  0.00    +0.000 C 
ATOM     27  C   UNL     1      -0.401  10.001  17.908  0.00  0.00    +0.000 C 
ENDBRANCH  22  25
ENDBRANCH   3  17
TORSDOF 2
ENDMDL
MODEL 6
REMARK VINA RESULT:      -6.5      3.184      4.728
REMARK  Name = 
REMARK  5 active torsions:
REMARK  status: ('A' for Active; 'I' for Inactive)
REMARK    1  A    between atoms: C_1  and  C_2
REMARK    2  A    between atoms: C_3  and  C_4
REMARK    3  A    between atoms: N_9  and  C_10
REMARK    4  A    between atoms: C_10  and  C_11
REMARK    5  A    between atoms: C_10  and  C_12
REMARK                            x       y       z     vdW  Elec       q    Type
REMARK                         _______ _______ _______ _____ _____    ______ ____
ROOT
ATOM      1  C   UNL     1       0.522  13.078  19.658  0.00  0.00    +0.000 C 
ATOM      2  C   UNL     1       0.410  11.761  20.360  0.00  0.00    +0.000 A 
ATOM      3  C   UNL     1      -0.214  11.523  21.592  0.00  0.00    +0.000 A 
ATOM      4  S   UNL     1       0.206   9.960  22.180  0.00  0.00    +0.000 S 
ATOM      5  C   UNL     1       0.844   9.481  20.684  0.00  0.00    +0.000 A 
ATOM      6  C   UNL     1       0.922  10.542  19.815  0.00  0.00    +0.000 A 
ATOM      7  N   UNL     1       1.486  10.369  18.563  0.00  0.00    +0.000 N 
ATOM      8  C   UNL     1       2.019   9.169  18.139  0.00  0.00    +0.000 A 
ATOM      9  O   UNL     1       2.510   9.055  17.020  0.00  0.00    +0.000 OA
ATOM     10  C   UNL     1       1.951   8.006  19.079  0.00  0.00    +0.000 A 
ATOM     11  C   UNL     1       2.514   6.786  18.696  0.00  0.00    +0.000 A 
ATOM     12  C   UNL     1       2.463   5.695  19.556  0.00  0.00    +0.000 A 
ATOM     13  C   UNL     1       1.833   5.820  20.795  0.00  0.00    +0.000 A 
ATOM     14  C   UNL     1       1.271   7.035  21.190  0.00  0.00    +0.000 A 
ATOM     15  C   UNL     1       1.340   8.149  20.346  0.00  0.00    +0.000 A 
ATOM     16  H   UNL     1       1.539  11.146  17.916  0.00  0.00    +0.000 HD
ENDROOT
BRANCH   3  17
ATOM     17  C   UNL     1      -0.953  12.496  22.411  0.00  0.00    +0.000 C 
ATOM     18  O   UNL     1      -0.390  13.073  23.346  0.00  0.00    +0.000 OA
ATOM     19  N   UNL     1      -2.279  12.851  22.098  0.00  0.00    +0.000 N 
ATOM     20  C   UNL     1      -2.917  13.923  22.873  0.00  0.00    +0.000 C 
ATOM     21  C   UNL     1      -3.689  14.899  21.958  0.00  0.00    +0.000 C 
ATOM     22  N   UNL     1      -4.694  14.261  21.073  0.00  0.00    +0.000 NA
ATOM     23  C   UNL     1      -3.995  13.209  20.304  0.00  0.00    +0.000 C 
ATOM     24  C   UNL     1      -3.181  12.201  21.139  0.00  0.00    +0.000 C 
BRANCH  22  25
ATOM     25  C   UNL     1      -5.913  13.798  21.779  0.00  0.00    +0.000 C 
ATOM     26  C   UNL     1      -6.579  14.952  22.548  0.00  0.00    +0.000 C 
ATOM     27  C   UNL     1      -6.972  13.240  20.809  0.00  0.00    +0.000 C 
ENDBRANCH  22  25
ENDBRANCH   3  17
TORSDOF 2
ENDMDL
MODEL 7
REMARK VINA RESULT:      -6.2      6.261      9.250
REMARK  Name = 
REMARK  5 active torsions:
REMARK  status: ('A' for Active; 'I' for Inactive)
REMARK    1  A    between atoms: C_1  and  C_2
REMARK    2  A    between atoms: C_3  and  C_4
REMARK    3  A    between atoms: N_9  and  C_10
REMARK    4  A    between atoms: C_10  and  C_11
REMARK    5  A    between atoms: C_10  and  C_12
REMARK                            x       y       z     vdW  Elec       q    Type
REMARK                         _______ _______ _______ _____ _____    ______ ____
ROOT
ATOM      1  C   UNL     1      -1.590  13.184  23.357  0.00  0.00    +0.000 C 
ATOM      2  C   UNL     1      -1.875  12.815  21.935  0.00  0.00    +0.000 A 
ATOM      3  C   UNL     1      -0.931  12.623  20.918  0.00  0.00    +0.000 A 
ATOM      4  S   UNL     1      -1.712  12.568  19.383  0.00  0.00    +0.000 S 
ATOM      5  C   UNL     1      -3.247  12.395  20.082  0.00  0.00    +0.000 A 
ATOM      6  C   UNL     1      -3.196  12.577  21.443  0.00  0.00    +0.000 A 
ATOM      7  N   UNL     1      -4.363  12.547  22.187  0.00  0.00    +0.000 N 
ATOM      8  C   UNL     1      -5.610  12.375  21.622  0.00  0.00    +0.000 A 
ATOM      9  O   UNL     1      -6.621  12.355  22.316  0.00  0.00    +0.000 OA
ATOM     10  C   UNL     1      -5.683  12.188  20.139  0.00  0.00    +0.000 A 
ATOM     11  C   UNL     1      -6.933  12.049  19.529  0.00  0.00    +0.000 A 
ATOM     12  C   UNL     1      -7.020  11.876  18.152  0.00  0.00    +0.000 A 
ATOM     13  C   UNL     1      -5.854  11.826  17.386  0.00  0.00    +0.000 A 
ATOM     14  C   UNL     1      -4.601  11.968  17.983  0.00  0.00    +0.000 A 
ATOM     15  C   UNL     1      -4.500  12.171  19.365  0.00  0.00    +0.000 A 
ATOM     16  H   UNL     1      -4.330  12.672  23.191  0.00  0.00    +0.000 HD
ENDROOT
BRANCH   3  17
ATOM     17  C   UNL     1       0.534  12.669  21.050  0.00  0.00    +0.000 C 
ATOM     18  O   UNL     1       1.162  11.643  21.325  0.00  0.00    +0.000 OA
ATOM     19  N   UNL     1       1.250  13.851  20.785  0.00  0.00    +0.000 N 
ATOM     20  C   UNL     1       2.718  13.799  20.807  0.00  0.00    +0.000 C 
ATOM     21  C   UNL     1       3.328  14.562  19.610  0.00  0.00    +0.000 C 
ATOM     22  N   UNL     1       2.884  15.970  19.478  0.00  0.00    +0.000 NA
ATOM     23  C   UNL     1       1.407  15.962  19.440  0.00  0.00    +0.000 C 
ATOM     24  C   UNL     1       0.712  15.203  20.588  0.00  0.00    +0.000 C 
BRANCH  22  25
ATOM     25  C   UNL     1       3.467  16.885  20.489  0.00  0.00    +0.000 C 
ATOM     26  C   UNL     1       4.902  17.290  20.109  0.00  0.00    +0.000 C 
ATOM     27  C   UNL     1       2.659  18.189  20.631  0.00  0.00    +0.000 C 
ENDBRANCH  22  25
ENDBRANCH   3  17
TORSDOF 2
ENDMDL
MODEL 8
REMARK VINA RESULT:      -6.1      7.646      8.315
REMARK  Name = 
REMARK  5 active torsions:
REMARK  status: ('A' for Active; 'I' for Inactive)
REMARK    1  A    between atoms: C_1  and  C_2
REMARK    2  A    between atoms: C_3  and  C_4
REMARK    3  A    between atoms: N_9  and  C_10
REMARK    4  A    between atoms: C_10  and  C_11
REMARK    5  A    between atoms: C_10  and  C_12
REMARK                            x       y       z     vdW  Elec       q    Type
REMARK                         _______ _______ _______ _____ _____    ______ ____
ROOT
ATOM      1  C   UNL     1       6.084  14.673  21.977  0.00  0.00    +0.000 C 
ATOM      2  C   UNL     1       6.812  14.846  20.681  0.00  0.00    +0.000 A 
ATOM      3  C   UNL     1       6.458  15.708  19.634  0.00  0.00    +0.000 A 
ATOM      4  S   UNL     1       7.354  15.321  18.215  0.00  0.00    +0.000 S 
ATOM      5  C   UNL     1       8.437  14.339  19.071  0.00  0.00    +0.000 A 
ATOM      6  C   UNL     1       8.016  14.144  20.365  0.00  0.00    +0.000 A 
ATOM      7  N   UNL     1       8.731  13.308  21.205  0.00  0.00    +0.000 N 
ATOM      8  C   UNL     1       9.852  12.613  20.798  0.00  0.00    +0.000 A 
ATOM      9  O   UNL     1      10.458  11.882  21.574  0.00  0.00    +0.000 OA
ATOM     10  C   UNL     1      10.316  12.806  19.388  0.00  0.00    +0.000 A 
ATOM     11  C   UNL     1      11.426  12.089  18.933  0.00  0.00    +0.000 A 
ATOM     12  C   UNL     1      11.872  12.254  17.626  0.00  0.00    +0.000 A 
ATOM     13  C   UNL     1      11.216  13.148  16.779  0.00  0.00    +0.000 A 
ATOM     14  C   UNL     1      10.104  13.866  17.222  0.00  0.00    +0.000 A 
ATOM     15  C   UNL     1       9.627  13.689  18.526  0.00  0.00    +0.000 A 
ATOM     16  H   UNL     1       8.429  13.167  22.161  0.00  0.00    +0.000 HD
ENDROOT
BRANCH   3  17
ATOM     17  C   UNL     1       5.348  16.675  19.621  0.00  0.00    +0.000 C 
ATOM     18  O   UNL     1       5.580  17.884  19.700  0.00  0.00    +0.000 OA
ATOM     19  N   UNL     1       4.020  16.252  19.434  0.00  0.00    +0.000 N 
ATOM     20  C   UNL     1       2.973  17.273  19.299  0.00  0.00    +0.000 C 
ATOM     21  C   UNL     1       1.996  16.934  18.151  0.00  0.00    +0.000 C 
ATOM     22  N   UNL     1       1.371  15.592  18.242  0.00  0.00    +0.000 NA
ATOM     23  C   UNL     1       2.465  14.605  18.354  0.00  0.00    +0.000 C 
ATOM     24  C   UNL     1       3.500  14.878  19.463  0.00  0.00    +0.000 C 
BRANCH  22  25
ATOM     25  C   UNL     1       0.333  15.480  19.294  0.00  0.00    +0.000 C 
ATOM     26  C   UNL     1      -0.735  16.576  19.139  0.00  0.00    +0.000 C 
ATOM     27  C   UNL     1      -0.407  14.129  19.243  0.00  0.00    +0.000 C 
ENDBRANCH  22  25
ENDBRANCH   3  17
TORSDOF 2
ENDMDL
MODEL 9
REMARK VINA RESULT:      -6.1      5.653      9.583
REMARK  Name = 
REMARK  5 active torsions:
REMARK  status: ('A' for Active; 'I' for Inactive)
REMARK    1  A    between atoms: C_1  and  C_2
REMARK    2  A    between atoms: C_3  and  C_4
REMARK    3  A    between atoms: N_9  and  C_10
REMARK    4  A    between atoms: C_10  and  C_11
REMARK    5  A    between atoms: C_10  and  C_12
REMARK                            x       y       z     vdW  Elec       q    Type
REMARK                         _______ _______ _______ _____ _____    ______ ____
ROOT
ATOM      1  C   UNL     1      -1.944  11.547  17.458  0.00  0.00    +0.000 C 
ATOM      2  C   UNL     1      -2.076  11.983  18.884  0.00  0.00    +0.000 A 
ATOM      3  C   UNL     1      -1.028  12.246  19.776  0.00  0.00    +0.000 A 
ATOM      4  S   UNL     1      -1.630  12.363  21.385  0.00  0.00    +0.000 S 
ATOM      5  C   UNL     1      -3.239  12.467  20.860  0.00  0.00    +0.000 A 
ATOM      6  C   UNL     1      -3.338  12.217  19.512  0.00  0.00    +0.000 A 
ATOM      7  N   UNL     1      -4.582  12.184  18.906  0.00  0.00    +0.000 N 
ATOM      8  C   UNL     1      -5.761  12.358  19.602  0.00  0.00    +0.000 A 
ATOM      9  O   UNL     1      -6.845  12.321  19.028  0.00  0.00    +0.000 OA
ATOM     10  C   UNL     1      -5.670  12.619  21.073  0.00  0.00    +0.000 A 
ATOM     11  C   UNL     1      -6.846  12.762  21.815  0.00  0.00    +0.000 A 
ATOM     12  C   UNL     1      -6.781  13.004  23.183  0.00  0.00    +0.000 A 
ATOM     13  C   UNL     1      -5.538  13.118  23.806  0.00  0.00    +0.000 A 
ATOM     14  C   UNL     1      -4.357  12.972  23.077  0.00  0.00    +0.000 A 
ATOM     15  C   UNL     1      -4.408  12.701  21.705  0.00  0.00    +0.000 A 
ATOM     16  H   UNL     1      -4.661  12.008  17.913  0.00  0.00    +0.000 HD
ENDROOT
BRANCH   3  17
ATOM     17  C   UNL     1       0.413  12.225  19.478  0.00  0.00    +0.000 C 
ATOM     18  O   UNL     1       0.970  11.162  19.187  0.00  0.00    +0.000 OA
ATOM     19  N   UNL     1       1.162  13.415  19.434  0.00  0.00    +0.000 N 
ATOM     20  C   UNL     1       2.565  13.343  19.004  0.00  0.00    +0.000 C 
ATOM     21  C   UNL     1       2.912  14.480  18.017  0.00  0.00    +0.000 C 
ATOM     22  N   UNL     1       2.615  15.846  18.512  0.00  0.00    +0.000 NA
ATOM     23  C   UNL     1       1.192  15.868  18.909  0.00  0.00    +0.000 C 
ATOM     24  C   UNL     1       0.752  14.753  19.880  0.00  0.00    +0.000 C 
BRANCH  22  25
ATOM     25  C   UNL     1       3.552  16.328  19.555  0.00  0.00    +0.000 C 
ATOM     26  C   UNL     1       4.922  16.681  18.949  0.00  0.00    +0.000 C 
ATOM     27  C   UNL     1       3.037  17.597  20.260  0.00  0.00    +0.000 C 
ENDBRANCH  22  25
ENDBRANCH   3  17
TORSDOF 2
ENDMDL
