MODEL 1
REMARK VINA RESULT:      -7.4      0.000      0.000
REMARK  Name = 
REMARK  6 active torsions:
REMARK  status: ('A' for Active; 'I' for Inactive)
REMARK    1  A    between atoms: C_1  and  O_2
REMARK    2  A    between atoms: O_2  and  C_3
REMARK    3  A    between atoms: C_6  and  O_7
REMARK    4  A    between atoms: C_8  and  C_9
REMARK    5  A    between atoms: C_9  and  C_10
REMARK    6  A    between atoms: C_21  and  C_22
REMARK                            x       y       z     vdW  Elec       q    Type
REMARK                         _______ _______ _______ _____ _____    ______ ____
ROOT
ATOM      1  C   UNL     1       2.457   6.982  18.845  0.00  0.00    +0.000 A 
ATOM      2  C   UNL     1       2.199   6.270  20.003  0.00  0.00    +0.000 A 
ATOM      3  N   UNL     1       1.521   6.753  21.062  0.00  0.00    +0.000 NA
ATOM      4  C   UNL     1       1.078   8.006  21.045  0.00  0.00    +0.000 A 
ATOM      5  N   UNL     1       0.402   8.362  22.126  0.00  0.00    +0.000 NA
ATOM      6  C   UNL     1      -0.075   9.594  22.188  0.00  0.00    +0.000 A 
ATOM      7  N   UNL     1      -0.826   9.936  23.295  0.00  0.00    +0.000 N 
ATOM      8  N   UNL     1       0.174  10.544  21.299  0.00  0.00    +0.000 NA
ATOM      9  C   UNL     1       0.875  10.184  20.215  0.00  0.00    +0.000 A 
ATOM     10  N   UNL     1       1.136  11.265  19.371  0.00  0.00    +0.000 N 
ATOM     11  C   UNL     1       1.329   8.866  19.970  0.00  0.00    +0.000 A 
ATOM     12  C   UNL     1       1.996   8.314  18.804  0.00  0.00    +0.000 A 
ATOM     13  C   UNL     1       2.182   9.089  17.523  0.00  0.00    +0.000 C 
ATOM     14  H   UNL     1      -0.622   9.316  24.065  0.00  0.00    +0.000 HD
ATOM     15  H   UNL     1      -0.782  10.931  23.460  0.00  0.00    +0.000 HD
ATOM     16  H   UNL     1       0.712  12.081  19.800  0.00  0.00    +0.000 HD
ATOM     17  H   UNL     1       2.133  11.390  19.239  0.00  0.00    +0.000 HD
ENDROOT
BRANCH   1  18
ATOM     18  C   UNL     1       3.157   6.271  17.699  0.00  0.00    +0.000 C 
BRANCH  18  23
ATOM     19  C   UNL     1       6.970   6.813  17.435  0.00  0.00    +0.000 A 
ATOM     20  C   UNL     1       7.447   5.635  17.997  0.00  0.00    +0.000 A 
ATOM     21  C   UNL     1       6.547   4.663  18.444  0.00  0.00    +0.000 A 
ATOM     22  C   UNL     1       5.172   4.879  18.333  0.00  0.00    +0.000 A 
ATOM     23  C   UNL     1       4.660   6.074  17.817  0.00  0.00    +0.000 A 
ATOM     24  C   UNL     1       5.587   7.032  17.375  0.00  0.00    +0.000 A 
BRANCH  19  26
ATOM     25  C   UNL     1       8.037   8.911  17.882  0.00  0.00    +0.000 C 
ATOM     26  O   UNL     1       7.730   7.853  16.974  0.00  0.00    +0.000 OA
ENDBRANCH  19  26
BRANCH  22  27
ATOM     27  O   UNL     1       4.299   3.901  18.721  0.00  0.00    +0.000 OA
ATOM     28  H   UNL     1       4.571   3.060  18.314  0.00  0.00    +0.000 HD
ENDBRANCH  22  27
ENDBRANCH  18  23
ENDBRANCH   1  18
TORSDOF 4
ENDMDL
MODEL 2
REMARK VINA RESULT:      -7.3      3.637      5.309
REMARK  Name = 
REMARK  6 active torsions:
REMARK  status: ('A' for Active; 'I' for Inactive)
REMARK    1  A    between atoms: C_1  and  O_2
REMARK    2  A    between atoms: O_2  and  C_3
REMARK    3  A    between atoms: C_6  and  O_7
REMARK    4  A    between atoms: C_8  and  C_9
REMARK    5  A    between atoms: C_9  and  C_10
REMARK    6  A    between atoms: C_21  and  C_22
REMARK                            x       y       z     vdW  Elec       q    Type
REMARK                         _______ _______ _______ _____ _____    ______ ____
ROOT
ATOM      1  C   UNL     1       4.367   5.462  17.251  0.00  0.00    +0.000 A 
ATOM      2  C   UNL     1       4.777   4.150  17.412  0.00  0.00    +0.000 A 
ATOM      3  N   UNL     1       4.354   3.332  18.395  0.00  0.00    +0.000 NA
ATOM      4  C   UNL     1       3.507   3.788  19.313  0.00  0.00    +0.000 A 
ATOM      5  N   UNL     1       3.140   2.889  20.213  0.00  0.00    +0.000 NA
ATOM      6  C   UNL     1       2.296   3.261  21.161  0.00  0.00    +0.000 A 
ATOM      7  N   UNL     1       1.877   2.302  22.060  0.00  0.00    +0.000 N 
ATOM      8  N   UNL     1       1.879   4.505  21.352  0.00  0.00    +0.000 NA
ATOM      9  C   UNL     1       2.269   5.415  20.450  0.00  0.00    +0.000 A 
ATOM     10  N   UNL     1       1.831   6.701  20.772  0.00  0.00    +0.000 N 
ATOM     11  C   UNL     1       3.064   5.115  19.318  0.00  0.00    +0.000 A 
ATOM     12  C   UNL     1       3.468   5.967  18.213  0.00  0.00    +0.000 A 
ATOM     13  C   UNL     1       2.932   7.364  18.016  0.00  0.00    +0.000 C 
ATOM     14  H   UNL     1       2.531   1.533  22.086  0.00  0.00    +0.000 HD
ATOM     15  H   UNL     1       1.607   2.728  22.935  0.00  0.00    +0.000 HD
ATOM     16  H   UNL     1       1.304   6.623  21.636  0.00  0.00    +0.000 HD
ATOM     17  H   UNL     1       2.613   7.338  20.870  0.00  0.00    +0.000 HD
ENDROOT
BRANCH   1  18
ATOM     18  C   UNL     1       4.863   6.232  16.039  0.00  0.00    +0.000 C 
BRANCH  18  23
ATOM     19  C   UNL     1       5.656   3.881  13.082  0.00  0.00    +0.000 A 
ATOM     20  C   UNL     1       7.044   3.946  13.053  0.00  0.00    +0.000 A 
ATOM     21  C   UNL     1       7.723   4.730  13.990  0.00  0.00    +0.000 A 
ATOM     22  C   UNL     1       7.008   5.451  14.948  0.00  0.00    +0.000 A 
ATOM     23  C   UNL     1       5.610   5.445  14.974  0.00  0.00    +0.000 A 
ATOM     24  C   UNL     1       4.954   4.649  14.021  0.00  0.00    +0.000 A 
BRANCH  19  26
ATOM     25  C   UNL     1       5.468   2.122  11.466  0.00  0.00    +0.000 C 
ATOM     26  O   UNL     1       4.863   3.172  12.220  0.00  0.00    +0.000 OA
ENDBRANCH  19  26
BRANCH  22  27
ATOM     27  O   UNL     1       7.681   6.171  15.896  0.00  0.00    +0.000 OA
ATOM     28  H   UNL     1       7.585   5.724  16.755  0.00  0.00    +0.000 HD
ENDBRANCH  22  27
ENDBRANCH  18  23
ENDBRANCH   1  18
TORSDOF 4
ENDMDL
MODEL 3
REMARK VINA RESULT:      -7.2      3.976      5.606
REMARK  Name = 
REMARK  6 active torsions:
REMARK  status: ('A' for Active; 'I' for Inactive)
REMARK    1  A    between atoms: C_1  and  O_2
REMARK    2  A    between atoms: O_2  and  C_3
REMARK    3  A    between atoms: C_6  and  O_7
REMARK    4  A    between atoms: C_8  and  C_9
REMARK    5  A    between atoms: C_9  and  C_10
REMARK    6  A    between atoms: C_21  and  C_22
REMARK                            x       y       z     vdW  Elec       q    Type
REMARK                         _______ _______ _______ _____ _____    ______ ____
ROOT
ATOM      1  C   UNL     1       4.569   5.269  16.697  0.00  0.00    +0.000 A 
ATOM      2  C   UNL     1       4.599   3.888  16.779  0.00  0.00    +0.000 A 
ATOM      3  N   UNL     1       3.920   3.160  17.687  0.00  0.00    +0.000 NA
ATOM      4  C   UNL     1       3.183   3.776  18.606  0.00  0.00    +0.000 A 
ATOM      5  N   UNL     1       2.540   2.961  19.427  0.00  0.00    +0.000 NA
ATOM      6  C   UNL     1       1.782   3.494  20.371  0.00  0.00    +0.000 A 
ATOM      7  N   UNL     1       1.072   2.634  21.186  0.00  0.00    +0.000 N 
ATOM      8  N   UNL     1       1.710   4.790  20.636  0.00  0.00    +0.000 NA
ATOM      9  C   UNL     1       2.378   5.610  19.814  0.00  0.00    +0.000 A 
ATOM     10  N   UNL     1       2.289   6.946  20.212  0.00  0.00    +0.000 N 
ATOM     11  C   UNL     1       3.118   5.171  18.691  0.00  0.00    +0.000 A 
ATOM     12  C   UNL     1       3.793   5.943  17.663  0.00  0.00    +0.000 A 
ATOM     13  C   UNL     1       3.667   7.443  17.548  0.00  0.00    +0.000 C 
ATOM     14  H   UNL     1       1.491   1.716  21.178  0.00  0.00    +0.000 HD
ATOM     15  H   UNL     1       0.885   3.065  22.079  0.00  0.00    +0.000 HD
ATOM     16  H   UNL     1       1.717   6.964  21.050  0.00  0.00    +0.000 HD
ATOM     17  H   UNL     1       3.208   7.337  20.380  0.00  0.00    +0.000 HD
ENDROOT
BRANCH   1  18
ATOM     18  C   UNL     1       5.317   5.944  15.560  0.00  0.00    +0.000 C 
BRANCH  18  23
ATOM     19  C   UNL     1       5.126   3.541  12.545  0.00  0.00    +0.000 A 
ATOM     20  C   UNL     1       6.469   3.425  12.209  0.00  0.00    +0.000 A 
ATOM     21  C   UNL     1       7.434   4.104  12.958  0.00  0.00    +0.000 A 
ATOM     22  C   UNL     1       7.049   4.902  14.037  0.00  0.00    +0.000 A 
ATOM     23  C   UNL     1       5.702   5.078  14.371  0.00  0.00    +0.000 A 
ATOM     24  C   UNL     1       4.754   4.383  13.602  0.00  0.00    +0.000 A 
BRANCH  19  26
ATOM     25  C   UNL     1       3.622   3.548  10.680  0.00  0.00    +0.000 C 
ATOM     26  O   UNL     1       4.077   2.950  11.893  0.00  0.00    +0.000 OA
ENDBRANCH  19  26
BRANCH  22  27
ATOM     27  O   UNL     1       8.002   5.518  14.799  0.00  0.00    +0.000 OA
ATOM     28  H   UNL     1       8.569   6.055  14.218  0.00  0.00    +0.000 HD
ENDBRANCH  22  27
ENDBRANCH  18  23
ENDBRANCH   1  18
TORSDOF 4
ENDMDL
MODEL 4
REMARK VINA RESULT:      -7.1      4.177      7.631
REMARK  Name = 
REMARK  6 active torsions:
REMARK  status: ('A' for Active; 'I' for Inactive)
REMARK    1  A    between atoms: C_1  and  O_2
REMARK    2  A    between atoms: O_2  and  C_3
REMARK    3  A    between atoms: C_6  and  O_7
REMARK    4  A    between atoms: C_8  and  C_9
REMARK    5  A    between atoms: C_9  and  C_10
REMARK    6  A    between atoms: C_21  and  C_22
REMARK                            x       y       z     vdW  Elec       q    Type
REMARK                         _______ _______ _______ _____ _____    ______ ____
ROOT
ATOM      1  C   UNL     1       1.385   9.399  19.132  0.00  0.00    +0.000 A 
ATOM      2  C   UNL     1       2.052   9.475  17.921  0.00  0.00    +0.000 A 
ATOM      3  N   UNL     1       2.770   8.472  17.380  0.00  0.00    +0.000 NA
ATOM      4  C   UNL     1       2.897   7.323  18.038  0.00  0.00    +0.000 A 
ATOM      5  N   UNL     1       3.600   6.402  17.398  0.00  0.00    +0.000 NA
ATOM      6  C   UNL     1       3.773   5.229  17.983  0.00  0.00    +0.000 A 
ATOM      7  N   UNL     1       4.460   4.257  17.283  0.00  0.00    +0.000 N 
ATOM      8  N   UNL     1       3.396   4.941  19.221  0.00  0.00    +0.000 NA
ATOM      9  C   UNL     1       2.701   5.884  19.871  0.00  0.00    +0.000 A 
ATOM     10  N   UNL     1       2.403   5.512  21.184  0.00  0.00    +0.000 N 
ATOM     11  C   UNL     1       2.339   7.130  19.306  0.00  0.00    +0.000 A 
ATOM     12  C   UNL     1       1.506   8.190  19.847  0.00  0.00    +0.000 A 
ATOM     13  C   UNL     1       0.720   8.043  21.126  0.00  0.00    +0.000 C 
ATOM     14  H   UNL     1       5.035   4.678  16.568  0.00  0.00    +0.000 HD
ATOM     15  H   UNL     1       4.893   3.602  17.917  0.00  0.00    +0.000 HD
ATOM     16  H   UNL     1       2.797   4.586  21.321  0.00  0.00    +0.000 HD
ATOM     17  H   UNL     1       2.782   6.178  21.846  0.00  0.00    +0.000 HD
ENDROOT
BRANCH   1  18
ATOM     18  C   UNL     1       0.540  10.585  19.568  0.00  0.00    +0.000 C 
BRANCH  18  23
ATOM     19  C   UNL     1      -2.399  10.304  17.082  0.00  0.00    +0.000 A 
ATOM     20  C   UNL     1      -3.335  11.140  17.679  0.00  0.00    +0.000 A 
ATOM     21  C   UNL     1      -3.017  11.803  18.868  0.00  0.00    +0.000 A 
ATOM     22  C   UNL     1      -1.765  11.621  19.457  0.00  0.00    +0.000 A 
ATOM     23  C   UNL     1      -0.819  10.750  18.908  0.00  0.00    +0.000 A 
ATOM     24  C   UNL     1      -1.165  10.097  17.713  0.00  0.00    +0.000 A 
BRANCH  19  26
ATOM     25  C   UNL     1      -3.100  10.259  14.792  0.00  0.00    +0.000 C 
ATOM     26  O   UNL     1      -2.578   9.581  15.934  0.00  0.00    +0.000 OA
ENDBRANCH  19  26
BRANCH  22  27
ATOM     27  O   UNL     1      -1.441  12.317  20.589  0.00  0.00    +0.000 OA
ATOM     28  H   UNL     1      -1.814  11.853  21.358  0.00  0.00    +0.000 HD
ENDBRANCH  22  27
ENDBRANCH  18  23
ENDBRANCH   1  18
TORSDOF 4
ENDMDL
MODEL 5
REMARK VINA RESULT:      -7.0      1.628      2.056
REMARK  Name = 
REMARK  6 active torsions:
REMARK  status: ('A' for Active; 'I' for Inactive)
REMARK    1  A    between atoms: C_1  and  O_2
REMARK    2  A    between atoms: O_2  and  C_3
REMARK    3  A    between atoms: C_6  and  O_7
REMARK    4  A    between atoms: C_8  and  C_9
REMARK    5  A    between atoms: C_9  and  C_10
REMARK    6  A    between atoms: C_21  and  C_22
REMARK                            x       y       z     vdW  Elec       q    Type
REMARK                         _______ _______ _______ _____ _____    ______ ____
ROOT
ATOM      1  C   UNL     1       2.060   7.895  19.075  0.00  0.00    +0.000 A 
ATOM      2  C   UNL     1       1.797   7.215  20.251  0.00  0.00    +0.000 A 
ATOM      3  N   UNL     1       1.084   7.713  21.280  0.00  0.00    +0.000 NA
ATOM      4  C   UNL     1       0.609   8.953  21.212  0.00  0.00    +0.000 A 
ATOM      5  N   UNL     1      -0.098   9.325  22.268  0.00  0.00    +0.000 NA
ATOM      6  C   UNL     1      -0.609  10.545  22.279  0.00  0.00    +0.000 A 
ATOM      7  N   UNL     1      -1.391  10.903  23.359  0.00  0.00    +0.000 N 
ATOM      8  N   UNL     1      -0.367  11.472  21.364  0.00  0.00    +0.000 NA
ATOM      9  C   UNL     1       0.365  11.096  20.307  0.00  0.00    +0.000 A 
ATOM     10  N   UNL     1       0.615  12.155  19.432  0.00  0.00    +0.000 N 
ATOM     11  C   UNL     1       0.859   9.784  20.115  0.00  0.00    +0.000 A 
ATOM     12  C   UNL     1       1.564   9.212  18.981  0.00  0.00    +0.000 A 
ATOM     13  C   UNL     1       1.756   9.949  17.678  0.00  0.00    +0.000 C 
ATOM     14  H   UNL     1      -1.186  10.315  24.153  0.00  0.00    +0.000 HD
ATOM     15  H   UNL     1      -1.377  11.904  23.492  0.00  0.00    +0.000 HD
ATOM     16  H   UNL     1       0.161  12.973  19.826  0.00  0.00    +0.000 HD
ATOM     17  H   UNL     1       1.611  12.303  19.316  0.00  0.00    +0.000 HD
ENDROOT
BRANCH   1  18
ATOM     18  C   UNL     1       2.801   7.166  17.967  0.00  0.00    +0.000 C 
BRANCH  18  23
ATOM     19  C   UNL     1       5.485   4.625  19.080  0.00  0.00    +0.000 A 
ATOM     20  C   UNL     1       4.790   3.428  18.949  0.00  0.00    +0.000 A 
ATOM     21  C   UNL     1       3.470   3.437  18.489  0.00  0.00    +0.000 A 
ATOM     22  C   UNL     1       2.848   4.645  18.170  0.00  0.00    +0.000 A 
ATOM     23  C   UNL     1       3.503   5.870  18.336  0.00  0.00    +0.000 A 
ATOM     24  C   UNL     1       4.829   5.831  18.799  0.00  0.00    +0.000 A 
BRANCH  19  26
ATOM     25  C   UNL     1       7.553   5.829  18.991  0.00  0.00    +0.000 C 
ATOM     26  O   UNL     1       6.769   4.768  19.532  0.00  0.00    +0.000 OA
ENDBRANCH  19  26
BRANCH  22  27
ATOM     27  O   UNL     1       1.577   4.641  17.668  0.00  0.00    +0.000 OA
ATOM     28  H   UNL     1       1.197   5.531  17.770  0.00  0.00    +0.000 HD
ENDBRANCH  22  27
ENDBRANCH  18  23
ENDBRANCH   1  18
TORSDOF 4
ENDMDL
MODEL 6
REMARK VINA RESULT:      -7.0      1.502      2.725
REMARK  Name = 
REMARK  6 active torsions:
REMARK  status: ('A' for Active; 'I' for Inactive)
REMARK    1  A    between atoms: C_1  and  O_2
REMARK    2  A    between atoms: O_2  and  C_3
REMARK    3  A    between atoms: C_6  and  O_7
REMARK    4  A    between atoms: C_8  and  C_9
REMARK    5  A    between atoms: C_9  and  C_10
REMARK    6  A    between atoms: C_21  and  C_22
REMARK                            x       y       z     vdW  Elec       q    Type
REMARK                         _______ _______ _______ _____ _____    ______ ____
ROOT
ATOM      1  C   UNL     1       2.518   7.125  18.270  0.00  0.00    +0.000 A 
ATOM      2  C   UNL     1       2.682   8.162  17.368  0.00  0.00    +0.000 A 
ATOM      3  N   UNL     1       2.275   9.429  17.578  0.00  0.00    +0.000 NA
ATOM      4  C   UNL     1       1.641   9.739  18.704  0.00  0.00    +0.000 A 
ATOM      5  N   UNL     1       1.314  11.018  18.813  0.00  0.00    +0.000 NA
ATOM      6  C   UNL     1       0.682  11.411  19.906  0.00  0.00    +0.000 A 
ATOM      7  N   UNL     1       0.395  12.755  20.033  0.00  0.00    +0.000 N 
ATOM      8  N   UNL     1       0.240  10.597  20.855  0.00  0.00    +0.000 NA
ATOM      9  C   UNL     1       0.557   9.302  20.731  0.00  0.00    +0.000 A 
ATOM     10  N   UNL     1      -0.003   8.520  21.743  0.00  0.00    +0.000 N 
ATOM     11  C   UNL     1       1.341   8.778  19.675  0.00  0.00    +0.000 A 
ATOM     12  C   UNL     1       1.848   7.432  19.473  0.00  0.00    +0.000 A 
ATOM     13  C   UNL     1       1.732   6.347  20.515  0.00  0.00    +0.000 C 
ATOM     14  H   UNL     1       0.397  13.203  19.129  0.00  0.00    +0.000 HD
ATOM     15  H   UNL     1      -0.406  12.893  20.632  0.00  0.00    +0.000 HD
ATOM     16  H   UNL     1      -0.525   9.151  22.344  0.00  0.00    +0.000 HD
ATOM     17  H   UNL     1      -0.598   7.797  21.357  0.00  0.00    +0.000 HD
ENDROOT
BRANCH   1  18
ATOM     18  C   UNL     1       3.111   5.768  17.930  0.00  0.00    +0.000 C 
BRANCH  18  23
ATOM     19  C   UNL     1       6.723   5.613  16.578  0.00  0.00    +0.000 A 
ATOM     20  C   UNL     1       7.441   5.419  17.752  0.00  0.00    +0.000 A 
ATOM     21  C   UNL     1       6.765   5.322  18.972  0.00  0.00    +0.000 A 
ATOM     22  C   UNL     1       5.373   5.428  19.011  0.00  0.00    +0.000 A 
ATOM     23  C   UNL     1       4.626   5.671  17.854  0.00  0.00    +0.000 A 
ATOM     24  C   UNL     1       5.331   5.763  16.642  0.00  0.00    +0.000 A 
BRANCH  19  26
ATOM     25  C   UNL     1       6.821   4.825  14.318  0.00  0.00    +0.000 C 
ATOM     26  O   UNL     1       7.251   5.743  15.322  0.00  0.00    +0.000 OA
ENDBRANCH  19  26
BRANCH  22  27
ATOM     27  O   UNL     1       4.715   5.276  20.200  0.00  0.00    +0.000 OA
ATOM     28  H   UNL     1       3.846   4.874  20.027  0.00  0.00    +0.000 HD
ENDBRANCH  22  27
ENDBRANCH  18  23
ENDBRANCH   1  18
TORSDOF 4
ENDMDL
MODEL 7
REMARK VINA RESULT:      -7.0      2.031      3.233
REMARK  Name = 
REMARK  6 active torsions:
REMARK  status: ('A' for Active; 'I' for Inactive)
REMARK    1  A    between atoms: C_1  and  O_2
REMARK    2  A    between atoms: O_2  and  C_3
REMARK    3  A    between atoms: C_6  and  O_7
REMARK    4  A    between atoms: C_8  and  C_9
REMARK    5  A    between atoms: C_9  and  C_10
REMARK    6  A    between atoms: C_21  and  C_22
REMARK                            x       y       z     vdW  Elec       q    Type
REMARK                         _______ _______ _______ _____ _____    ______ ____
ROOT
ATOM      1  C   UNL     1       2.904   6.413  18.472  0.00  0.00    +0.000 A 
ATOM      2  C   UNL     1       3.162   7.253  17.403  0.00  0.00    +0.000 A 
ATOM      3  N   UNL     1       2.782   8.543  17.335  0.00  0.00    +0.000 NA
ATOM      4  C   UNL     1       2.080   9.076  18.331  0.00  0.00    +0.000 A 
ATOM      5  N   UNL     1       1.787  10.357  18.168  0.00  0.00    +0.000 NA
ATOM      6  C   UNL     1       1.092  10.964  19.115  0.00  0.00    +0.000 A 
ATOM      7  N   UNL     1       0.839  12.313  18.961  0.00  0.00    +0.000 N 
ATOM      8  N   UNL     1       0.560  10.357  20.166  0.00  0.00    +0.000 NA
ATOM      9  C   UNL     1       0.844   9.057  20.316  0.00  0.00    +0.000 A 
ATOM     10  N   UNL     1       0.191   8.495  21.415  0.00  0.00    +0.000 N 
ATOM     11  C   UNL     1       1.683   8.326  19.442  0.00  0.00    +0.000 A 
ATOM     12  C   UNL     1       2.161   6.958  19.540  0.00  0.00    +0.000 A 
ATOM     13  C   UNL     1       1.939   6.096  20.759  0.00  0.00    +0.000 C 
ATOM     14  H   UNL     1       0.918  12.577  17.990  0.00  0.00    +0.000 HD
ATOM     15  H   UNL     1       0.003  12.577  19.461  0.00  0.00    +0.000 HD
ATOM     16  H   UNL     1      -0.352   9.239  21.843  0.00  0.00    +0.000 HD
ATOM     17  H   UNL     1      -0.399   7.722  21.131  0.00  0.00    +0.000 HD
ENDROOT
BRANCH   1  18
ATOM     18  C   UNL     1       3.477   5.006  18.443  0.00  0.00    +0.000 C 
BRANCH  18  23
ATOM     19  C   UNL     1       6.125   4.108  15.782  0.00  0.00    +0.000 A 
ATOM     20  C   UNL     1       7.300   4.401  16.464  0.00  0.00    +0.000 A 
ATOM     21  C   UNL     1       7.242   4.870  17.780  0.00  0.00    +0.000 A 
ATOM     22  C   UNL     1       6.006   5.050  18.404  0.00  0.00    +0.000 A 
ATOM     23  C   UNL     1       4.805   4.811  17.729  0.00  0.00    +0.000 A 
ATOM     24  C   UNL     1       4.893   4.340  16.409  0.00  0.00    +0.000 A 
BRANCH  19  26
ATOM     25  C   UNL     1       6.758   4.366  13.486  0.00  0.00    +0.000 C 
ATOM     26  O   UNL     1       6.031   3.661  14.492  0.00  0.00    +0.000 OA
ENDBRANCH  19  26
BRANCH  22  27
ATOM     27  O   UNL     1       5.959   5.455  19.709  0.00  0.00    +0.000 OA
ATOM     28  H   UNL     1       5.380   4.850  20.204  0.00  0.00    +0.000 HD
ENDBRANCH  22  27
ENDBRANCH  18  23
ENDBRANCH   1  18
TORSDOF 4
ENDMDL
MODEL 8
REMARK VINA RESULT:      -7.0      2.479      3.320
REMARK  Name = 
REMARK  6 active torsions:
REMARK  status: ('A' for Active; 'I' for Inactive)
REMARK    1  A    between atoms: C_1  and  O_2
REMARK    2  A    between atoms: O_2  and  C_3
REMARK    3  A    between atoms: C_6  and  O_7
REMARK    4  A    between atoms: C_8  and  C_9
REMARK    5  A    between atoms: C_9  and  C_10
REMARK    6  A    between atoms: C_21  and  C_22
REMARK                            x       y       z     vdW  Elec       q    Type
REMARK                         _______ _______ _______ _____ _____    ______ ____
ROOT
ATOM      1  C   UNL     1       2.192   7.188  19.172  0.00  0.00    +0.000 A 
ATOM      2  C   UNL     1       1.872   6.627  20.397  0.00  0.00    +0.000 A 
ATOM      3  N   UNL     1       1.191   7.258  21.372  0.00  0.00    +0.000 NA
ATOM      4  C   UNL     1       0.808   8.519  21.198  0.00  0.00    +0.000 A 
ATOM      5  N   UNL     1       0.122   9.026  22.211  0.00  0.00    +0.000 NA
ATOM      6  C   UNL     1      -0.299  10.277  22.117  0.00  0.00    +0.000 A 
ATOM      7  N   UNL     1      -1.060  10.777  23.154  0.00  0.00    +0.000 N 
ATOM      8  N   UNL     1       0.016  11.106  21.132  0.00  0.00    +0.000 NA
ATOM      9  C   UNL     1       0.726  10.592  20.119  0.00  0.00    +0.000 A 
ATOM     10  N   UNL     1       1.059  11.555  19.164  0.00  0.00    +0.000 N 
ATOM     11  C   UNL     1       1.125   9.237  20.040  0.00  0.00    +0.000 A 
ATOM     12  C   UNL     1       1.794   8.525  18.966  0.00  0.00    +0.000 A 
ATOM     13  C   UNL     1       2.047   9.137  17.610  0.00  0.00    +0.000 C 
ATOM     14  H   UNL     1      -0.903  10.243  23.996  0.00  0.00    +0.000 HD
ATOM     15  H   UNL     1      -0.974  11.782  23.205  0.00  0.00    +0.000 HD
ATOM     16  H   UNL     1       0.662  12.433  19.484  0.00  0.00    +0.000 HD
ATOM     17  H   UNL     1       2.063  11.622  19.049  0.00  0.00    +0.000 HD
ENDROOT
BRANCH   1  18
ATOM     18  C   UNL     1       2.886   6.319  18.137  0.00  0.00    +0.000 C 
BRANCH  18  23
ATOM     19  C   UNL     1       4.107   2.864  19.351  0.00  0.00    +0.000 A 
ATOM     20  C   UNL     1       3.100   2.039  18.865  0.00  0.00    +0.000 A 
ATOM     21  C   UNL     1       2.041   2.588  18.136  0.00  0.00    +0.000 A 
ATOM     22  C   UNL     1       1.992   3.964  17.903  0.00  0.00    +0.000 A 
ATOM     23  C   UNL     1       2.963   4.828  18.420  0.00  0.00    +0.000 A 
ATOM     24  C   UNL     1       4.015   4.248  19.148  0.00  0.00    +0.000 A 
BRANCH  19  26
ATOM     25  C   UNL     1       5.048   1.308  20.910  0.00  0.00    +0.000 C 
ATOM     26  O   UNL     1       5.187   2.469  20.091  0.00  0.00    +0.000 OA
ENDBRANCH  19  26
BRANCH  22  27
ATOM     27  O   UNL     1       0.984   4.487  17.142  0.00  0.00    +0.000 OA
ATOM     28  H   UNL     1       0.140   4.355  17.607  0.00  0.00    +0.000 HD
ENDBRANCH  22  27
ENDBRANCH  18  23
ENDBRANCH   1  18
TORSDOF 4
ENDMDL
MODEL 9
REMARK VINA RESULT:      -7.0      1.037      2.358
REMARK  Name = 
REMARK  6 active torsions:
REMARK  status: ('A' for Active; 'I' for Inactive)
REMARK    1  A    between atoms: C_1  and  O_2
REMARK    2  A    between atoms: O_2  and  C_3
REMARK    3  A    between atoms: C_6  and  O_7
REMARK    4  A    between atoms: C_8  and  C_9
REMARK    5  A    between atoms: C_9  and  C_10
REMARK    6  A    between atoms: C_21  and  C_22
REMARK                            x       y       z     vdW  Elec       q    Type
REMARK                         _______ _______ _______ _____ _____    ______ ____
ROOT
ATOM      1  C   UNL     1       2.216   7.679  18.449  0.00  0.00    +0.000 A 
ATOM      2  C   UNL     1       2.219   8.731  17.550  0.00  0.00    +0.000 A 
ATOM      3  N   UNL     1       1.856   9.993  17.848  0.00  0.00    +0.000 NA
ATOM      4  C   UNL     1       1.429  10.284  19.073  0.00  0.00    +0.000 A 
ATOM      5  N   UNL     1       1.127  11.559  19.258  0.00  0.00    +0.000 NA
ATOM      6  C   UNL     1       0.696  11.933  20.451  0.00  0.00    +0.000 A 
ATOM      7  N   UNL     1       0.437  13.274  20.649  0.00  0.00    +0.000 N 
ATOM      8  N   UNL     1       0.427  11.103  21.449  0.00  0.00    +0.000 NA
ATOM      9  C   UNL     1       0.717   9.810  21.250  0.00  0.00    +0.000 A 
ATOM     10  N   UNL     1       0.343   9.011  22.332  0.00  0.00    +0.000 N 
ATOM     11  C   UNL     1       1.304   9.306  20.065  0.00  0.00    +0.000 A 
ATOM     12  C   UNL     1       1.767   7.964  19.756  0.00  0.00    +0.000 A 
ATOM     13  C   UNL     1       1.835   6.862  20.784  0.00  0.00    +0.000 C 
ATOM     14  H   UNL     1       0.279  13.737  19.765  0.00  0.00    +0.000 HD
ATOM     15  H   UNL     1      -0.247  13.400  21.381  0.00  0.00    +0.000 HD
ATOM     16  H   UNL     1      -0.065   9.631  23.025  0.00  0.00    +0.000 HD
ATOM     17  H   UNL     1      -0.311   8.293  22.045  0.00  0.00    +0.000 HD
ENDROOT
BRANCH   1  18
ATOM     18  C   UNL     1       2.740   6.329  17.988  0.00  0.00    +0.000 C 
BRANCH  18  23
ATOM     19  C   UNL     1       6.573   6.569  17.603  0.00  0.00    +0.000 A 
ATOM     20  C   UNL     1       6.989   5.516  18.409  0.00  0.00    +0.000 A 
ATOM     21  C   UNL     1       6.041   4.722  19.061  0.00  0.00    +0.000 A 
ATOM     22  C   UNL     1       4.680   4.991  18.908  0.00  0.00    +0.000 A 
ATOM     23  C   UNL     1       4.230   6.072  18.144  0.00  0.00    +0.000 A 
ATOM     24  C   UNL     1       5.204   6.852  17.499  0.00  0.00    +0.000 A 
BRANCH  19  26
ATOM     25  C   UNL     1       7.880   8.576  17.621  0.00  0.00    +0.000 C 
ATOM     26  O   UNL     1       7.386   7.434  16.922  0.00  0.00    +0.000 OA
ENDBRANCH  19  26
BRANCH  22  27
ATOM     27  O   UNL     1       3.757   4.176  19.504  0.00  0.00    +0.000 OA
ATOM     28  H   UNL     1       4.041   3.252  19.397  0.00  0.00    +0.000 HD
ENDBRANCH  22  27
ENDBRANCH  18  23
ENDBRANCH   1  18
TORSDOF 4
ENDMDL
