MODEL 1
REMARK VINA RESULT:      -8.1      0.000      0.000
REMARK  Name = 
REMARK  2 active torsions:
REMARK  status: ('A' for Active; 'I' for Inactive)
REMARK    1  A    between atoms: C_4  and  C_5
REMARK    2  A    between atoms: C_17  and  O_18
REMARK                            x       y       z     vdW  Elec       q    Type
REMARK                         _______ _______ _______ _____ _____    ______ ____
ROOT
ATOM      1  O   UNL     1       7.819   6.308  16.146  0.00  0.00    +0.000 OA
ATOM      2  C   UNL     1       6.930   5.515  15.867  0.00  0.00    +0.000 A 
ATOM      3  C   UNL     1       5.944   5.163  16.903  0.00  0.00    +0.000 A 
ATOM      4  C   UNL     1       4.967   4.297  16.613  0.00  0.00    +0.000 A 
ATOM      5  O   UNL     1       4.790   3.687  15.390  0.00  0.00    +0.000 OA
ATOM      6  C   UNL     1       5.682   3.986  14.385  0.00  0.00    +0.000 A 
ATOM      7  C   UNL     1       5.461   3.353  13.159  0.00  0.00    +0.000 A 
ATOM      8  C   UNL     1       6.315   3.596  12.084  0.00  0.00    +0.000 A 
ATOM      9  C   UNL     1       7.393   4.468  12.235  0.00  0.00    +0.000 A 
ATOM     10  C   UNL     1       7.614   5.102  13.462  0.00  0.00    +0.000 A 
ATOM     11  C   UNL     1       6.757   4.868  14.545  0.00  0.00    +0.000 A 
ENDROOT
BRANCH   4  12
ATOM     12  C   UNL     1       3.985   3.931  17.637  0.00  0.00    +0.000 A 
ATOM     13  C   UNL     1       2.614   4.032  17.370  0.00  0.00    +0.000 A 
ATOM     14  C   UNL     1       1.679   3.750  18.369  0.00  0.00    +0.000 A 
ATOM     15  C   UNL     1       2.114   3.364  19.636  0.00  0.00    +0.000 A 
ATOM     16 CL   UNL     1       0.963   3.037  20.872  0.00  0.00    +0.000 Cl
ATOM     17  C   UNL     1       3.475   3.248  19.910  0.00  0.00    +0.000 A 
ATOM     18  C   UNL     1       4.411   3.532  18.911  0.00  0.00    +0.000 A 
ENDBRANCH   4  12
BRANCH  10  19
ATOM     19  O   UNL     1       8.679   5.946  13.579  0.00  0.00    +0.000 OA
ATOM     20  H   UNL     1       8.556   6.731  13.023  0.00  0.00    +0.000 HD
ENDBRANCH  10  19
TORSDOF 2
ENDMDL
MODEL 2
REMARK VINA RESULT:      -8.0      0.218      1.114
REMARK  Name = 
REMARK  2 active torsions:
REMARK  status: ('A' for Active; 'I' for Inactive)
REMARK    1  A    between atoms: C_4  and  C_5
REMARK    2  A    between atoms: C_17  and  O_18
REMARK                            x       y       z     vdW  Elec       q    Type
REMARK                         _______ _______ _______ _____ _____    ______ ____
ROOT
ATOM      1  O   UNL     1       7.843   6.412  16.125  0.00  0.00    +0.000 OA
ATOM      2  C   UNL     1       6.938   5.621  15.897  0.00  0.00    +0.000 A 
ATOM      3  C   UNL     1       5.968   5.328  16.966  0.00  0.00    +0.000 A 
ATOM      4  C   UNL     1       4.973   4.465  16.731  0.00  0.00    +0.000 A 
ATOM      5  O   UNL     1       4.764   3.806  15.538  0.00  0.00    +0.000 OA
ATOM      6  C   UNL     1       5.640   4.050  14.505  0.00  0.00    +0.000 A 
ATOM      7  C   UNL     1       5.386   3.368  13.312  0.00  0.00    +0.000 A 
ATOM      8  C   UNL     1       6.223   3.554  12.211  0.00  0.00    +0.000 A 
ATOM      9  C   UNL     1       7.315   4.416  12.305  0.00  0.00    +0.000 A 
ATOM     10  C   UNL     1       7.569   5.097  13.499  0.00  0.00    +0.000 A 
ATOM     11  C   UNL     1       6.730   4.922  14.607  0.00  0.00    +0.000 A 
ENDROOT
BRANCH   4  12
ATOM     12  C   UNL     1       4.007   4.157  17.788  0.00  0.00    +0.000 A 
ATOM     13  C   UNL     1       4.408   3.452  18.930  0.00  0.00    +0.000 A 
ATOM     14  C   UNL     1       3.472   3.098  19.905  0.00  0.00    +0.000 A 
ATOM     15  C   UNL     1       2.134   3.450  19.740  0.00  0.00    +0.000 A 
ATOM     16 CL   UNL     1       0.977   2.996  20.931  0.00  0.00    +0.000 Cl
ATOM     17  C   UNL     1       1.724   4.162  18.614  0.00  0.00    +0.000 A 
ATOM     18  C   UNL     1       2.660   4.516  17.638  0.00  0.00    +0.000 A 
ENDBRANCH   4  12
BRANCH  10  19
ATOM     19  O   UNL     1       8.648   5.930  13.560  0.00  0.00    +0.000 OA
ATOM     20  H   UNL     1       9.084   5.863  14.422  0.00  0.00    +0.000 HD
ENDBRANCH  10  19
TORSDOF 2
ENDMDL
MODEL 3
REMARK VINA RESULT:      -7.4      4.316      5.538
REMARK  Name = 
REMARK  2 active torsions:
REMARK  status: ('A' for Active; 'I' for Inactive)
REMARK    1  A    between atoms: C_4  and  C_5
REMARK    2  A    between atoms: C_17  and  O_18
REMARK                            x       y       z     vdW  Elec       q    Type
REMARK                         _______ _______ _______ _____ _____    ______ ____
ROOT
ATOM      1  O   UNL     1       2.801   3.533  19.081  0.00  0.00    +0.000 OA
ATOM      2  C   UNL     1       3.070   4.619  18.586  0.00  0.00    +0.000 A 
ATOM      3  C   UNL     1       2.378   5.817  19.091  0.00  0.00    +0.000 A 
ATOM      4  C   UNL     1       2.661   7.011  18.560  0.00  0.00    +0.000 A 
ATOM      5  O   UNL     1       3.575   7.231  17.552  0.00  0.00    +0.000 OA
ATOM      6  C   UNL     1       4.253   6.144  17.048  0.00  0.00    +0.000 A 
ATOM      7  C   UNL     1       5.176   6.412  16.033  0.00  0.00    +0.000 A 
ATOM      8  C   UNL     1       5.908   5.371  15.464  0.00  0.00    +0.000 A 
ATOM      9  C   UNL     1       5.715   4.062  15.904  0.00  0.00    +0.000 A 
ATOM     10  C   UNL     1       4.791   3.794  16.919  0.00  0.00    +0.000 A 
ATOM     11  C   UNL     1       4.056   4.834  17.501  0.00  0.00    +0.000 A 
ENDROOT
BRANCH   4  12
ATOM     12  C   UNL     1       1.974   8.211  19.046  0.00  0.00    +0.000 A 
ATOM     13  C   UNL     1       1.544   8.288  20.377  0.00  0.00    +0.000 A 
ATOM     14  C   UNL     1       0.827   9.402  20.823  0.00  0.00    +0.000 A 
ATOM     15  C   UNL     1       0.542  10.440  19.938  0.00  0.00    +0.000 A 
ATOM     16 CL   UNL     1      -0.359  11.803  20.481  0.00  0.00    +0.000 Cl
ATOM     17  C   UNL     1       0.974  10.380  18.614  0.00  0.00    +0.000 A 
ATOM     18  C   UNL     1       1.690   9.266  18.168  0.00  0.00    +0.000 A 
ENDBRANCH   4  12
BRANCH  10  19
ATOM     19  O   UNL     1       4.622   2.502  17.324  0.00  0.00    +0.000 OA
ATOM     20  H   UNL     1       4.783   2.419  18.276  0.00  0.00    +0.000 HD
ENDBRANCH  10  19
TORSDOF 2
ENDMDL
MODEL 4
REMARK VINA RESULT:      -7.3      4.339      5.484
REMARK  Name = 
REMARK  2 active torsions:
REMARK  status: ('A' for Active; 'I' for Inactive)
REMARK    1  A    between atoms: C_4  and  C_5
REMARK    2  A    between atoms: C_17  and  O_18
REMARK                            x       y       z     vdW  Elec       q    Type
REMARK                         _______ _______ _______ _____ _____    ______ ____
ROOT
ATOM      1  O   UNL     1       2.799   3.532  19.065  0.00  0.00    +0.000 OA
ATOM      2  C   UNL     1       3.067   4.615  18.564  0.00  0.00    +0.000 A 
ATOM      3  C   UNL     1       2.369   5.815  19.057  0.00  0.00    +0.000 A 
ATOM      4  C   UNL     1       2.651   7.006  18.519  0.00  0.00    +0.000 A 
ATOM      5  O   UNL     1       3.568   7.222  17.513  0.00  0.00    +0.000 OA
ATOM      6  C   UNL     1       4.252   6.133  17.020  0.00  0.00    +0.000 A 
ATOM      7  C   UNL     1       5.178   6.397  16.008  0.00  0.00    +0.000 A 
ATOM      8  C   UNL     1       5.916   5.354  15.448  0.00  0.00    +0.000 A 
ATOM      9  C   UNL     1       5.725   4.048  15.897  0.00  0.00    +0.000 A 
ATOM     10  C   UNL     1       4.797   3.784  16.909  0.00  0.00    +0.000 A 
ATOM     11  C   UNL     1       4.057   4.826  17.481  0.00  0.00    +0.000 A 
ENDROOT
BRANCH   4  12
ATOM     12  C   UNL     1       1.958   8.206  18.994  0.00  0.00    +0.000 A 
ATOM     13  C   UNL     1       1.776   9.302  18.141  0.00  0.00    +0.000 A 
ATOM     14  C   UNL     1       1.178  10.473  18.615  0.00  0.00    +0.000 A 
ATOM     15  C   UNL     1       0.758  10.548  19.942  0.00  0.00    +0.000 A 
ATOM     16 CL   UNL     1       0.040  11.996  20.532  0.00  0.00    +0.000 Cl
ATOM     17  C   UNL     1       0.923   9.460  20.798  0.00  0.00    +0.000 A 
ATOM     18  C   UNL     1       1.522   8.289  20.324  0.00  0.00    +0.000 A 
ENDBRANCH   4  12
BRANCH  10  19
ATOM     19  O   UNL     1       4.630   2.494  17.323  0.00  0.00    +0.000 OA
ATOM     20  H   UNL     1       3.698   2.315  17.518  0.00  0.00    +0.000 HD
ENDBRANCH  10  19
TORSDOF 2
ENDMDL
MODEL 5
REMARK VINA RESULT:      -7.3      4.273      5.816
REMARK  Name = 
REMARK  2 active torsions:
REMARK  status: ('A' for Active; 'I' for Inactive)
REMARK    1  A    between atoms: C_4  and  C_5
REMARK    2  A    between atoms: C_17  and  O_18
REMARK                            x       y       z     vdW  Elec       q    Type
REMARK                         _______ _______ _______ _____ _____    ______ ____
ROOT
ATOM      1  O   UNL     1       5.454   5.843  16.655  0.00  0.00    +0.000 OA
ATOM      2  C   UNL     1       4.412   5.774  17.291  0.00  0.00    +0.000 A 
ATOM      3  C   UNL     1       3.769   7.025  17.732  0.00  0.00    +0.000 A 
ATOM      4  C   UNL     1       2.629   6.966  18.429  0.00  0.00    +0.000 A 
ATOM      5  O   UNL     1       1.977   5.804  18.781  0.00  0.00    +0.000 OA
ATOM      6  C   UNL     1       2.534   4.608  18.389  0.00  0.00    +0.000 A 
ATOM      7  C   UNL     1       1.837   3.455  18.759  0.00  0.00    +0.000 A 
ATOM      8  C   UNL     1       2.328   2.199  18.405  0.00  0.00    +0.000 A 
ATOM      9  C   UNL     1       3.517   2.094  17.685  0.00  0.00    +0.000 A 
ATOM     10  C   UNL     1       4.216   3.248  17.315  0.00  0.00    +0.000 A 
ATOM     11  C   UNL     1       3.726   4.514  17.661  0.00  0.00    +0.000 A 
ENDROOT
BRANCH   4  12
ATOM     12  C   UNL     1       1.984   8.201  18.882  0.00  0.00    +0.000 A 
ATOM     13  C   UNL     1       1.537   8.322  20.204  0.00  0.00    +0.000 A 
ATOM     14  C   UNL     1       0.859   9.473  20.616  0.00  0.00    +0.000 A 
ATOM     15  C   UNL     1       0.630  10.504  19.707  0.00  0.00    +0.000 A 
ATOM     16 CL   UNL     1      -0.223  11.912  20.209  0.00  0.00    +0.000 Cl
ATOM     17  C   UNL     1       1.080  10.401  18.392  0.00  0.00    +0.000 A 
ATOM     18  C   UNL     1       1.757   9.249  17.979  0.00  0.00    +0.000 A 
ENDBRANCH   4  12
BRANCH  10  19
ATOM     19  O   UNL     1       5.379   3.112  16.615  0.00  0.00    +0.000 OA
ATOM     20  H   UNL     1       5.398   3.721  15.861  0.00  0.00    +0.000 HD
ENDBRANCH  10  19
TORSDOF 2
ENDMDL
MODEL 6
REMARK VINA RESULT:      -7.2      3.981      5.208
REMARK  Name = 
REMARK  2 active torsions:
REMARK  status: ('A' for Active; 'I' for Inactive)
REMARK    1  A    between atoms: C_4  and  C_5
REMARK    2  A    between atoms: C_17  and  O_18
REMARK                            x       y       z     vdW  Elec       q    Type
REMARK                         _______ _______ _______ _____ _____    ______ ____
ROOT
ATOM      1  O   UNL     1       2.921   3.527  17.317  0.00  0.00    +0.000 OA
ATOM      2  C   UNL     1       3.355   4.658  17.487  0.00  0.00    +0.000 A 
ATOM      3  C   UNL     1       2.453   5.688  18.031  0.00  0.00    +0.000 A 
ATOM      4  C   UNL     1       2.912   6.929  18.222  0.00  0.00    +0.000 A 
ATOM      5  O   UNL     1       4.198   7.346  17.952  0.00  0.00    +0.000 OA
ATOM      6  C   UNL     1       5.083   6.420  17.446  0.00  0.00    +0.000 A 
ATOM      7  C   UNL     1       6.377   6.882  17.194  0.00  0.00    +0.000 A 
ATOM      8  C   UNL     1       7.340   6.014  16.681  0.00  0.00    +0.000 A 
ATOM      9  C   UNL     1       7.009   4.686  16.415  0.00  0.00    +0.000 A 
ATOM     10  C   UNL     1       5.713   4.224  16.667  0.00  0.00    +0.000 A 
ATOM     11  C   UNL     1       4.742   5.087  17.189  0.00  0.00    +0.000 A 
ENDROOT
BRANCH   4  12
ATOM     12  C   UNL     1       2.023   7.965  18.754  0.00  0.00    +0.000 A 
ATOM     13  C   UNL     1       1.528   8.971  17.915  0.00  0.00    +0.000 A 
ATOM     14  C   UNL     1       0.737   9.998  18.437  0.00  0.00    +0.000 A 
ATOM     15  C   UNL     1       0.438  10.019  19.798  0.00  0.00    +0.000 A 
ATOM     16 CL   UNL     1      -0.519  11.295  20.444  0.00  0.00    +0.000 Cl
ATOM     17  C   UNL     1       0.915   9.016  20.641  0.00  0.00    +0.000 A 
ATOM     18  C   UNL     1       1.707   7.990  20.119  0.00  0.00    +0.000 A 
ENDBRANCH   4  12
BRANCH  10  19
ATOM     19  O   UNL     1       5.419   2.920  16.392  0.00  0.00    +0.000 OA
ATOM     20  H   UNL     1       6.221   2.432  16.152  0.00  0.00    +0.000 HD
ENDBRANCH  10  19
TORSDOF 2
ENDMDL
MODEL 7
REMARK VINA RESULT:      -7.2      4.304      5.803
REMARK  Name = 
REMARK  2 active torsions:
REMARK  status: ('A' for Active; 'I' for Inactive)
REMARK    1  A    between atoms: C_4  and  C_5
REMARK    2  A    between atoms: C_17  and  O_18
REMARK                            x       y       z     vdW  Elec       q    Type
REMARK                         _______ _______ _______ _____ _____    ______ ____
ROOT
ATOM      1  O   UNL     1       5.377   5.832  16.614  0.00  0.00    +0.000 OA
ATOM      2  C   UNL     1       4.361   5.760  17.291  0.00  0.00    +0.000 A 
ATOM      3  C   UNL     1       3.712   7.008  17.728  0.00  0.00    +0.000 A 
ATOM      4  C   UNL     1       2.601   6.946  18.470  0.00  0.00    +0.000 A 
ATOM      5  O   UNL     1       1.984   5.781  18.873  0.00  0.00    +0.000 OA
ATOM      6  C   UNL     1       2.548   4.586  18.486  0.00  0.00    +0.000 A 
ATOM      7  C   UNL     1       1.886   3.430  18.908  0.00  0.00    +0.000 A 
ATOM      8  C   UNL     1       2.386   2.175  18.563  0.00  0.00    +0.000 A 
ATOM      9  C   UNL     1       3.550   2.075  17.801  0.00  0.00    +0.000 A 
ATOM     10  C   UNL     1       4.212   3.232  17.379  0.00  0.00    +0.000 A 
ATOM     11  C   UNL     1       3.713   4.496  17.715  0.00  0.00    +0.000 A 
ENDROOT
BRANCH   4  12
ATOM     12  C   UNL     1       1.951   8.180  18.919  0.00  0.00    +0.000 A 
ATOM     13  C   UNL     1       1.836   9.274  18.052  0.00  0.00    +0.000 A 
ATOM     14  C   UNL     1       1.278  10.474  18.503  0.00  0.00    +0.000 A 
ATOM     15  C   UNL     1       0.833  10.580  19.819  0.00  0.00    +0.000 A 
ATOM     16 CL   UNL     1       0.166  12.064  20.380  0.00  0.00    +0.000 Cl
ATOM     17  C   UNL     1       0.931   9.494  20.688  0.00  0.00    +0.000 A 
ATOM     18  C   UNL     1       1.490   8.294  20.238  0.00  0.00    +0.000 A 
ENDBRANCH   4  12
BRANCH  10  19
ATOM     19  O   UNL     1       5.350   3.100  16.638  0.00  0.00    +0.000 OA
ATOM     20  H   UNL     1       5.912   2.396  16.995  0.00  0.00    +0.000 HD
ENDBRANCH  10  19
TORSDOF 2
ENDMDL
MODEL 8
REMARK VINA RESULT:      -7.2      4.726      6.928
REMARK  Name = 
REMARK  2 active torsions:
REMARK  status: ('A' for Active; 'I' for Inactive)
REMARK    1  A    between atoms: C_4  and  C_5
REMARK    2  A    between atoms: C_17  and  O_18
REMARK                            x       y       z     vdW  Elec       q    Type
REMARK                         _______ _______ _______ _____ _____    ______ ____
ROOT
ATOM      1  O   UNL     1       4.380   5.459  17.194  0.00  0.00    +0.000 OA
ATOM      2  C   UNL     1       3.652   5.647  18.159  0.00  0.00    +0.000 A 
ATOM      3  C   UNL     1       3.023   6.969  18.323  0.00  0.00    +0.000 A 
ATOM      4  C   UNL     1       2.225   7.190  19.373  0.00  0.00    +0.000 A 
ATOM      5  O   UNL     1       1.925   6.262  20.347  0.00  0.00    +0.000 OA
ATOM      6  C   UNL     1       2.484   5.009  20.237  0.00  0.00    +0.000 A 
ATOM      7  C   UNL     1       2.148   4.096  21.240  0.00  0.00    +0.000 A 
ATOM      8  C   UNL     1       2.668   2.803  21.210  0.00  0.00    +0.000 A 
ATOM      9  C   UNL     1       3.529   2.423  20.181  0.00  0.00    +0.000 A 
ATOM     10  C   UNL     1       3.867   3.337  19.178  0.00  0.00    +0.000 A 
ATOM     11  C   UNL     1       3.343   4.635  19.196  0.00  0.00    +0.000 A 
ENDROOT
BRANCH   4  12
ATOM     12  C   UNL     1       1.599   8.503  19.553  0.00  0.00    +0.000 A 
ATOM     13  C   UNL     1       1.045   8.858  20.790  0.00  0.00    +0.000 A 
ATOM     14  C   UNL     1       0.387  10.081  20.941  0.00  0.00    +0.000 A 
ATOM     15  C   UNL     1       0.285  10.952  19.858  0.00  0.00    +0.000 A 
ATOM     16 CL   UNL     1      -0.544  12.449  20.038  0.00  0.00    +0.000 Cl
ATOM     17  C   UNL     1       0.843  10.615  18.625  0.00  0.00    +0.000 A 
ATOM     18  C   UNL     1       1.500   9.391  18.473  0.00  0.00    +0.000 A 
ENDBRANCH   4  12
BRANCH  10  19
ATOM     19  O   UNL     1       4.714   2.936  18.187  0.00  0.00    +0.000 OA
ATOM     20  H   UNL     1       5.570   3.383  18.267  0.00  0.00    +0.000 HD
ENDBRANCH  10  19
TORSDOF 2
ENDMDL
MODEL 9
REMARK VINA RESULT:      -7.1      4.752      6.877
REMARK  Name = 
REMARK  2 active torsions:
REMARK  status: ('A' for Active; 'I' for Inactive)
REMARK    1  A    between atoms: C_4  and  C_5
REMARK    2  A    between atoms: C_17  and  O_18
REMARK                            x       y       z     vdW  Elec       q    Type
REMARK                         _______ _______ _______ _____ _____    ______ ____
ROOT
ATOM      1  O   UNL     1       4.409   5.483  17.173  0.00  0.00    +0.000 OA
ATOM      2  C   UNL     1       3.676   5.667  18.134  0.00  0.00    +0.000 A 
ATOM      3  C   UNL     1       3.038   6.985  18.295  0.00  0.00    +0.000 A 
ATOM      4  C   UNL     1       2.234   7.202  19.341  0.00  0.00    +0.000 A 
ATOM      5  O   UNL     1       1.934   6.272  20.313  0.00  0.00    +0.000 OA
ATOM      6  C   UNL     1       2.500   5.022  20.206  0.00  0.00    +0.000 A 
ATOM      7  C   UNL     1       2.163   4.107  21.207  0.00  0.00    +0.000 A 
ATOM      8  C   UNL     1       2.691   2.817  21.180  0.00  0.00    +0.000 A 
ATOM      9  C   UNL     1       3.559   2.442  20.155  0.00  0.00    +0.000 A 
ATOM     10  C   UNL     1       3.897   3.358  19.153  0.00  0.00    +0.000 A 
ATOM     11  C   UNL     1       3.366   4.654  19.170  0.00  0.00    +0.000 A 
ENDROOT
BRANCH   4  12
ATOM     12  C   UNL     1       1.600   8.511  19.518  0.00  0.00    +0.000 A 
ATOM     13  C   UNL     1       1.521   9.409  18.446  0.00  0.00    +0.000 A 
ATOM     14  C   UNL     1       0.979  10.684  18.633  0.00  0.00    +0.000 A 
ATOM     15  C   UNL     1       0.514  11.061  19.892  0.00  0.00    +0.000 A 
ATOM     16 CL   UNL     1      -0.133  12.638  20.127  0.00  0.00    +0.000 Cl
ATOM     17  C   UNL     1       0.577  10.172  20.964  0.00  0.00    +0.000 A 
ATOM     18  C   UNL     1       1.120   8.898  20.777  0.00  0.00    +0.000 A 
ENDBRANCH   4  12
BRANCH  10  19
ATOM     19  O   UNL     1       4.752   2.962  18.167  0.00  0.00    +0.000 OA
ATOM     20  H   UNL     1       4.967   2.021  18.257  0.00  0.00    +0.000 HD
ENDBRANCH  10  19
TORSDOF 2
ENDMDL
