MODEL 1
REMARK VINA RESULT:      -6.8      0.000      0.000
REMARK  Name = 
REMARK  5 active torsions:
REMARK  status: ('A' for Active; 'I' for Inactive)
REMARK    1  A    between atoms: C_1  and  N_2
REMARK    2  A    between atoms: N_2  and  C_3
REMARK    3  A    between atoms: N_2  and  C_4
REMARK    4  A    between atoms: N_2  and  C_5
REMARK    5  A    between atoms: C_5  and  C_6
REMARK                            x       y       z     vdW  Elec       q    Type
REMARK                         _______ _______ _______ _____ _____    ______ ____
ROOT
ATOM      1  C   UNL     1       4.648   5.943  18.169  0.00  0.00    +0.000 C 
ATOM      2  C   UNL     1       4.448   5.459  16.720  0.00  0.00    +0.000 C 
ATOM      3  C   UNL     1       4.586   3.950  16.591  0.00  0.00    +0.000 C 
ATOM      4  C   UNL     1       3.365   3.128  16.978  0.00  0.00    +0.000 C 
ATOM      5  C   UNL     1       2.514   3.394  18.207  0.00  0.00    +0.000 A 
ATOM      6  C   UNL     1       1.545   2.384  18.413  0.00  0.00    +0.000 A 
ATOM      7  C   UNL     1       0.602   2.460  19.428  0.00  0.00    +0.000 A 
ATOM      8  C   UNL     1       0.585   3.557  20.268  0.00  0.00    +0.000 A 
ATOM      9  C   UNL     1       1.519   4.574  20.101  0.00  0.00    +0.000 A 
ATOM     10  C   UNL     1       2.510   4.536  19.081  0.00  0.00    +0.000 A 
ATOM     11  C   UNL     1       3.395   5.751  19.000  0.00  0.00    +0.000 C 
ATOM     12  O   UNL     1       3.087   6.716  19.688  0.00  0.00    +0.000 OA
ENDROOT
BRANCH   1  13
ATOM     13  C   UNL     1       5.899   5.428  18.977  0.00  0.00    +0.000 C 
BRANCH  13  15
ATOM     14  C   UNL     1       7.349   6.945  17.690  0.00  0.00    +0.000 C 
ATOM     15  N   UNL     1       7.285   5.661  18.428  0.00  0.00    +0.000 N 
ATOM     16  C   UNL     1       7.799   4.573  17.563  0.00  0.00    +0.000 C 
ATOM     17  C   UNL     1       8.212   5.754  19.586  0.00  0.00    +0.000 C 
ENDBRANCH  13  15
ENDBRANCH   1  13
TORSDOF 2
ENDMDL
MODEL 2
REMARK VINA RESULT:      -6.6      0.081      1.022
REMARK  Name = 
REMARK  5 active torsions:
REMARK  status: ('A' for Active; 'I' for Inactive)
REMARK    1  A    between atoms: C_1  and  N_2
REMARK    2  A    between atoms: N_2  and  C_3
REMARK    3  A    between atoms: N_2  and  C_4
REMARK    4  A    between atoms: N_2  and  C_5
REMARK    5  A    between atoms: C_5  and  C_6
REMARK                            x       y       z     vdW  Elec       q    Type
REMARK                         _______ _______ _______ _____ _____    ______ ____
ROOT
ATOM      1  C   UNL     1       4.648   5.883  18.131  0.00  0.00    +0.000 C 
ATOM      2  C   UNL     1       4.427   5.394  16.687  0.00  0.00    +0.000 C 
ATOM      3  C   UNL     1       4.540   3.882  16.567  0.00  0.00    +0.000 C 
ATOM      4  C   UNL     1       3.309   3.083  16.970  0.00  0.00    +0.000 C 
ATOM      5  C   UNL     1       2.474   3.370  18.205  0.00  0.00    +0.000 A 
ATOM      6  C   UNL     1       1.491   2.377  18.427  0.00  0.00    +0.000 A 
ATOM      7  C   UNL     1       0.559   2.475  19.450  0.00  0.00    +0.000 A 
ATOM      8  C   UNL     1       0.567   3.577  20.283  0.00  0.00    +0.000 A 
ATOM      9  C   UNL     1       1.516   4.579  20.101  0.00  0.00    +0.000 A 
ATOM     10  C   UNL     1       2.496   4.517  19.072  0.00  0.00    +0.000 A 
ATOM     11  C   UNL     1       3.400   5.718  18.975  0.00  0.00    +0.000 C 
ATOM     12  O   UNL     1       3.114   6.692  19.659  0.00  0.00    +0.000 OA
ENDROOT
BRANCH   1  13
ATOM     13  C   UNL     1       5.898   5.354  18.931  0.00  0.00    +0.000 C 
BRANCH  13  15
ATOM     14  C   UNL     1       7.773   4.580  17.535  0.00  0.00    +0.000 C 
ATOM     15  N   UNL     1       7.287   5.660  18.427  0.00  0.00    +0.000 N 
ATOM     16  C   UNL     1       8.291   5.906  19.490  0.00  0.00    +0.000 C 
ATOM     17  C   UNL     1       7.205   6.910  17.627  0.00  0.00    +0.000 C 
ENDBRANCH  13  15
ENDBRANCH   1  13
TORSDOF 2
ENDMDL
MODEL 3
REMARK VINA RESULT:      -6.5      2.135      2.887
REMARK  Name = 
REMARK  5 active torsions:
REMARK  status: ('A' for Active; 'I' for Inactive)
REMARK    1  A    between atoms: C_1  and  N_2
REMARK    2  A    between atoms: N_2  and  C_3
REMARK    3  A    between atoms: N_2  and  C_4
REMARK    4  A    between atoms: N_2  and  C_5
REMARK    5  A    between atoms: C_5  and  C_6
REMARK                            x       y       z     vdW  Elec       q    Type
REMARK                         _______ _______ _______ _____ _____    ______ ____
ROOT
ATOM      1  C   UNL     1       4.874   5.251  18.006  0.00  0.00    +0.000 C 
ATOM      2  C   UNL     1       4.110   6.562  18.268  0.00  0.00    +0.000 C 
ATOM      3  C   UNL     1       2.638   6.456  17.900  0.00  0.00    +0.000 C 
ATOM      4  C   UNL     1       1.736   5.786  18.927  0.00  0.00    +0.000 C 
ATOM      5  C   UNL     1       2.098   4.520  19.682  0.00  0.00    +0.000 A 
ATOM      6  C   UNL     1       1.016   4.028  20.449  0.00  0.00    +0.000 A 
ATOM      7  C   UNL     1       1.141   2.928  21.284  0.00  0.00    +0.000 A 
ATOM      8  C   UNL     1       2.360   2.285  21.395  0.00  0.00    +0.000 A 
ATOM      9  C   UNL     1       3.452   2.736  20.661  0.00  0.00    +0.000 A 
ATOM     10  C   UNL     1       3.368   3.853  19.784  0.00  0.00    +0.000 A 
ATOM     11  C   UNL     1       4.662   4.247  19.121  0.00  0.00    +0.000 C 
ATOM     12  O   UNL     1       5.683   3.694  19.511  0.00  0.00    +0.000 OA
ENDROOT
BRANCH   1  13
ATOM     13  C   UNL     1       4.700   4.534  16.613  0.00  0.00    +0.000 C 
BRANCH  13  15
ATOM     14  C   UNL     1       5.478   6.290  15.072  0.00  0.00    +0.000 C 
ATOM     15  N   UNL     1       5.638   4.873  15.481  0.00  0.00    +0.000 N 
ATOM     16  C   UNL     1       5.509   4.002  14.288  0.00  0.00    +0.000 C 
ATOM     17  C   UNL     1       7.025   4.698  15.984  0.00  0.00    +0.000 C 
ENDBRANCH  13  15
ENDBRANCH   1  13
TORSDOF 2
ENDMDL
MODEL 4
REMARK VINA RESULT:      -6.5      2.486      5.309
REMARK  Name = 
REMARK  5 active torsions:
REMARK  status: ('A' for Active; 'I' for Inactive)
REMARK    1  A    between atoms: C_1  and  N_2
REMARK    2  A    between atoms: N_2  and  C_3
REMARK    3  A    between atoms: N_2  and  C_4
REMARK    4  A    between atoms: N_2  and  C_5
REMARK    5  A    between atoms: C_5  and  C_6
REMARK                            x       y       z     vdW  Elec       q    Type
REMARK                         _______ _______ _______ _____ _____    ______ ____
ROOT
ATOM      1  C   UNL     1       2.273   4.694  18.347  0.00  0.00    +0.000 C 
ATOM      2  C   UNL     1       1.945   6.134  17.908  0.00  0.00    +0.000 C 
ATOM      3  C   UNL     1       3.050   7.113  18.272  0.00  0.00    +0.000 C 
ATOM      4  C   UNL     1       4.247   7.155  17.333  0.00  0.00    +0.000 C 
ATOM      5  C   UNL     1       4.919   5.924  16.753  0.00  0.00    +0.000 A 
ATOM      6  C   UNL     1       6.102   6.244  16.047  0.00  0.00    +0.000 A 
ATOM      7  C   UNL     1       6.836   5.286  15.363  0.00  0.00    +0.000 A 
ATOM      8  C   UNL     1       6.408   3.972  15.348  0.00  0.00    +0.000 A 
ATOM      9  C   UNL     1       5.248   3.613  16.028  0.00  0.00    +0.000 A 
ATOM     10  C   UNL     1       4.468   4.558  16.751  0.00  0.00    +0.000 A 
ATOM     11  C   UNL     1       3.209   4.011  17.370  0.00  0.00    +0.000 C 
ATOM     12  O   UNL     1       2.884   2.870  17.065  0.00  0.00    +0.000 OA
ENDROOT
BRANCH   1  13
ATOM     13  C   UNL     1       2.775   4.442  19.819  0.00  0.00    +0.000 C 
BRANCH  13  15
ATOM     14  C   UNL     1       3.747   2.268  20.444  0.00  0.00    +0.000 C 
ATOM     15  N   UNL     1       2.524   3.105  20.471  0.00  0.00    +0.000 N 
ATOM     16  C   UNL     1       1.393   2.338  19.895  0.00  0.00    +0.000 C 
ATOM     17  C   UNL     1       2.178   3.361  21.894  0.00  0.00    +0.000 C 
ENDBRANCH  13  15
ENDBRANCH   1  13
TORSDOF 2
ENDMDL
MODEL 5
REMARK VINA RESULT:      -6.4      2.142      3.016
REMARK  Name = 
REMARK  5 active torsions:
REMARK  status: ('A' for Active; 'I' for Inactive)
REMARK    1  A    between atoms: C_1  and  N_2
REMARK    2  A    between atoms: N_2  and  C_3
REMARK    3  A    between atoms: N_2  and  C_4
REMARK    4  A    between atoms: N_2  and  C_5
REMARK    5  A    between atoms: C_5  and  C_6
REMARK                            x       y       z     vdW  Elec       q    Type
REMARK                         _______ _______ _______ _____ _____    ______ ____
ROOT
ATOM      1  C   UNL     1       4.935   5.211  18.040  0.00  0.00    +0.000 C 
ATOM      2  C   UNL     1       4.226   6.546  18.334  0.00  0.00    +0.000 C 
ATOM      3  C   UNL     1       2.751   6.510  17.960  0.00  0.00    +0.000 C 
ATOM      4  C   UNL     1       1.819   5.853  18.967  0.00  0.00    +0.000 C 
ATOM      5  C   UNL     1       2.126   4.554  19.691  0.00  0.00    +0.000 A 
ATOM      6  C   UNL     1       1.022   4.088  20.443  0.00  0.00    +0.000 A 
ATOM      7  C   UNL     1       1.098   2.964  21.251  0.00  0.00    +0.000 A 
ATOM      8  C   UNL     1       2.289   2.268  21.348  0.00  0.00    +0.000 A 
ATOM      9  C   UNL     1       3.401   2.692  20.627  0.00  0.00    +0.000 A 
ATOM     10  C   UNL     1       3.367   3.833  19.779  0.00  0.00    +0.000 A 
ATOM     11  C   UNL     1       4.678   4.189  19.129  0.00  0.00    +0.000 C 
ATOM     12  O   UNL     1       5.674   3.584  19.507  0.00  0.00    +0.000 OA
ENDROOT
BRANCH   1  13
ATOM     13  C   UNL     1       4.736   4.537  16.629  0.00  0.00    +0.000 C 
BRANCH  13  15
ATOM     14  C   UNL     1       5.430   4.008  14.327  0.00  0.00    +0.000 C 
ATOM     15  N   UNL     1       5.690   4.867  15.507  0.00  0.00    +0.000 N 
ATOM     16  C   UNL     1       7.125   4.780  15.869  0.00  0.00    +0.000 C 
ATOM     17  C   UNL     1       5.439   6.277  15.110  0.00  0.00    +0.000 C 
ENDBRANCH  13  15
ENDBRANCH   1  13
TORSDOF 2
ENDMDL
MODEL 6
REMARK VINA RESULT:      -6.4      2.494      5.351
REMARK  Name = 
REMARK  5 active torsions:
REMARK  status: ('A' for Active; 'I' for Inactive)
REMARK    1  A    between atoms: C_1  and  N_2
REMARK    2  A    between atoms: N_2  and  C_3
REMARK    3  A    between atoms: N_2  and  C_4
REMARK    4  A    between atoms: N_2  and  C_5
REMARK    5  A    between atoms: C_5  and  C_6
REMARK                            x       y       z     vdW  Elec       q    Type
REMARK                         _______ _______ _______ _____ _____    ______ ____
ROOT
ATOM      1  C   UNL     1       2.291   4.690  18.341  0.00  0.00    +0.000 C 
ATOM      2  C   UNL     1       1.961   6.129  17.900  0.00  0.00    +0.000 C 
ATOM      3  C   UNL     1       3.069   7.109  18.255  0.00  0.00    +0.000 C 
ATOM      4  C   UNL     1       4.259   7.147  17.308  0.00  0.00    +0.000 C 
ATOM      5  C   UNL     1       4.927   5.914  16.727  0.00  0.00    +0.000 A 
ATOM      6  C   UNL     1       6.106   6.231  16.013  0.00  0.00    +0.000 A 
ATOM      7  C   UNL     1       6.836   5.271  15.327  0.00  0.00    +0.000 A 
ATOM      8  C   UNL     1       6.406   3.958  15.319  0.00  0.00    +0.000 A 
ATOM      9  C   UNL     1       5.251   3.601  16.008  0.00  0.00    +0.000 A 
ATOM     10  C   UNL     1       4.476   4.548  16.732  0.00  0.00    +0.000 A 
ATOM     11  C   UNL     1       3.220   4.003  17.361  0.00  0.00    +0.000 C 
ATOM     12  O   UNL     1       2.893   2.862  17.061  0.00  0.00    +0.000 OA
ENDROOT
BRANCH   1  13
ATOM     13  C   UNL     1       2.802   4.442  19.811  0.00  0.00    +0.000 C 
BRANCH  13  15
ATOM     14  C   UNL     1       1.313   2.482  19.840  0.00  0.00    +0.000 C 
ATOM     15  N   UNL     1       2.450   3.153  20.513  0.00  0.00    +0.000 N 
ATOM     16  C   UNL     1       2.148   3.298  21.957  0.00  0.00    +0.000 C 
ATOM     17  C   UNL     1       3.632   2.257  20.416  0.00  0.00    +0.000 C 
ENDBRANCH  13  15
ENDBRANCH   1  13
TORSDOF 2
ENDMDL
MODEL 7
REMARK VINA RESULT:      -6.4      2.341      5.493
REMARK  Name = 
REMARK  5 active torsions:
REMARK  status: ('A' for Active; 'I' for Inactive)
REMARK    1  A    between atoms: C_1  and  N_2
REMARK    2  A    between atoms: N_2  and  C_3
REMARK    3  A    between atoms: N_2  and  C_4
REMARK    4  A    between atoms: N_2  and  C_5
REMARK    5  A    between atoms: C_5  and  C_6
REMARK                            x       y       z     vdW  Elec       q    Type
REMARK                         _______ _______ _______ _____ _____    ______ ____
ROOT
ATOM      1  C   UNL     1       2.460   4.303  18.248  0.00  0.00    +0.000 C 
ATOM      2  C   UNL     1       1.838   5.572  17.635  0.00  0.00    +0.000 C 
ATOM      3  C   UNL     1       2.376   6.844  18.272  0.00  0.00    +0.000 C 
ATOM      4  C   UNL     1       3.728   7.327  17.769  0.00  0.00    +0.000 C 
ATOM      5  C   UNL     1       4.918   6.419  17.516  0.00  0.00    +0.000 A 
ATOM      6  C   UNL     1       6.091   7.148  17.210  0.00  0.00    +0.000 A 
ATOM      7  C   UNL     1       7.280   6.523  16.862  0.00  0.00    +0.000 A 
ATOM      8  C   UNL     1       7.338   5.144  16.795  0.00  0.00    +0.000 A 
ATOM      9  C   UNL     1       6.207   4.387  17.087  0.00  0.00    +0.000 A 
ATOM     10  C   UNL     1       4.970   4.983  17.457  0.00  0.00    +0.000 A 
ATOM     11  C   UNL     1       3.832   4.019  17.671  0.00  0.00    +0.000 C 
ATOM     12  O   UNL     1       4.020   2.851  17.352  0.00  0.00    +0.000 OA
ENDROOT
BRANCH   1  13
ATOM     13  C   UNL     1       2.510   4.161  19.817  0.00  0.00    +0.000 C 
BRANCH  13  15
ATOM     14  C   UNL     1       1.565   1.910  19.495  0.00  0.00    +0.000 C 
ATOM     15  N   UNL     1       2.249   2.815  20.449  0.00  0.00    +0.000 N 
ATOM     16  C   UNL     1       1.479   2.865  21.714  0.00  0.00    +0.000 C 
ATOM     17  C   UNL     1       3.568   2.216  20.780  0.00  0.00    +0.000 C 
ENDBRANCH  13  15
ENDBRANCH   1  13
TORSDOF 2
ENDMDL
MODEL 8
REMARK VINA RESULT:      -6.3      2.334      5.479
REMARK  Name = 
REMARK  5 active torsions:
REMARK  status: ('A' for Active; 'I' for Inactive)
REMARK    1  A    between atoms: C_1  and  N_2
REMARK    2  A    between atoms: N_2  and  C_3
REMARK    3  A    between atoms: N_2  and  C_4
REMARK    4  A    between atoms: N_2  and  C_5
REMARK    5  A    between atoms: C_5  and  C_6
REMARK                            x       y       z     vdW  Elec       q    Type
REMARK                         _______ _______ _______ _____ _____    ______ ____
ROOT
ATOM      1  C   UNL     1       2.458   4.310  18.276  0.00  0.00    +0.000 C 
ATOM      2  C   UNL     1       1.831   5.575  17.659  0.00  0.00    +0.000 C 
ATOM      3  C   UNL     1       2.375   6.852  18.282  0.00  0.00    +0.000 C 
ATOM      4  C   UNL     1       3.723   7.330  17.764  0.00  0.00    +0.000 C 
ATOM      5  C   UNL     1       4.910   6.419  17.509  0.00  0.00    +0.000 A 
ATOM      6  C   UNL     1       6.081   7.145  17.188  0.00  0.00    +0.000 A 
ATOM      7  C   UNL     1       7.267   6.518  16.835  0.00  0.00    +0.000 A 
ATOM      8  C   UNL     1       7.324   5.139  16.778  0.00  0.00    +0.000 A 
ATOM      9  C   UNL     1       6.195   4.384  17.085  0.00  0.00    +0.000 A 
ATOM     10  C   UNL     1       4.961   4.983  17.460  0.00  0.00    +0.000 A 
ATOM     11  C   UNL     1       3.825   4.021  17.691  0.00  0.00    +0.000 C 
ATOM     12  O   UNL     1       4.009   2.851  17.379  0.00  0.00    +0.000 OA
ENDROOT
BRANCH   1  13
ATOM     13  C   UNL     1       2.520   4.180  19.846  0.00  0.00    +0.000 C 
BRANCH  13  15
ATOM     14  C   UNL     1       1.597   2.904  21.739  0.00  0.00    +0.000 C 
ATOM     15  N   UNL     1       2.383   2.819  20.484  0.00  0.00    +0.000 N 
ATOM     16  C   UNL     1       3.667   2.131  20.756  0.00  0.00    +0.000 C 
ATOM     17  C   UNL     1       1.634   1.956  19.534  0.00  0.00    +0.000 C 
ENDBRANCH  13  15
ENDBRANCH   1  13
TORSDOF 2
ENDMDL
MODEL 9
REMARK VINA RESULT:      -6.2      2.887      5.065
REMARK  Name = 
REMARK  5 active torsions:
REMARK  status: ('A' for Active; 'I' for Inactive)
REMARK    1  A    between atoms: C_1  and  N_2
REMARK    2  A    between atoms: N_2  and  C_3
REMARK    3  A    between atoms: N_2  and  C_4
REMARK    4  A    between atoms: N_2  and  C_5
REMARK    5  A    between atoms: C_5  and  C_6
REMARK                            x       y       z     vdW  Elec       q    Type
REMARK                         _______ _______ _______ _____ _____    ______ ____
ROOT
ATOM      1  C   UNL     1       3.279   5.066  19.393  0.00  0.00    +0.000 C 
ATOM      2  C   UNL     1       4.549   5.579  18.688  0.00  0.00    +0.000 C 
ATOM      3  C   UNL     1       4.257   6.130  17.301  0.00  0.00    +0.000 C 
ATOM      4  C   UNL     1       3.715   7.551  17.244  0.00  0.00    +0.000 C 
ATOM      5  C   UNL     1       2.643   8.092  18.172  0.00  0.00    +0.000 A 
ATOM      6  C   UNL     1       2.213   9.386  17.794  0.00  0.00    +0.000 A 
ATOM      7  C   UNL     1       1.299  10.110  18.545  0.00  0.00    +0.000 A 
ATOM      8  C   UNL     1       0.789   9.572  19.712  0.00  0.00    +0.000 A 
ATOM      9  C   UNL     1       1.186   8.303  20.123  0.00  0.00    +0.000 A 
ATOM     10  C   UNL     1       2.113   7.520  19.381  0.00  0.00    +0.000 A 
ATOM     11  C   UNL     1       2.482   6.200  20.005  0.00  0.00    +0.000 C 
ATOM     12  O   UNL     1       2.096   5.993  21.149  0.00  0.00    +0.000 OA
ENDROOT
BRANCH   1  13
ATOM     13  C   UNL     1       2.307   4.106  18.606  0.00  0.00    +0.000 C 
BRANCH  13  15
ATOM     14  C   UNL     1       0.717   2.230  18.737  0.00  0.00    +0.000 C 
ATOM     15  N   UNL     1       2.067   2.708  19.121  0.00  0.00    +0.000 N 
ATOM     16  C   UNL     1       2.244   2.548  20.585  0.00  0.00    +0.000 C 
ATOM     17  C   UNL     1       3.066   1.818  18.475  0.00  0.00    +0.000 C 
ENDBRANCH  13  15
ENDBRANCH   1  13
TORSDOF 2
ENDMDL
