MODEL 1
REMARK VINA RESULT:      -7.3      0.000      0.000
REMARK  Name = 
REMARK  8 active torsions:
REMARK  status: ('A' for Active; 'I' for Inactive)
REMARK    1  A    between atoms: C_1  and  C_2
REMARK    2  A    between atoms: C_3  and  C_4
REMARK    3  A    between atoms: N_13  and  C_14
REMARK    4  A    between atoms: C_14  and  C_15
REMARK    5  A    between atoms: C_15  and  N_16
REMARK    6  A    between atoms: C_15  and  C_17
REMARK    7  A    between atoms: N_25  and  C_26
REMARK    8  A    between atoms: C_26  and  C_27
REMARK                            x       y       z     vdW  Elec       q    Type
REMARK                         _______ _______ _______ _____ _____    ______ ____
ROOT
ATOM      1  C   UNL     1       1.055   7.279  21.214  0.00  0.00    +0.000 C 
ATOM      2  C   UNL     1       1.855   7.196  19.929  0.00  0.00    +0.000 A 
ATOM      3  C   UNL     1       2.280   5.994  19.488  0.00  0.00    +0.000 A 
ATOM      4  C   UNL     1       2.669   5.972  18.059  0.00  0.00    +0.000 A 
ATOM      5  O   UNL     1       2.265   5.049  17.333  0.00  0.00    +0.000 OA
ATOM      6  N   UNL     1       3.395   7.041  17.629  0.00  0.00    +0.000 N 
ATOM      7  C   UNL     1       2.899   8.287  17.974  0.00  0.00    +0.000 A 
ATOM      8  O   UNL     1       3.032   9.277  17.245  0.00  0.00    +0.000 OA
ATOM      9  N   UNL     1       2.114   8.344  19.153  0.00  0.00    +0.000 N 
ENDROOT
BRANCH   3  10
ATOM     10  C   UNL     1       2.251   4.722  20.217  0.00  0.00    +0.000 A 
ATOM     11  C   UNL     1       1.046   4.185  20.682  0.00  0.00    +0.000 A 
ATOM     12  C   UNL     1       1.024   2.928  21.288  0.00  0.00    +0.000 A 
ATOM     13  C   UNL     1       2.202   2.191  21.426  0.00  0.00    +0.000 A 
ATOM     14  C   UNL     1       3.412   2.717  20.979  0.00  0.00    +0.000 A 
ATOM     15  C   UNL     1       3.426   3.982  20.387  0.00  0.00    +0.000 A 
ATOM     16  F   UNL     1       4.604   4.469  19.959  0.00  0.00    +0.000 F 
ENDBRANCH   3  10
BRANCH   6  17
ATOM     17  C   UNL     1       4.038   6.885  16.314  0.00  0.00    +0.000 C 
BRANCH  17  18
ATOM     18  C   UNL     1       5.283   5.945  16.211  0.00  0.00    +0.000 C 
BRANCH  18  19
ATOM     19  C   UNL     1       6.362   6.419  17.188  0.00  0.00    +0.000 A 
ATOM     20  C   UNL     1       6.806   5.569  18.216  0.00  0.00    +0.000 A 
ATOM     21  C   UNL     1       7.832   5.965  19.083  0.00  0.00    +0.000 A 
ATOM     22  C   UNL     1       8.416   7.218  18.944  0.00  0.00    +0.000 A 
ATOM     23  C   UNL     1       7.976   8.084  17.946  0.00  0.00    +0.000 A 
ATOM     24  C   UNL     1       6.957   7.689  17.073  0.00  0.00    +0.000 A 
ENDBRANCH  18  19
BRANCH  18  25
ATOM     25  N   UNL     1       5.048   4.507  16.358  0.00  0.00    +0.000 NA
ATOM     26  H   UNL     1       4.502   4.159  15.567  0.00  0.00    +0.000 HD
ATOM     27  H   UNL     1       4.516   4.324  17.206  0.00  0.00    +0.000 HD
ENDBRANCH  18  25
ENDBRANCH  17  18
ENDBRANCH   6  17
BRANCH   9  28
ATOM     28  C   UNL     1       1.663   9.701  19.531  0.00  0.00    +0.000 C 
BRANCH  28  29
ATOM     29  C   UNL     1       0.331  10.153  18.955  0.00  0.00    +0.000 A 
ATOM     30  C   UNL     1      -0.192   9.591  17.781  0.00  0.00    +0.000 A 
ATOM     31  C   UNL     1      -1.525   9.799  17.419  0.00  0.00    +0.000 A 
ATOM     32  C   UNL     1      -2.345  10.602  18.204  0.00  0.00    +0.000 A 
ATOM     33  C   UNL     1      -1.806  11.284  19.292  0.00  0.00    +0.000 A 
ATOM     34  C   UNL     1      -0.467  11.083  19.648  0.00  0.00    +0.000 A 
ATOM     35 CL   UNL     1       0.137  11.985  20.996  0.00  0.00    +0.000 Cl
ENDBRANCH  28  29
ENDBRANCH   9  28
TORSDOF 7
ENDMDL
MODEL 2
REMARK VINA RESULT:      -7.2      3.771      7.144
REMARK  Name = 
REMARK  8 active torsions:
REMARK  status: ('A' for Active; 'I' for Inactive)
REMARK    1  A    between atoms: C_1  and  C_2
REMARK    2  A    between atoms: C_3  and  C_4
REMARK    3  A    between atoms: N_13  and  C_14
REMARK    4  A    between atoms: C_14  and  C_15
REMARK    5  A    between atoms: C_15  and  N_16
REMARK    6  A    between atoms: C_15  and  C_17
REMARK    7  A    between atoms: N_25  and  C_26
REMARK    8  A    between atoms: C_26  and  C_27
REMARK                            x       y       z     vdW  Elec       q    Type
REMARK                         _______ _______ _______ _____ _____    ______ ____
ROOT
ATOM      1  C   UNL     1      -0.409  14.154  18.616  0.00  0.00    +0.000 C 
ATOM      2  C   UNL     1       0.039  12.742  18.937  0.00  0.00    +0.000 A 
ATOM      3  C   UNL     1       1.015  12.545  19.848  0.00  0.00    +0.000 A 
ATOM      4  C   UNL     1       1.080  11.165  20.383  0.00  0.00    +0.000 A 
ATOM      5  O   UNL     1       1.191  10.992  21.608  0.00  0.00    +0.000 OA
ATOM      6  N   UNL     1       0.931  10.171  19.465  0.00  0.00    +0.000 N 
ATOM      7  C   UNL     1      -0.143  10.301  18.601  0.00  0.00    +0.000 A 
ATOM      8  O   UNL     1      -0.760   9.324  18.161  0.00  0.00    +0.000 OA
ATOM      9  N   UNL     1      -0.583  11.624  18.344  0.00  0.00    +0.000 N 
ENDROOT
BRANCH   3  10
ATOM     10  C   UNL     1       1.882  13.563  20.450  0.00  0.00    +0.000 A 
ATOM     11  C   UNL     1       3.132  13.864  19.898  0.00  0.00    +0.000 A 
ATOM     12  C   UNL     1       3.902  14.902  20.425  0.00  0.00    +0.000 A 
ATOM     13  C   UNL     1       3.427  15.655  21.500  0.00  0.00    +0.000 A 
ATOM     14  C   UNL     1       2.190  15.361  22.069  0.00  0.00    +0.000 A 
ATOM     15  C   UNL     1       1.434  14.311  21.544  0.00  0.00    +0.000 A 
ATOM     16  F   UNL     1       0.241  14.046  22.105  0.00  0.00    +0.000 F 
ENDBRANCH   3  10
BRANCH   6  17
ATOM     17  C   UNL     1       1.296   8.821  19.927  0.00  0.00    +0.000 C 
BRANCH  17  18
ATOM     18  C   UNL     1       2.312   7.999  19.069  0.00  0.00    +0.000 C 
BRANCH  18  19
ATOM     19  C   UNL     1       2.030   6.505  19.236  0.00  0.00    +0.000 A 
ATOM     20  C   UNL     1       2.141   5.638  18.135  0.00  0.00    +0.000 A 
ATOM     21  C   UNL     1       1.943   4.260  18.282  0.00  0.00    +0.000 A 
ATOM     22  C   UNL     1       1.616   3.733  19.525  0.00  0.00    +0.000 A 
ATOM     23  C   UNL     1       1.478   4.576  20.625  0.00  0.00    +0.000 A 
ATOM     24  C   UNL     1       1.685   5.952  20.483  0.00  0.00    +0.000 A 
ENDBRANCH  18  19
BRANCH  18  25
ATOM     25  N   UNL     1       2.425   8.349  17.652  0.00  0.00    +0.000 NA
ATOM     26  H   UNL     1       1.737   7.826  17.106  0.00  0.00    +0.000 HD
ATOM     27  H   UNL     1       3.348   8.103  17.302  0.00  0.00    +0.000 HD
ENDBRANCH  18  25
ENDBRANCH  17  18
ENDBRANCH   6  17
BRANCH   9  28
ATOM     28  C   UNL     1      -1.682  11.730  17.360  0.00  0.00    +0.000 C 
BRANCH  28  29
ATOM     29  C   UNL     1      -3.094  11.694  17.921  0.00  0.00    +0.000 A 
ATOM     30  C   UNL     1      -3.378  12.117  19.229  0.00  0.00    +0.000 A 
ATOM     31  C   UNL     1      -4.692  12.351  19.636  0.00  0.00    +0.000 A 
ATOM     32  C   UNL     1      -5.747  12.131  18.757  0.00  0.00    +0.000 A 
ATOM     33  C   UNL     1      -5.496  11.575  17.505  0.00  0.00    +0.000 A 
ATOM     34  C   UNL     1      -4.179  11.331  17.100  0.00  0.00    +0.000 A 
ATOM     35 CL   UNL     1      -3.949  10.616  15.541  0.00  0.00    +0.000 Cl
ENDBRANCH  28  29
ENDBRANCH   9  28
TORSDOF 7
ENDMDL
MODEL 3
REMARK VINA RESULT:      -7.2      4.801      7.859
REMARK  Name = 
REMARK  8 active torsions:
REMARK  status: ('A' for Active; 'I' for Inactive)
REMARK    1  A    between atoms: C_1  and  C_2
REMARK    2  A    between atoms: C_3  and  C_4
REMARK    3  A    between atoms: N_13  and  C_14
REMARK    4  A    between atoms: C_14  and  C_15
REMARK    5  A    between atoms: C_15  and  N_16
REMARK    6  A    between atoms: C_15  and  C_17
REMARK    7  A    between atoms: N_25  and  C_26
REMARK    8  A    between atoms: C_26  and  C_27
REMARK                            x       y       z     vdW  Elec       q    Type
REMARK                         _______ _______ _______ _____ _____    ______ ____
ROOT
ATOM      1  C   UNL     1      -0.929  15.509  21.521  0.00  0.00    +0.000 C 
ATOM      2  C   UNL     1      -0.429  14.213  20.914  0.00  0.00    +0.000 A 
ATOM      3  C   UNL     1      -1.185  13.100  21.006  0.00  0.00    +0.000 A 
ATOM      4  C   UNL     1      -0.818  12.032  20.048  0.00  0.00    +0.000 A 
ATOM      5  O   UNL     1      -1.712  11.457  19.406  0.00  0.00    +0.000 OA
ATOM      6  N   UNL     1       0.517  11.818  19.887  0.00  0.00    +0.000 N 
ATOM      7  C   UNL     1       1.289  12.946  19.669  0.00  0.00    +0.000 A 
ATOM      8  O   UNL     1       2.300  12.928  18.958  0.00  0.00    +0.000 OA
ATOM      9  N   UNL     1       0.788  14.161  20.202  0.00  0.00    +0.000 N 
ENDROOT
BRANCH   3  10
ATOM     10  C   UNL     1      -2.386  12.911  21.826  0.00  0.00    +0.000 A 
ATOM     11  C   UNL     1      -2.298  12.421  23.133  0.00  0.00    +0.000 A 
ATOM     12  C   UNL     1      -3.439  12.339  23.933  0.00  0.00    +0.000 A 
ATOM     13  C   UNL     1      -4.676  12.756  23.439  0.00  0.00    +0.000 A 
ATOM     14  C   UNL     1      -4.783  13.237  22.136  0.00  0.00    +0.000 A 
ATOM     15  C   UNL     1      -3.638  13.301  21.339  0.00  0.00    +0.000 A 
ATOM     16  F   UNL     1      -3.763  13.771  20.085  0.00  0.00    +0.000 F 
ENDBRANCH   3  10
BRANCH   6  17
ATOM     17  C   UNL     1       0.881  10.576  19.185  0.00  0.00    +0.000 C 
BRANCH  17  18
ATOM     18  C   UNL     1       0.891   9.244  20.003  0.00  0.00    +0.000 C 
BRANCH  18  19
ATOM     19  C   UNL     1       1.854   8.250  19.349  0.00  0.00    +0.000 A 
ATOM     20  C   UNL     1       2.186   7.053  20.005  0.00  0.00    +0.000 A 
ATOM     21  C   UNL     1       3.020   6.107  19.396  0.00  0.00    +0.000 A 
ATOM     22  C   UNL     1       3.545   6.352  18.134  0.00  0.00    +0.000 A 
ATOM     23  C   UNL     1       3.247   7.542  17.475  0.00  0.00    +0.000 A 
ATOM     24  C   UNL     1       2.407   8.485  18.076  0.00  0.00    +0.000 A 
ENDBRANCH  18  19
BRANCH  18  25
ATOM     25  N   UNL     1       1.150   9.345  21.440  0.00  0.00    +0.000 NA
ATOM     26  H   UNL     1       2.125   9.106  21.638  0.00  0.00    +0.000 HD
ATOM     27  H   UNL     1       0.562   8.690  21.950  0.00  0.00    +0.000 HD
ENDBRANCH  18  25
ENDBRANCH  17  18
ENDBRANCH   6  17
BRANCH   9  28
ATOM     28  C   UNL     1       1.673  15.330  20.015  0.00  0.00    +0.000 C 
BRANCH  28  29
ATOM     29  C   UNL     1       1.423  16.173  18.775  0.00  0.00    +0.000 A 
ATOM     30  C   UNL     1       0.163  16.730  18.506  0.00  0.00    +0.000 A 
ATOM     31  C   UNL     1       0.012  17.723  17.537  0.00  0.00    +0.000 A 
ATOM     32  C   UNL     1       1.108  18.150  16.796  0.00  0.00    +0.000 A 
ATOM     33  C   UNL     1       2.335  17.510  16.948  0.00  0.00    +0.000 A 
ATOM     34  C   UNL     1       2.484  16.506  17.913  0.00  0.00    +0.000 A 
ATOM     35 CL   UNL     1       4.032  15.740  18.025  0.00  0.00    +0.000 Cl
ENDBRANCH  28  29
ENDBRANCH   9  28
TORSDOF 7
ENDMDL
MODEL 4
REMARK VINA RESULT:      -7.1      2.442      6.963
REMARK  Name = 
REMARK  8 active torsions:
REMARK  status: ('A' for Active; 'I' for Inactive)
REMARK    1  A    between atoms: C_1  and  C_2
REMARK    2  A    between atoms: C_3  and  C_4
REMARK    3  A    between atoms: N_13  and  C_14
REMARK    4  A    between atoms: C_14  and  C_15
REMARK    5  A    between atoms: C_15  and  N_16
REMARK    6  A    between atoms: C_15  and  C_17
REMARK    7  A    between atoms: N_25  and  C_26
REMARK    8  A    between atoms: C_26  and  C_27
REMARK                            x       y       z     vdW  Elec       q    Type
REMARK                         _______ _______ _______ _____ _____    ______ ____
ROOT
ATOM      1  C   UNL     1       4.583   4.859  18.273  0.00  0.00    +0.000 C 
ATOM      2  C   UNL     1       3.623   6.013  18.488  0.00  0.00    +0.000 A 
ATOM      3  C   UNL     1       2.609   5.879  19.367  0.00  0.00    +0.000 A 
ATOM      4  C   UNL     1       2.007   7.160  19.803  0.00  0.00    +0.000 A 
ATOM      5  O   UNL     1       1.789   7.349  21.010  0.00  0.00    +0.000 OA
ATOM      6  N   UNL     1       1.809   8.082  18.821  0.00  0.00    +0.000 N 
ATOM      7  C   UNL     1       2.888   8.317  17.986  0.00  0.00    +0.000 A 
ATOM      8  O   UNL     1       3.110   9.427  17.488  0.00  0.00    +0.000 OA
ATOM      9  N   UNL     1       3.804   7.246  17.828  0.00  0.00    +0.000 N 
ENDROOT
BRANCH   3  10
ATOM     10  C   UNL     1       2.164   4.645  20.023  0.00  0.00    +0.000 A 
ATOM     11  C   UNL     1       2.536   4.354  21.340  0.00  0.00    +0.000 A 
ATOM     12  C   UNL     1       2.026   3.224  21.982  0.00  0.00    +0.000 A 
ATOM     13  C   UNL     1       1.131   2.382  21.319  0.00  0.00    +0.000 A 
ATOM     14  C   UNL     1       0.758   2.652  20.004  0.00  0.00    +0.000 A 
ATOM     15  C   UNL     1       1.287   3.777  19.366  0.00  0.00    +0.000 A 
ATOM     16  F   UNL     1       0.911   4.021  18.098  0.00  0.00    +0.000 F 
ENDBRANCH   3  10
BRANCH   6  17
ATOM     17  C   UNL     1       0.944   9.218  19.181  0.00  0.00    +0.000 C 
BRANCH  17  18
ATOM     18  C   UNL     1       0.585  10.253  18.066  0.00  0.00    +0.000 C 
BRANCH  18  19
ATOM     19  C   UNL     1      -0.929  10.476  18.045  0.00  0.00    +0.000 A 
ATOM     20  C   UNL     1      -1.513  11.428  18.897  0.00  0.00    +0.000 A 
ATOM     21  C   UNL     1      -2.889  11.686  18.851  0.00  0.00    +0.000 A 
ATOM     22  C   UNL     1      -3.699  10.987  17.965  0.00  0.00    +0.000 A 
ATOM     23  C   UNL     1      -3.143  10.023  17.127  0.00  0.00    +0.000 A 
ATOM     24  C   UNL     1      -1.768   9.769  17.164  0.00  0.00    +0.000 A 
ENDBRANCH  18  19
BRANCH  18  25
ATOM     25  N   UNL     1       1.296  11.532  18.089  0.00  0.00    +0.000 NA
ATOM     26  H   UNL     1       1.474  11.817  19.055  0.00  0.00    +0.000 HD
ATOM     27  H   UNL     1       0.730  12.256  17.652  0.00  0.00    +0.000 HD
ENDBRANCH  18  25
ENDBRANCH  17  18
ENDBRANCH   6  17
BRANCH   9  28
ATOM     28  C   UNL     1       4.902   7.507  16.873  0.00  0.00    +0.000 C 
BRANCH  28  29
ATOM     29  C   UNL     1       5.540   6.286  16.231  0.00  0.00    +0.000 A 
ATOM     30  C   UNL     1       4.900   5.574  15.205  0.00  0.00    +0.000 A 
ATOM     31  C   UNL     1       5.600   4.645  14.433  0.00  0.00    +0.000 A 
ATOM     32  C   UNL     1       6.940   4.384  14.698  0.00  0.00    +0.000 A 
ATOM     33  C   UNL     1       7.553   4.974  15.800  0.00  0.00    +0.000 A 
ATOM     34  C   UNL     1       6.847   5.898  16.581  0.00  0.00    +0.000 A 
ATOM     35 CL   UNL     1       7.668   6.568  17.949  0.00  0.00    +0.000 Cl
ENDBRANCH  28  29
ENDBRANCH   9  28
TORSDOF 7
ENDMDL
MODEL 5
REMARK VINA RESULT:      -7.0      5.256      8.539
REMARK  Name = 
REMARK  8 active torsions:
REMARK  status: ('A' for Active; 'I' for Inactive)
REMARK    1  A    between atoms: C_1  and  C_2
REMARK    2  A    between atoms: C_3  and  C_4
REMARK    3  A    between atoms: N_13  and  C_14
REMARK    4  A    between atoms: C_14  and  C_15
REMARK    5  A    between atoms: C_15  and  N_16
REMARK    6  A    between atoms: C_15  and  C_17
REMARK    7  A    between atoms: N_25  and  C_26
REMARK    8  A    between atoms: C_26  and  C_27
REMARK                            x       y       z     vdW  Elec       q    Type
REMARK                         _______ _______ _______ _____ _____    ______ ____
ROOT
ATOM      1  C   UNL     1      -2.127  16.108  21.772  0.00  0.00    +0.000 C 
ATOM      2  C   UNL     1      -1.319  14.908  21.320  0.00  0.00    +0.000 A 
ATOM      3  C   UNL     1      -1.833  13.668  21.461  0.00  0.00    +0.000 A 
ATOM      4  C   UNL     1      -1.172  12.636  20.630  0.00  0.00    +0.000 A 
ATOM      5  O   UNL     1      -1.870  11.837  19.984  0.00  0.00    +0.000 OA
ATOM      6  N   UNL     1       0.187  12.701  20.581  0.00  0.00    +0.000 N 
ATOM      7  C   UNL     1       0.724  13.948  20.314  0.00  0.00    +0.000 A 
ATOM      8  O   UNL     1       1.774  14.094  19.678  0.00  0.00    +0.000 OA
ATOM      9  N   UNL     1      -0.062  15.064  20.700  0.00  0.00    +0.000 N 
ENDROOT
BRANCH   3  10
ATOM     10  C   UNL     1      -3.035  13.289  22.212  0.00  0.00    +0.000 A 
ATOM     11  C   UNL     1      -2.955  12.904  23.554  0.00  0.00    +0.000 A 
ATOM     12  C   UNL     1      -4.117  12.640  24.280  0.00  0.00    +0.000 A 
ATOM     13  C   UNL     1      -5.370  12.769  23.676  0.00  0.00    +0.000 A 
ATOM     14  C   UNL     1      -5.466  13.140  22.337  0.00  0.00    +0.000 A 
ATOM     15  C   UNL     1      -4.296  13.388  21.615  0.00  0.00    +0.000 A 
ATOM     16  F   UNL     1      -4.412  13.749  20.325  0.00  0.00    +0.000 F 
ENDBRANCH   3  10
BRANCH   6  17
ATOM     17  C   UNL     1       0.859  11.516  20.020  0.00  0.00    +0.000 C 
BRANCH  17  18
ATOM     18  C   UNL     1       0.624  10.138  20.718  0.00  0.00    +0.000 C 
BRANCH  18  19
ATOM     19  C   UNL     1       1.311   9.033  19.911  0.00  0.00    +0.000 A 
ATOM     20  C   UNL     1       1.729   7.852  20.545  0.00  0.00    +0.000 A 
ATOM     21  C   UNL     1       2.307   6.808  19.813  0.00  0.00    +0.000 A 
ATOM     22  C   UNL     1       2.488   6.937  18.442  0.00  0.00    +0.000 A 
ATOM     23  C   UNL     1       2.102   8.109  17.796  0.00  0.00    +0.000 A 
ATOM     24  C   UNL     1       1.516   9.150  18.523  0.00  0.00    +0.000 A 
ENDBRANCH  18  19
BRANCH  18  25
ATOM     25  N   UNL     1       0.977  10.038  22.135  0.00  0.00    +0.000 NA
ATOM     26  H   UNL     1       1.387  10.918  22.457  0.00  0.00    +0.000 HD
ATOM     27  H   UNL     1       1.670   9.306  22.273  0.00  0.00    +0.000 HD
ENDBRANCH  18  25
ENDBRANCH  17  18
ENDBRANCH   6  17
BRANCH   9  28
ATOM     28  C   UNL     1       0.575  16.379  20.468  0.00  0.00    +0.000 C 
BRANCH  28  29
ATOM     29  C   UNL     1       0.353  17.003  19.101  0.00  0.00    +0.000 A 
ATOM     30  C   UNL     1      -0.929  17.356  18.652  0.00  0.00    +0.000 A 
ATOM     31  C   UNL     1      -1.095  18.178  17.536  0.00  0.00    +0.000 A 
ATOM     32  C   UNL     1       0.013  18.630  16.828  0.00  0.00    +0.000 A 
ATOM     33  C   UNL     1       1.283  18.174  17.171  0.00  0.00    +0.000 A 
ATOM     34  C   UNL     1       1.449  17.340  18.284  0.00  0.00    +0.000 A 
ATOM     35 CL   UNL     1       3.054  16.795  18.632  0.00  0.00    +0.000 Cl
ENDBRANCH  28  29
ENDBRANCH   9  28
TORSDOF 7
ENDMDL
MODEL 6
REMARK VINA RESULT:      -7.0      7.088     10.171
REMARK  Name = 
REMARK  8 active torsions:
REMARK  status: ('A' for Active; 'I' for Inactive)
REMARK    1  A    between atoms: C_1  and  C_2
REMARK    2  A    between atoms: C_3  and  C_4
REMARK    3  A    between atoms: N_13  and  C_14
REMARK    4  A    between atoms: C_14  and  C_15
REMARK    5  A    between atoms: C_15  and  N_16
REMARK    6  A    between atoms: C_15  and  C_17
REMARK    7  A    between atoms: N_25  and  C_26
REMARK    8  A    between atoms: C_26  and  C_27
REMARK                            x       y       z     vdW  Elec       q    Type
REMARK                         _______ _______ _______ _____ _____    ______ ____
ROOT
ATOM      1  C   UNL     1       0.559  13.106  18.279  0.00  0.00    +0.000 C 
ATOM      2  C   UNL     1       0.021  13.307  19.682  0.00  0.00    +0.000 A 
ATOM      3  C   UNL     1      -1.020  12.561  20.107  0.00  0.00    +0.000 A 
ATOM      4  C   UNL     1      -1.189  12.534  21.578  0.00  0.00    +0.000 A 
ATOM      5  O   UNL     1      -1.386  11.448  22.148  0.00  0.00    +0.000 OA
ATOM      6  N   UNL     1      -1.031  13.728  22.212  0.00  0.00    +0.000 N 
ATOM      7  C   UNL     1       0.102  14.448  21.871  0.00  0.00    +0.000 A 
ATOM      8  O   UNL     1       0.696  15.169  22.681  0.00  0.00    +0.000 OA
ATOM      9  N   UNL     1       0.623  14.218  20.573  0.00  0.00    +0.000 N 
ENDROOT
BRANCH   3  10
ATOM     10  C   UNL     1      -1.872  11.686  19.296  0.00  0.00    +0.000 A 
ATOM     11  C   UNL     1      -3.161  12.080  18.921  0.00  0.00    +0.000 A 
ATOM     12  C   UNL     1      -3.922  11.278  18.068  0.00  0.00    +0.000 A 
ATOM     13  C   UNL     1      -3.399  10.082  17.574  0.00  0.00    +0.000 A 
ATOM     14  C   UNL     1      -2.121   9.669  17.947  0.00  0.00    +0.000 A 
ATOM     15  C   UNL     1      -1.374  10.472  18.812  0.00  0.00    +0.000 A 
ATOM     16  F   UNL     1      -0.142  10.057  19.156  0.00  0.00    +0.000 F 
ENDBRANCH   3  10
BRANCH   6  17
ATOM     17  C   UNL     1      -1.492  13.772  23.610  0.00  0.00    +0.000 C 
BRANCH  17  18
ATOM     18  C   UNL     1      -2.793  14.578  23.930  0.00  0.00    +0.000 C 
BRANCH  18  19
ATOM     19  C   UNL     1      -3.852  14.280  22.866  0.00  0.00    +0.000 A 
ATOM     20  C   UNL     1      -4.134  15.226  21.866  0.00  0.00    +0.000 A 
ATOM     21  C   UNL     1      -5.059  14.948  20.852  0.00  0.00    +0.000 A 
ATOM     22  C   UNL     1      -5.724  13.728  20.834  0.00  0.00    +0.000 A 
ATOM     23  C   UNL     1      -5.477  12.785  21.828  0.00  0.00    +0.000 A 
ATOM     24  C   UNL     1      -4.547  13.056  22.837  0.00  0.00    +0.000 A 
ENDBRANCH  18  19
BRANCH  18  25
ATOM     25  N   UNL     1      -3.354  14.432  25.274  0.00  0.00    +0.000 NA
ATOM     26  H   UNL     1      -2.633  14.106  25.921  0.00  0.00    +0.000 HD
ATOM     27  H   UNL     1      -4.101  13.741  25.269  0.00  0.00    +0.000 HD
ENDBRANCH  18  25
ENDBRANCH  17  18
ENDBRANCH   6  17
BRANCH   9  28
ATOM     28  C   UNL     1       1.787  15.058  20.216  0.00  0.00    +0.000 C 
BRANCH  28  29
ATOM     29  C   UNL     1       1.613  15.980  19.021  0.00  0.00    +0.000 A 
ATOM     30  C   UNL     1       0.492  16.815  18.893  0.00  0.00    +0.000 A 
ATOM     31  C   UNL     1       0.475  17.851  17.957  0.00  0.00    +0.000 A 
ATOM     32  C   UNL     1       1.559  18.046  17.109  0.00  0.00    +0.000 A 
ATOM     33  C   UNL     1       2.618  17.141  17.123  0.00  0.00    +0.000 A 
ATOM     34  C   UNL     1       2.630  16.095  18.054  0.00  0.00    +0.000 A 
ATOM     35 CL   UNL     1       3.965  14.997  17.993  0.00  0.00    +0.000 Cl
ENDBRANCH  28  29
ENDBRANCH   9  28
TORSDOF 7
ENDMDL
MODEL 7
REMARK VINA RESULT:      -7.0      7.195     10.640
REMARK  Name = 
REMARK  8 active torsions:
REMARK  status: ('A' for Active; 'I' for Inactive)
REMARK    1  A    between atoms: C_1  and  C_2
REMARK    2  A    between atoms: C_3  and  C_4
REMARK    3  A    between atoms: N_13  and  C_14
REMARK    4  A    between atoms: C_14  and  C_15
REMARK    5  A    between atoms: C_15  and  N_16
REMARK    6  A    between atoms: C_15  and  C_17
REMARK    7  A    between atoms: N_25  and  C_26
REMARK    8  A    between atoms: C_26  and  C_27
REMARK                            x       y       z     vdW  Elec       q    Type
REMARK                         _______ _______ _______ _____ _____    ______ ____
ROOT
ATOM      1  C   UNL     1       0.119  13.573  18.168  0.00  0.00    +0.000 C 
ATOM      2  C   UNL     1      -0.638  13.697  19.476  0.00  0.00    +0.000 A 
ATOM      3  C   UNL     1      -1.550  12.759  19.807  0.00  0.00    +0.000 A 
ATOM      4  C   UNL     1      -1.911  12.742  21.243  0.00  0.00    +0.000 A 
ATOM      5  O   UNL     1      -1.956  11.656  21.846  0.00  0.00    +0.000 OA
ATOM      6  N   UNL     1      -2.093  13.962  21.820  0.00  0.00    +0.000 N 
ATOM      7  C   UNL     1      -1.098  14.896  21.586  0.00  0.00    +0.000 A 
ATOM      8  O   UNL     1      -0.783  15.751  22.422  0.00  0.00    +0.000 OA
ATOM      9  N   UNL     1      -0.366  14.743  20.381  0.00  0.00    +0.000 N 
ENDROOT
BRANCH   3  10
ATOM     10  C   UNL     1      -2.082  11.699  18.946  0.00  0.00    +0.000 A 
ATOM     11  C   UNL     1      -3.363  11.794  18.392  0.00  0.00    +0.000 A 
ATOM     12  C   UNL     1      -3.816  10.823  17.497  0.00  0.00    +0.000 A 
ATOM     13  C   UNL     1      -2.991   9.755  17.140  0.00  0.00    +0.000 A 
ATOM     14  C   UNL     1      -1.717   9.639  17.691  0.00  0.00    +0.000 A 
ATOM     15  C   UNL     1      -1.279  10.608  18.597  0.00  0.00    +0.000 A 
ATOM     16  F   UNL     1      -0.044  10.479  19.114  0.00  0.00    +0.000 F 
ENDBRANCH   3  10
BRANCH   6  17
ATOM     17  C   UNL     1      -2.742  13.948  23.142  0.00  0.00    +0.000 C 
BRANCH  17  18
ATOM     18  C   UNL     1      -4.111  14.686  23.297  0.00  0.00    +0.000 C 
BRANCH  18  19
ATOM     19  C   UNL     1      -5.248  13.735  22.913  0.00  0.00    +0.000 A 
ATOM     20  C   UNL     1      -6.230  13.392  23.857  0.00  0.00    +0.000 A 
ATOM     21  C   UNL     1      -7.308  12.570  23.508  0.00  0.00    +0.000 A 
ATOM     22  C   UNL     1      -7.411  12.069  22.216  0.00  0.00    +0.000 A 
ATOM     23  C   UNL     1      -6.437  12.378  21.270  0.00  0.00    +0.000 A 
ATOM     24  C   UNL     1      -5.363  13.207  21.613  0.00  0.00    +0.000 A 
ENDBRANCH  18  19
BRANCH  18  25
ATOM     25  N   UNL     1      -4.384  15.324  24.585  0.00  0.00    +0.000 NA
ATOM     26  H   UNL     1      -4.570  16.321  24.450  0.00  0.00    +0.000 HD
ATOM     27  H   UNL     1      -3.575  15.241  25.196  0.00  0.00    +0.000 HD
ENDBRANCH  18  25
ENDBRANCH  17  18
ENDBRANCH   6  17
BRANCH   9  28
ATOM     28  C   UNL     1       0.637  15.800  20.129  0.00  0.00    +0.000 C 
BRANCH  28  29
ATOM     29  C   UNL     1       0.424  16.647  18.885  0.00  0.00    +0.000 A 
ATOM     30  C   UNL     1      -0.829  17.198  18.575  0.00  0.00    +0.000 A 
ATOM     31  C   UNL     1      -0.953  18.195  17.605  0.00  0.00    +0.000 A 
ATOM     32  C   UNL     1       0.165  18.631  16.904  0.00  0.00    +0.000 A 
ATOM     33  C   UNL     1       1.390  17.997  17.095  0.00  0.00    +0.000 A 
ATOM     34  C   UNL     1       1.512  16.989  18.060  0.00  0.00    +0.000 A 
ATOM     35 CL   UNL     1       3.059  16.231  18.222  0.00  0.00    +0.000 Cl
ENDBRANCH  28  29
ENDBRANCH   9  28
TORSDOF 7
ENDMDL
MODEL 8
REMARK VINA RESULT:      -7.0      4.762      8.999
REMARK  Name = 
REMARK  8 active torsions:
REMARK  status: ('A' for Active; 'I' for Inactive)
REMARK    1  A    between atoms: C_1  and  C_2
REMARK    2  A    between atoms: C_3  and  C_4
REMARK    3  A    between atoms: N_13  and  C_14
REMARK    4  A    between atoms: C_14  and  C_15
REMARK    5  A    between atoms: C_15  and  N_16
REMARK    6  A    between atoms: C_15  and  C_17
REMARK    7  A    between atoms: N_25  and  C_26
REMARK    8  A    between atoms: C_26  and  C_27
REMARK                            x       y       z     vdW  Elec       q    Type
REMARK                         _______ _______ _______ _____ _____    ______ ____
ROOT
ATOM      1  C   UNL     1      -2.014   9.816  17.098  0.00  0.00    +0.000 C 
ATOM      2  C   UNL     1      -1.853  10.746  18.285  0.00  0.00    +0.000 A 
ATOM      3  C   UNL     1      -0.735  10.676  19.037  0.00  0.00    +0.000 A 
ATOM      4  C   UNL     1      -0.493  11.869  19.881  0.00  0.00    +0.000 A 
ATOM      5  O   UNL     1       0.642  12.371  19.912  0.00  0.00    +0.000 OA
ATOM      6  N   UNL     1      -1.588  12.378  20.509  0.00  0.00    +0.000 N 
ATOM      7  C   UNL     1      -2.707  12.569  19.716  0.00  0.00    +0.000 A 
ATOM      8  O   UNL     1      -3.506  13.492  19.911  0.00  0.00    +0.000 OA
ATOM      9  N   UNL     1      -2.823  11.724  18.584  0.00  0.00    +0.000 N 
ENDROOT
BRANCH   3  10
ATOM     10  C   UNL     1       0.302   9.640  18.988  0.00  0.00    +0.000 A 
ATOM     11  C   UNL     1       1.084   9.457  17.843  0.00  0.00    +0.000 A 
ATOM     12  C   UNL     1       2.130   8.533  17.846  0.00  0.00    +0.000 A 
ATOM     13  C   UNL     1       2.412   7.792  18.996  0.00  0.00    +0.000 A 
ATOM     14  C   UNL     1       1.635   7.955  20.141  0.00  0.00    +0.000 A 
ATOM     15  C   UNL     1       0.581   8.871  20.122  0.00  0.00    +0.000 A 
ATOM     16  F   UNL     1      -0.153   9.015  21.239  0.00  0.00    +0.000 F 
ENDBRANCH   3  10
BRANCH   6  17
ATOM     17  C   UNL     1      -1.311  13.357  21.574  0.00  0.00    +0.000 C 
BRANCH  17  18
ATOM     18  C   UNL     1      -1.559  12.923  23.055  0.00  0.00    +0.000 C 
BRANCH  18  19
ATOM     19  C   UNL     1      -3.006  13.237  23.444  0.00  0.00    +0.000 A 
ATOM     20  C   UNL     1      -3.557  14.496  23.152  0.00  0.00    +0.000 A 
ATOM     21  C   UNL     1      -4.895  14.782  23.449  0.00  0.00    +0.000 A 
ATOM     22  C   UNL     1      -5.694  13.820  24.054  0.00  0.00    +0.000 A 
ATOM     23  C   UNL     1      -5.162  12.573  24.373  0.00  0.00    +0.000 A 
ATOM     24  C   UNL     1      -3.828  12.282  24.069  0.00  0.00    +0.000 A 
ENDBRANCH  18  19
BRANCH  18  25
ATOM     25  N   UNL     1      -1.215  11.546  23.414  0.00  0.00    +0.000 NA
ATOM     26  H   UNL     1      -0.552  11.163  22.736  0.00  0.00    +0.000 HD
ATOM     27  H   UNL     1      -2.048  10.961  23.397  0.00  0.00    +0.000 HD
ENDBRANCH  18  25
ENDBRANCH  17  18
ENDBRANCH   6  17
BRANCH   9  28
ATOM     28  C   UNL     1      -4.066  11.905  17.802  0.00  0.00    +0.000 C 
BRANCH  28  29
ATOM     29  C   UNL     1      -5.334  11.327  18.409  0.00  0.00    +0.000 A 
ATOM     30  C   UNL     1      -5.470   9.953  18.659  0.00  0.00    +0.000 A 
ATOM     31  C   UNL     1      -6.502   9.471  19.467  0.00  0.00    +0.000 A 
ATOM     32  C   UNL     1      -7.435  10.348  20.007  0.00  0.00    +0.000 A 
ATOM     33  C   UNL     1      -7.401  11.695  19.654  0.00  0.00    +0.000 A 
ATOM     34  C   UNL     1      -6.372  12.177  18.835  0.00  0.00    +0.000 A 
ATOM     35 CL   UNL     1      -6.412  13.856  18.419  0.00  0.00    +0.000 Cl
ENDBRANCH  28  29
ENDBRANCH   9  28
TORSDOF 7
ENDMDL
MODEL 9
REMARK VINA RESULT:      -7.0      4.157      7.380
REMARK  Name = 
REMARK  8 active torsions:
REMARK  status: ('A' for Active; 'I' for Inactive)
REMARK    1  A    between atoms: C_1  and  C_2
REMARK    2  A    between atoms: C_3  and  C_4
REMARK    3  A    between atoms: N_13  and  C_14
REMARK    4  A    between atoms: C_14  and  C_15
REMARK    5  A    between atoms: C_15  and  N_16
REMARK    6  A    between atoms: C_15  and  C_17
REMARK    7  A    between atoms: N_25  and  C_26
REMARK    8  A    between atoms: C_26  and  C_27
REMARK                            x       y       z     vdW  Elec       q    Type
REMARK                         _______ _______ _______ _____ _____    ______ ____
ROOT
ATOM      1  C   UNL     1      -0.428  14.881  19.900  0.00  0.00    +0.000 C 
ATOM      2  C   UNL     1       0.016  13.446  19.698  0.00  0.00    +0.000 A 
ATOM      3  C   UNL     1      -0.738  12.441  20.190  0.00  0.00    +0.000 A 
ATOM      4  C   UNL     1      -0.452  11.116  19.593  0.00  0.00    +0.000 A 
ATOM      5  O   UNL     1      -1.397  10.396  19.230  0.00  0.00    +0.000 OA
ATOM      6  N   UNL     1       0.865  10.822  19.415  0.00  0.00    +0.000 N 
ATOM      7  C   UNL     1       1.626  11.801  18.799  0.00  0.00    +0.000 A 
ATOM      8  O   UNL     1       2.580  11.531  18.060  0.00  0.00    +0.000 OA
ATOM      9  N   UNL     1       1.175  13.136  18.956  0.00  0.00    +0.000 N 
ENDROOT
BRANCH   3  10
ATOM     10  C   UNL     1      -1.874  12.556  21.110  0.00  0.00    +0.000 A 
ATOM     11  C   UNL     1      -3.132  12.965  20.656  0.00  0.00    +0.000 A 
ATOM     12  C   UNL     1      -4.225  12.976  21.524  0.00  0.00    +0.000 A 
ATOM     13  C   UNL     1      -4.074  12.568  22.851  0.00  0.00    +0.000 A 
ATOM     14  C   UNL     1      -2.825  12.168  23.322  0.00  0.00    +0.000 A 
ATOM     15  C   UNL     1      -1.735  12.175  22.449  0.00  0.00    +0.000 A 
ATOM     16  F   UNL     1      -0.540  11.781  22.923  0.00  0.00    +0.000 F 
ENDBRANCH   3  10
BRANCH   6  17
ATOM     17  C   UNL     1       1.166   9.412  19.116  0.00  0.00    +0.000 C 
BRANCH  17  18
ATOM     18  C   UNL     1       1.210   8.400  20.307  0.00  0.00    +0.000 C 
BRANCH  18  19
ATOM     19  C   UNL     1       1.940   7.128  19.869  0.00  0.00    +0.000 A 
ATOM     20  C   UNL     1       2.702   7.123  18.688  0.00  0.00    +0.000 A 
ATOM     21  C   UNL     1       3.422   5.986  18.302  0.00  0.00    +0.000 A 
ATOM     22  C   UNL     1       3.379   4.837  19.082  0.00  0.00    +0.000 A 
ATOM     23  C   UNL     1       2.612   4.813  20.244  0.00  0.00    +0.000 A 
ATOM     24  C   UNL     1       1.898   5.950  20.637  0.00  0.00    +0.000 A 
ENDBRANCH  18  19
BRANCH  18  25
ATOM     25  N   UNL     1       1.743   8.890  21.579  0.00  0.00    +0.000 NA
ATOM     26  H   UNL     1       0.995   8.942  22.275  0.00  0.00    +0.000 HD
ATOM     27  H   UNL     1       2.122   9.827  21.463  0.00  0.00    +0.000 HD
ENDBRANCH  18  25
ENDBRANCH  17  18
ENDBRANCH   6  17
BRANCH   9  28
ATOM     28  C   UNL     1       2.051  14.161  18.348  0.00  0.00    +0.000 C 
BRANCH  28  29
ATOM     29  C   UNL     1       2.896  14.981  19.309  0.00  0.00    +0.000 A 
ATOM     30  C   UNL     1       3.677  14.375  20.304  0.00  0.00    +0.000 A 
ATOM     31  C   UNL     1       4.657  15.099  20.986  0.00  0.00    +0.000 A 
ATOM     32  C   UNL     1       4.847  16.449  20.711  0.00  0.00    +0.000 A 
ATOM     33  C   UNL     1       3.987  17.101  19.832  0.00  0.00    +0.000 A 
ATOM     34  C   UNL     1       2.997  16.377  19.156  0.00  0.00    +0.000 A 
ATOM     35 CL   UNL     1       1.951  17.262  18.100  0.00  0.00    +0.000 Cl
ENDBRANCH  28  29
ENDBRANCH   9  28
TORSDOF 7
ENDMDL
