MODEL 1
REMARK VINA RESULT:      -7.8      0.000      0.000
REMARK  Name = 
REMARK  8 active torsions:
REMARK  status: ('A' for Active; 'I' for Inactive)
REMARK    1  A    between atoms: C_1  and  O_2
REMARK    2  A    between atoms: O_2  and  C_3
REMARK    3  A    between atoms: C_6  and  C_7
REMARK    4  A    between atoms: C_7  and  N_8
REMARK    5  A    between atoms: N_8  and  C_9
REMARK    6  A    between atoms: C_11  and  C_12
REMARK    7  A    between atoms: C_12  and  C_13
REMARK    8  A    between atoms: C_24  and  C_25
REMARK                            x       y       z     vdW  Elec       q    Type
REMARK                         _______ _______ _______ _____ _____    ______ ____
ROOT
ATOM      1  C   UNL     1       2.995   3.878  19.544  0.00  0.00    +0.000 A 
ATOM      2  O   UNL     1       3.235   5.051  20.212  0.00  0.00    +0.000 OA
ATOM      3  C   UNL     1       1.990   5.601  20.400  0.00  0.00    +0.000 A 
ATOM      4  N   UNL     1       0.988   4.840  19.998  0.00  0.00    +0.000 NA
ATOM      5  C   UNL     1       1.623   3.754  19.447  0.00  0.00    +0.000 A 
ENDROOT
BRANCH   1   6
ATOM      6  N   UNL     1       4.082   3.182  19.132  0.00  0.00    +0.000 N 
ATOM      7  H   UNL     1       4.275   2.284  19.566  0.00  0.00    +0.000 HD
BRANCH   6   8
ATOM      8  C   UNL     1       4.599   3.367  17.785  0.00  0.00    +0.000 C 
BRANCH   8  12
ATOM      9  C   UNL     1       6.847   7.047  17.320  0.00  0.00    +0.000 A 
ATOM     10  C   UNL     1       5.575   6.896  16.774  0.00  0.00    +0.000 A 
ATOM     11  C   UNL     1       4.878   5.695  16.923  0.00  0.00    +0.000 A 
ATOM     12  C   UNL     1       5.448   4.607  17.604  0.00  0.00    +0.000 A 
ATOM     13  C   UNL     1       6.724   4.772  18.160  0.00  0.00    +0.000 A 
ATOM     14  C   UNL     1       7.422   5.981  18.011  0.00  0.00    +0.000 A 
BRANCH   9  16
ATOM     15  C   UNL     1       8.288   8.757  18.107  0.00  0.00    +0.000 C 
ATOM     16  O   UNL     1       7.430   8.262  17.087  0.00  0.00    +0.000 OA
ENDBRANCH   9  16
ENDBRANCH   8  12
ENDBRANCH   6   8
ENDBRANCH   1   6
BRANCH   5  17
ATOM     17  C   UNL     1       0.877   2.666  18.917  0.00  0.00    +0.000 C 
ATOM     18  N   UNL     1       0.297   1.769  18.453  0.00  0.00    +0.000 NA
ENDBRANCH   5  17
BRANCH   3  19
ATOM     19  C   UNL     1       1.913   6.932  21.062  0.00  0.00    +0.000 C 
BRANCH  19  20
ATOM     20  C   UNL     1       1.605   8.078  20.115  0.00  0.00    +0.000 A 
ATOM     21  C   UNL     1       2.160   8.016  18.822  0.00  0.00    +0.000 A 
ATOM     22  C   UNL     1       1.984   9.058  17.918  0.00  0.00    +0.000 A 
ATOM     23  C   UNL     1       1.278  10.193  18.302  0.00  0.00    +0.000 A 
ATOM     24  C   UNL     1       0.722  10.297  19.584  0.00  0.00    +0.000 A 
ATOM     25  C   UNL     1       0.069  11.482  19.963  0.00  0.00    +0.000 A 
ATOM     26  C   UNL     1      -0.506  11.613  21.224  0.00  0.00    +0.000 A 
ATOM     27  C   UNL     1      -0.475  10.540  22.105  0.00  0.00    +0.000 A 
ATOM     28  C   UNL     1       0.182   9.358  21.745  0.00  0.00    +0.000 A 
ATOM     29  C   UNL     1       0.835   9.217  20.498  0.00  0.00    +0.000 A 
ENDBRANCH  19  20
ENDBRANCH   3  19
TORSDOF 7
ENDMDL
MODEL 2
REMARK VINA RESULT:      -7.7      2.892      6.149
REMARK  Name = 
REMARK  8 active torsions:
REMARK  status: ('A' for Active; 'I' for Inactive)
REMARK    1  A    between atoms: C_1  and  O_2
REMARK    2  A    between atoms: O_2  and  C_3
REMARK    3  A    between atoms: C_6  and  C_7
REMARK    4  A    between atoms: C_7  and  N_8
REMARK    5  A    between atoms: N_8  and  C_9
REMARK    6  A    between atoms: C_11  and  C_12
REMARK    7  A    between atoms: C_12  and  C_13
REMARK    8  A    between atoms: C_24  and  C_25
REMARK                            x       y       z     vdW  Elec       q    Type
REMARK                         _______ _______ _______ _____ _____    ______ ____
ROOT
ATOM      1  C   UNL     1       6.800   7.197  17.445  0.00  0.00    +0.000 A 
ATOM      2  O   UNL     1       5.523   7.693  17.408  0.00  0.00    +0.000 OA
ATOM      3  C   UNL     1       4.720   6.578  17.384  0.00  0.00    +0.000 A 
ATOM      4  N   UNL     1       5.369   5.434  17.499  0.00  0.00    +0.000 NA
ATOM      5  C   UNL     1       6.685   5.823  17.527  0.00  0.00    +0.000 A 
ENDROOT
BRANCH   1   6
ATOM      6  N   UNL     1       7.805   8.102  17.363  0.00  0.00    +0.000 N 
ATOM      7  H   UNL     1       7.748   8.826  16.653  0.00  0.00    +0.000 HD
BRANCH   6   8
ATOM      8  C   UNL     1       8.597   8.420  18.541  0.00  0.00    +0.000 C 
BRANCH   8  12
ATOM      9  C   UNL     1       9.293  12.683  18.934  0.00  0.00    +0.000 A 
ATOM     10  C   UNL     1       8.718  12.140  17.788  0.00  0.00    +0.000 A 
ATOM     11  C   UNL     1       8.519  10.762  17.678  0.00  0.00    +0.000 A 
ATOM     12  C   UNL     1       8.914   9.890  18.706  0.00  0.00    +0.000 A 
ATOM     13  C   UNL     1       9.481  10.445  19.861  0.00  0.00    +0.000 A 
ATOM     14  C   UNL     1       9.678  11.832  19.970  0.00  0.00    +0.000 A 
BRANCH   9  16
ATOM     15  C   UNL     1       8.258  14.815  18.943  0.00  0.00    +0.000 C 
ATOM     16  O   UNL     1       9.450  14.041  18.908  0.00  0.00    +0.000 OA
ENDBRANCH   9  16
ENDBRANCH   8  12
ENDBRANCH   6   8
ENDBRANCH   1   6
BRANCH   5  17
ATOM     17  C   UNL     1       7.725   4.865  17.679  0.00  0.00    +0.000 C 
ATOM     18  N   UNL     1       8.548   4.052  17.818  0.00  0.00    +0.000 NA
ENDBRANCH   5  17
BRANCH   3  19
ATOM     19  C   UNL     1       3.250   6.784  17.285  0.00  0.00    +0.000 C 
BRANCH  19  20
ATOM     20  C   UNL     1       2.484   6.397  18.538  0.00  0.00    +0.000 A 
ATOM     21  C   UNL     1       2.301   7.392  19.518  0.00  0.00    +0.000 A 
ATOM     22  C   UNL     1       1.672   7.100  20.723  0.00  0.00    +0.000 A 
ATOM     23  C   UNL     1       1.245   5.802  20.983  0.00  0.00    +0.000 A 
ATOM     24  C   UNL     1       1.420   4.782  20.037  0.00  0.00    +0.000 A 
ATOM     25  C   UNL     1       1.035   3.468  20.354  0.00  0.00    +0.000 A 
ATOM     26  C   UNL     1       1.184   2.436  19.433  0.00  0.00    +0.000 A 
ATOM     27  C   UNL     1       1.677   2.715  18.165  0.00  0.00    +0.000 A 
ATOM     28  C   UNL     1       2.075   4.016  17.840  0.00  0.00    +0.000 A 
ATOM     29  C   UNL     1       2.000   5.075  18.776  0.00  0.00    +0.000 A 
ENDBRANCH  19  20
ENDBRANCH   3  19
TORSDOF 7
ENDMDL
MODEL 3
REMARK VINA RESULT:      -7.7      1.445      1.864
REMARK  Name = 
REMARK  8 active torsions:
REMARK  status: ('A' for Active; 'I' for Inactive)
REMARK    1  A    between atoms: C_1  and  O_2
REMARK    2  A    between atoms: O_2  and  C_3
REMARK    3  A    between atoms: C_6  and  C_7
REMARK    4  A    between atoms: C_7  and  N_8
REMARK    5  A    between atoms: N_8  and  C_9
REMARK    6  A    between atoms: C_11  and  C_12
REMARK    7  A    between atoms: C_12  and  C_13
REMARK    8  A    between atoms: C_24  and  C_25
REMARK                            x       y       z     vdW  Elec       q    Type
REMARK                         _______ _______ _______ _____ _____    ______ ____
ROOT
ATOM      1  C   UNL     1       2.168   4.665  18.747  0.00  0.00    +0.000 A 
ATOM      2  O   UNL     1       2.461   5.929  18.303  0.00  0.00    +0.000 OA
ATOM      3  C   UNL     1       2.268   6.733  19.401  0.00  0.00    +0.000 A 
ATOM      4  N   UNL     1       1.974   6.083  20.511  0.00  0.00    +0.000 NA
ATOM      5  C   UNL     1       1.900   4.775  20.097  0.00  0.00    +0.000 A 
ENDROOT
BRANCH   1   6
ATOM      6  N   UNL     1       2.174   3.680  17.817  0.00  0.00    +0.000 N 
ATOM      7  H   UNL     1       1.450   3.682  17.104  0.00  0.00    +0.000 HD
BRANCH   6   8
ATOM      8  C   UNL     1       3.421   3.020  17.463  0.00  0.00    +0.000 C 
BRANCH   8  12
ATOM      9  C   UNL     1       6.681   5.837  16.967  0.00  0.00    +0.000 A 
ATOM     10  C   UNL     1       5.812   5.537  15.922  0.00  0.00    +0.000 A 
ATOM     11  C   UNL     1       4.779   4.614  16.101  0.00  0.00    +0.000 A 
ATOM     12  C   UNL     1       4.607   3.950  17.327  0.00  0.00    +0.000 A 
ATOM     13  C   UNL     1       5.479   4.267  18.377  0.00  0.00    +0.000 A 
ATOM     14  C   UNL     1       6.515   5.197  18.195  0.00  0.00    +0.000 A 
BRANCH   9  16
ATOM     15  C   UNL     1       7.775   7.867  17.518  0.00  0.00    +0.000 C 
ATOM     16  O   UNL     1       7.659   6.741  16.657  0.00  0.00    +0.000 OA
ENDBRANCH   9  16
ENDBRANCH   8  12
ENDBRANCH   6   8
ENDBRANCH   1   6
BRANCH   5  17
ATOM     17  C   UNL     1       1.630   3.731  21.024  0.00  0.00    +0.000 C 
ATOM     18  N   UNL     1       1.425   2.848  21.755  0.00  0.00    +0.000 NA
ENDBRANCH   5  17
BRANCH   3  19
ATOM     19  C   UNL     1       2.456   8.199  19.228  0.00  0.00    +0.000 C 
BRANCH  19  20
ATOM     20  C   UNL     1       1.170   9.003  19.311  0.00  0.00    +0.000 A 
ATOM     21  C   UNL     1       0.587   9.418  18.098  0.00  0.00    +0.000 A 
ATOM     22  C   UNL     1      -0.551  10.216  18.090  0.00  0.00    +0.000 A 
ATOM     23  C   UNL     1      -1.107  10.640  19.292  0.00  0.00    +0.000 A 
ATOM     24  C   UNL     1      -0.548  10.259  20.519  0.00  0.00    +0.000 A 
ATOM     25  C   UNL     1      -1.093  10.755  21.715  0.00  0.00    +0.000 A 
ATOM     26  C   UNL     1      -0.570  10.385  22.950  0.00  0.00    +0.000 A 
ATOM     27  C   UNL     1       0.478   9.477  23.005  0.00  0.00    +0.000 A 
ATOM     28  C   UNL     1       1.039   8.983  21.822  0.00  0.00    +0.000 A 
ATOM     29  C   UNL     1       0.575   9.391  20.549  0.00  0.00    +0.000 A 
ENDBRANCH  19  20
ENDBRANCH   3  19
TORSDOF 7
ENDMDL
MODEL 4
REMARK VINA RESULT:      -7.6      2.387      3.029
REMARK  Name = 
REMARK  8 active torsions:
REMARK  status: ('A' for Active; 'I' for Inactive)
REMARK    1  A    between atoms: C_1  and  O_2
REMARK    2  A    between atoms: O_2  and  C_3
REMARK    3  A    between atoms: C_6  and  C_7
REMARK    4  A    between atoms: C_7  and  N_8
REMARK    5  A    between atoms: N_8  and  C_9
REMARK    6  A    between atoms: C_11  and  C_12
REMARK    7  A    between atoms: C_12  and  C_13
REMARK    8  A    between atoms: C_24  and  C_25
REMARK                            x       y       z     vdW  Elec       q    Type
REMARK                         _______ _______ _______ _____ _____    ______ ____
ROOT
ATOM      1  C   UNL     1       4.736   4.292  19.221  0.00  0.00    +0.000 A 
ATOM      2  O   UNL     1       4.274   5.418  19.852  0.00  0.00    +0.000 OA
ATOM      3  C   UNL     1       2.942   5.164  20.077  0.00  0.00    +0.000 A 
ATOM      4  N   UNL     1       2.550   3.951  19.733  0.00  0.00    +0.000 NA
ATOM      5  C   UNL     1       3.681   3.402  19.182  0.00  0.00    +0.000 A 
ENDROOT
BRANCH   1   6
ATOM      6  N   UNL     1       6.017   4.327  18.782  0.00  0.00    +0.000 N 
ATOM      7  H   UNL     1       6.554   3.465  18.785  0.00  0.00    +0.000 HD
BRANCH   6   8
ATOM      8  C   UNL     1       6.430   5.336  17.818  0.00  0.00    +0.000 C 
BRANCH   8  12
ATOM      9  C   UNL     1       6.250   4.048  13.680  0.00  0.00    +0.000 A 
ATOM     10  C   UNL     1       7.354   4.731  14.184  0.00  0.00    +0.000 A 
ATOM     11  C   UNL     1       7.382   5.150  15.516  0.00  0.00    +0.000 A 
ATOM     12  C   UNL     1       6.292   4.915  16.371  0.00  0.00    +0.000 A 
ATOM     13  C   UNL     1       5.190   4.218  15.859  0.00  0.00    +0.000 A 
ATOM     14  C   UNL     1       5.165   3.796  14.520  0.00  0.00    +0.000 A 
BRANCH   9  16
ATOM     15  C   UNL     1       5.238   2.996  11.813  0.00  0.00    +0.000 C 
ATOM     16  O   UNL     1       6.339   3.711  12.358  0.00  0.00    +0.000 OA
ENDBRANCH   9  16
ENDBRANCH   8  12
ENDBRANCH   6   8
ENDBRANCH   1   6
BRANCH   5  17
ATOM     17  C   UNL     1       3.684   2.061  18.707  0.00  0.00    +0.000 C 
ATOM     18  N   UNL     1       3.664   0.976  18.284  0.00  0.00    +0.000 NA
ENDBRANCH   5  17
BRANCH   3  19
ATOM     19  C   UNL     1       2.129   6.237  20.711  0.00  0.00    +0.000 C 
BRANCH  19  20
ATOM     20  C   UNL     1       1.893   7.443  19.820  0.00  0.00    +0.000 A 
ATOM     21  C   UNL     1       2.442   7.408  18.524  0.00  0.00    +0.000 A 
ATOM     22  C   UNL     1       2.330   8.500  17.670  0.00  0.00    +0.000 A 
ATOM     23  C   UNL     1       1.697   9.658  18.109  0.00  0.00    +0.000 A 
ATOM     24  C   UNL     1       1.149   9.736  19.397  0.00  0.00    +0.000 A 
ATOM     25  C   UNL     1       0.572  10.940  19.834  0.00  0.00    +0.000 A 
ATOM     26  C   UNL     1       0.007  11.047  21.101  0.00  0.00    +0.000 A 
ATOM     27  C   UNL     1      -0.027   9.935  21.931  0.00  0.00    +0.000 A 
ATOM     28  C   UNL     1       0.553   8.732  21.514  0.00  0.00    +0.000 A 
ATOM     29  C   UNL     1       1.195   8.609  20.259  0.00  0.00    +0.000 A 
ENDBRANCH  19  20
ENDBRANCH   3  19
TORSDOF 7
ENDMDL
MODEL 5
REMARK VINA RESULT:      -7.5      1.783      2.308
REMARK  Name = 
REMARK  8 active torsions:
REMARK  status: ('A' for Active; 'I' for Inactive)
REMARK    1  A    between atoms: C_1  and  O_2
REMARK    2  A    between atoms: O_2  and  C_3
REMARK    3  A    between atoms: C_6  and  C_7
REMARK    4  A    between atoms: C_7  and  N_8
REMARK    5  A    between atoms: N_8  and  C_9
REMARK    6  A    between atoms: C_11  and  C_12
REMARK    7  A    between atoms: C_12  and  C_13
REMARK    8  A    between atoms: C_24  and  C_25
REMARK                            x       y       z     vdW  Elec       q    Type
REMARK                         _______ _______ _______ _____ _____    ______ ____
ROOT
ATOM      1  C   UNL     1       3.056   4.159  19.458  0.00  0.00    +0.000 A 
ATOM      2  O   UNL     1       3.272   5.316  20.161  0.00  0.00    +0.000 OA
ATOM      3  C   UNL     1       2.012   5.780  20.455  0.00  0.00    +0.000 A 
ATOM      4  N   UNL     1       1.032   4.977  20.085  0.00  0.00    +0.000 NA
ATOM      5  C   UNL     1       1.690   3.956  19.445  0.00  0.00    +0.000 A 
ENDROOT
BRANCH   1   6
ATOM      6  N   UNL     1       4.151   3.548  18.945  0.00  0.00    +0.000 N 
ATOM      7  H   UNL     1       4.021   2.713  18.382  0.00  0.00    +0.000 HD
BRANCH   6   8
ATOM      8  C   UNL     1       5.359   4.316  18.684  0.00  0.00    +0.000 C 
BRANCH   8  12
ATOM      9  C   UNL     1       6.597   4.552  14.534  0.00  0.00    +0.000 A 
ATOM     10  C   UNL     1       7.467   4.869  15.573  0.00  0.00    +0.000 A 
ATOM     11  C   UNL     1       7.040   4.801  16.902  0.00  0.00    +0.000 A 
ATOM     12  C   UNL     1       5.721   4.436  17.219  0.00  0.00    +0.000 A 
ATOM     13  C   UNL     1       4.855   4.108  16.168  0.00  0.00    +0.000 A 
ATOM     14  C   UNL     1       5.288   4.175  14.833  0.00  0.00    +0.000 A 
BRANCH   9  16
ATOM     15  C   UNL     1       6.652   3.770  12.297  0.00  0.00    +0.000 C 
ATOM     16  O   UNL     1       7.132   4.677  13.281  0.00  0.00    +0.000 OA
ENDBRANCH   9  16
ENDBRANCH   8  12
ENDBRANCH   6   8
ENDBRANCH   1   6
BRANCH   5  17
ATOM     17  C   UNL     1       0.975   2.846  18.917  0.00  0.00    +0.000 C 
ATOM     18  N   UNL     1       0.354   1.951  18.505  0.00  0.00    +0.000 NA
ENDBRANCH   5  17
BRANCH   3  19
ATOM     19  C   UNL     1       1.904   7.075  21.180  0.00  0.00    +0.000 C 
BRANCH  19  20
ATOM     20  C   UNL     1       1.420   8.229  20.319  0.00  0.00    +0.000 A 
ATOM     21  C   UNL     1       1.856   8.265  18.981  0.00  0.00    +0.000 A 
ATOM     22  C   UNL     1       1.515   9.323  18.146  0.00  0.00    +0.000 A 
ATOM     23  C   UNL     1       0.760  10.380  18.644  0.00  0.00    +0.000 A 
ATOM     24  C   UNL     1       0.318  10.386  19.974  0.00  0.00    +0.000 A 
ATOM     25  C   UNL     1      -0.388  11.497  20.466  0.00  0.00    +0.000 A 
ATOM     26  C   UNL     1      -0.853  11.529  21.777  0.00  0.00    +0.000 A 
ATOM     27  C   UNL     1      -0.655  10.429  22.600  0.00  0.00    +0.000 A 
ATOM     28  C   UNL     1       0.056   9.321  22.128  0.00  0.00    +0.000 A 
ATOM     29  C   UNL     1       0.600   9.284  20.822  0.00  0.00    +0.000 A 
ENDBRANCH  19  20
ENDBRANCH   3  19
TORSDOF 7
ENDMDL
MODEL 6
REMARK VINA RESULT:      -7.5      1.441      2.445
REMARK  Name = 
REMARK  8 active torsions:
REMARK  status: ('A' for Active; 'I' for Inactive)
REMARK    1  A    between atoms: C_1  and  O_2
REMARK    2  A    between atoms: O_2  and  C_3
REMARK    3  A    between atoms: C_6  and  C_7
REMARK    4  A    between atoms: C_7  and  N_8
REMARK    5  A    between atoms: N_8  and  C_9
REMARK    6  A    between atoms: C_11  and  C_12
REMARK    7  A    between atoms: C_12  and  C_13
REMARK    8  A    between atoms: C_24  and  C_25
REMARK                            x       y       z     vdW  Elec       q    Type
REMARK                         _______ _______ _______ _____ _____    ______ ____
ROOT
ATOM      1  C   UNL     1       2.182   4.462  18.945  0.00  0.00    +0.000 A 
ATOM      2  O   UNL     1       2.337   5.727  18.438  0.00  0.00    +0.000 OA
ATOM      3  C   UNL     1       2.049   6.558  19.494  0.00  0.00    +0.000 A 
ATOM      4  N   UNL     1       1.821   5.935  20.636  0.00  0.00    +0.000 NA
ATOM      5  C   UNL     1       1.894   4.609  20.287  0.00  0.00    +0.000 A 
ENDROOT
BRANCH   1   6
ATOM      6  N   UNL     1       2.302   3.438  18.065  0.00  0.00    +0.000 N 
ATOM      7  H   UNL     1       1.583   3.319  17.358  0.00  0.00    +0.000 HD
BRANCH   6   8
ATOM      8  C   UNL     1       3.618   2.912  17.736  0.00  0.00    +0.000 C 
BRANCH   8  12
ATOM      9  C   UNL     1       6.692   5.805  16.742  0.00  0.00    +0.000 A 
ATOM     10  C   UNL     1       6.533   5.328  18.040  0.00  0.00    +0.000 A 
ATOM     11  C   UNL     1       5.525   4.409  18.339  0.00  0.00    +0.000 A 
ATOM     12  C   UNL     1       4.635   3.963  17.347  0.00  0.00    +0.000 A 
ATOM     13  C   UNL     1       4.810   4.439  16.041  0.00  0.00    +0.000 A 
ATOM     14  C   UNL     1       5.826   5.362  15.743  0.00  0.00    +0.000 A 
BRANCH   9  16
ATOM     15  C   UNL     1       7.762   7.761  17.546  0.00  0.00    +0.000 C 
ATOM     16  O   UNL     1       7.702   6.714  16.586  0.00  0.00    +0.000 OA
ENDBRANCH   9  16
ENDBRANCH   8  12
ENDBRANCH   6   8
ENDBRANCH   1   6
BRANCH   5  17
ATOM     17  C   UNL     1       1.734   3.588  21.265  0.00  0.00    +0.000 C 
ATOM     18  N   UNL     1       1.644   2.759  22.078  0.00  0.00    +0.000 NA
ENDBRANCH   5  17
BRANCH   3  19
ATOM     19  C   UNL     1       2.076   8.025  19.248  0.00  0.00    +0.000 C 
BRANCH  19  20
ATOM     20  C   UNL     1       1.271   8.836  20.248  0.00  0.00    +0.000 A 
ATOM     21  C   UNL     1       1.462   8.552  21.614  0.00  0.00    +0.000 A 
ATOM     22  C   UNL     1       0.713   9.200  22.590  0.00  0.00    +0.000 A 
ATOM     23  C   UNL     1      -0.262  10.120  22.216  0.00  0.00    +0.000 A 
ATOM     24  C   UNL     1      -0.489  10.420  20.866  0.00  0.00    +0.000 A 
ATOM     25  C   UNL     1      -1.523  11.305  20.516  0.00  0.00    +0.000 A 
ATOM     26  C   UNL     1      -1.766  11.634  19.186  0.00  0.00    +0.000 A 
ATOM     27  C   UNL     1      -0.947  11.117  18.192  0.00  0.00    +0.000 A 
ATOM     28  C   UNL     1       0.079  10.225  18.524  0.00  0.00    +0.000 A 
ATOM     29  C   UNL     1       0.310   9.817  19.859  0.00  0.00    +0.000 A 
ENDBRANCH  19  20
ENDBRANCH   3  19
TORSDOF 7
ENDMDL
MODEL 7
REMARK VINA RESULT:      -7.4      3.118      8.230
REMARK  Name = 
REMARK  8 active torsions:
REMARK  status: ('A' for Active; 'I' for Inactive)
REMARK    1  A    between atoms: C_1  and  O_2
REMARK    2  A    between atoms: O_2  and  C_3
REMARK    3  A    between atoms: C_6  and  C_7
REMARK    4  A    between atoms: C_7  and  N_8
REMARK    5  A    between atoms: N_8  and  C_9
REMARK    6  A    between atoms: C_11  and  C_12
REMARK    7  A    between atoms: C_12  and  C_13
REMARK    8  A    between atoms: C_24  and  C_25
REMARK                            x       y       z     vdW  Elec       q    Type
REMARK                         _______ _______ _______ _____ _____    ______ ____
ROOT
ATOM      1  C   UNL     1       1.954   8.067  18.630  0.00  0.00    +0.000 A 
ATOM      2  O   UNL     1       2.488   7.011  17.938  0.00  0.00    +0.000 OA
ATOM      3  C   UNL     1       2.753   6.067  18.902  0.00  0.00    +0.000 A 
ATOM      4  N   UNL     1       2.349   6.394  20.115  0.00  0.00    +0.000 NA
ATOM      5  C   UNL     1       1.853   7.664  19.947  0.00  0.00    +0.000 A 
ENDROOT
BRANCH   1   6
ATOM      6  N   UNL     1       1.702   9.192  17.919  0.00  0.00    +0.000 N 
ATOM      7  H   UNL     1       1.343   9.098  16.973  0.00  0.00    +0.000 HD
BRANCH   6   8
ATOM      8  C   UNL     1       1.376  10.432  18.607  0.00  0.00    +0.000 C 
BRANCH   8  12
ATOM      9  C   UNL     1      -2.862  11.333  18.409  0.00  0.00    +0.000 A 
ATOM     10  C   UNL     1      -2.292  10.333  17.626  0.00  0.00    +0.000 A 
ATOM     11  C   UNL     1      -0.922  10.072  17.695  0.00  0.00    +0.000 A 
ATOM     12  C   UNL     1      -0.084  10.825  18.535  0.00  0.00    +0.000 A 
ATOM     13  C   UNL     1      -0.667  11.821  19.329  0.00  0.00    +0.000 A 
ATOM     14  C   UNL     1      -2.046  12.080  19.259  0.00  0.00    +0.000 A 
BRANCH   9  16
ATOM     15  C   UNL     1      -4.686  11.406  16.898  0.00  0.00    +0.000 C 
ATOM     16  O   UNL     1      -4.208  11.500  18.234  0.00  0.00    +0.000 OA
ENDBRANCH   9  16
ENDBRANCH   8  12
ENDBRANCH   6   8
ENDBRANCH   1   6
BRANCH   5  17
ATOM     17  C   UNL     1       1.278   8.372  21.038  0.00  0.00    +0.000 C 
ATOM     18  N   UNL     1       0.771   8.930  21.926  0.00  0.00    +0.000 NA
ENDBRANCH   5  17
BRANCH   3  19
ATOM     19  C   UNL     1       3.401   4.799  18.469  0.00  0.00    +0.000 C 
BRANCH  19  20
ATOM     20  C   UNL     1       4.896   4.918  18.230  0.00  0.00    +0.000 A 
ATOM     21  C   UNL     1       5.701   5.272  19.330  0.00  0.00    +0.000 A 
ATOM     22  C   UNL     1       7.069   5.469  19.179  0.00  0.00    +0.000 A 
ATOM     23  C   UNL     1       7.650   5.348  17.921  0.00  0.00    +0.000 A 
ATOM     24  C   UNL     1       6.880   5.009  16.801  0.00  0.00    +0.000 A 
ATOM     25  C   UNL     1       7.484   4.957  15.533  0.00  0.00    +0.000 A 
ATOM     26  C   UNL     1       6.750   4.611  14.403  0.00  0.00    +0.000 A 
ATOM     27  C   UNL     1       5.411   4.268  14.534  0.00  0.00    +0.000 A 
ATOM     28  C   UNL     1       4.794   4.327  15.788  0.00  0.00    +0.000 A 
ATOM     29  C   UNL     1       5.494   4.740  16.946  0.00  0.00    +0.000 A 
ENDBRANCH  19  20
ENDBRANCH   3  19
TORSDOF 7
ENDMDL
MODEL 8
REMARK VINA RESULT:      -7.4      1.943      2.848
REMARK  Name = 
REMARK  8 active torsions:
REMARK  status: ('A' for Active; 'I' for Inactive)
REMARK    1  A    between atoms: C_1  and  O_2
REMARK    2  A    between atoms: O_2  and  C_3
REMARK    3  A    between atoms: C_6  and  C_7
REMARK    4  A    between atoms: C_7  and  N_8
REMARK    5  A    between atoms: N_8  and  C_9
REMARK    6  A    between atoms: C_11  and  C_12
REMARK    7  A    between atoms: C_12  and  C_13
REMARK    8  A    between atoms: C_24  and  C_25
REMARK                            x       y       z     vdW  Elec       q    Type
REMARK                         _______ _______ _______ _____ _____    ______ ____
ROOT
ATOM      1  C   UNL     1       3.485   4.989  19.770  0.00  0.00    +0.000 A 
ATOM      2  O   UNL     1       3.432   6.252  19.239  0.00  0.00    +0.000 OA
ATOM      3  C   UNL     1       2.258   6.780  19.722  0.00  0.00    +0.000 A 
ATOM      4  N   UNL     1       1.621   6.004  20.579  0.00  0.00    +0.000 NA
ATOM      5  C   UNL     1       2.390   4.866  20.602  0.00  0.00    +0.000 A 
ENDROOT
BRANCH   1   6
ATOM      6  N   UNL     1       4.505   4.201  19.356  0.00  0.00    +0.000 N 
ATOM      7  H   UNL     1       5.082   3.746  20.057  0.00  0.00    +0.000 HD
BRANCH   6   8
ATOM      8  C   UNL     1       4.441   3.548  18.057  0.00  0.00    +0.000 C 
BRANCH   8  12
ATOM      9  C   UNL     1       7.102   5.109  15.008  0.00  0.00    +0.000 A 
ATOM     10  C   UNL     1       6.036   4.272  14.687  0.00  0.00    +0.000 A 
ATOM     11  C   UNL     1       5.203   3.768  15.688  0.00  0.00    +0.000 A 
ATOM     12  C   UNL     1       5.432   4.073  17.041  0.00  0.00    +0.000 A 
ATOM     13  C   UNL     1       6.499   4.925  17.354  0.00  0.00    +0.000 A 
ATOM     14  C   UNL     1       7.334   5.432  16.345  0.00  0.00    +0.000 A 
BRANCH   9  16
ATOM     15  C   UNL     1       7.520   4.944  12.681  0.00  0.00    +0.000 C 
ATOM     16  O   UNL     1       7.852   5.517  13.940  0.00  0.00    +0.000 OA
ENDBRANCH   9  16
ENDBRANCH   8  12
ENDBRANCH   6   8
ENDBRANCH   1   6
BRANCH   5  17
ATOM     17  C   UNL     1       2.052   3.775  21.448  0.00  0.00    +0.000 C 
ATOM     18  N   UNL     1       1.734   2.883  22.127  0.00  0.00    +0.000 NA
ENDBRANCH   5  17
BRANCH   3  19
ATOM     19  C   UNL     1       1.878   8.147  19.276  0.00  0.00    +0.000 C 
BRANCH  19  20
ATOM     20  C   UNL     1       1.156   8.966  20.332  0.00  0.00    +0.000 A 
ATOM     21  C   UNL     1       1.357   8.606  21.679  0.00  0.00    +0.000 A 
ATOM     22  C   UNL     1       0.679   9.259  22.702  0.00  0.00    +0.000 A 
ATOM     23  C   UNL     1      -0.235  10.261  22.395  0.00  0.00    +0.000 A 
ATOM     24  C   UNL     1      -0.472  10.639  21.066  0.00  0.00    +0.000 A 
ATOM     25  C   UNL     1      -1.447  11.610  20.784  0.00  0.00    +0.000 A 
ATOM     26  C   UNL     1      -1.697  12.017  19.476  0.00  0.00    +0.000 A 
ATOM     27  C   UNL     1      -0.941  11.489  18.439  0.00  0.00    +0.000 A 
ATOM     28  C   UNL     1       0.026  10.514  18.704  0.00  0.00    +0.000 A 
ATOM     29  C   UNL     1       0.258  10.029  20.013  0.00  0.00    +0.000 A 
ENDBRANCH  19  20
ENDBRANCH   3  19
TORSDOF 7
ENDMDL
MODEL 9
REMARK VINA RESULT:      -7.4      1.988      2.599
REMARK  Name = 
REMARK  8 active torsions:
REMARK  status: ('A' for Active; 'I' for Inactive)
REMARK    1  A    between atoms: C_1  and  O_2
REMARK    2  A    between atoms: O_2  and  C_3
REMARK    3  A    between atoms: C_6  and  C_7
REMARK    4  A    between atoms: C_7  and  N_8
REMARK    5  A    between atoms: N_8  and  C_9
REMARK    6  A    between atoms: C_11  and  C_12
REMARK    7  A    between atoms: C_12  and  C_13
REMARK    8  A    between atoms: C_24  and  C_25
REMARK                            x       y       z     vdW  Elec       q    Type
REMARK                         _______ _______ _______ _____ _____    ______ ____
ROOT
ATOM      1  C   UNL     1       2.442   4.856  18.504  0.00  0.00    +0.000 A 
ATOM      2  O   UNL     1       2.743   6.150  18.167  0.00  0.00    +0.000 OA
ATOM      3  C   UNL     1       2.347   6.890  19.256  0.00  0.00    +0.000 A 
ATOM      4  N   UNL     1       1.915   6.174  20.277  0.00  0.00    +0.000 NA
ATOM      5  C   UNL     1       1.965   4.887  19.800  0.00  0.00    +0.000 A 
ENDROOT
BRANCH   1   6
ATOM      6  N   UNL     1       2.635   3.920  17.544  0.00  0.00    +0.000 N 
ATOM      7  H   UNL     1       2.103   3.992  16.682  0.00  0.00    +0.000 HD
BRANCH   6   8
ATOM      8  C   UNL     1       3.908   3.220  17.455  0.00  0.00    +0.000 C 
BRANCH   8  12
ATOM      9  C   UNL     1       6.972   4.973  14.935  0.00  0.00    +0.000 A 
ATOM     10  C   UNL     1       7.100   4.938  16.321  0.00  0.00    +0.000 A 
ATOM     11  C   UNL     1       6.092   4.383  17.113  0.00  0.00    +0.000 A 
ATOM     12  C   UNL     1       4.918   3.870  16.535  0.00  0.00    +0.000 A 
ATOM     13  C   UNL     1       4.803   3.899  15.139  0.00  0.00    +0.000 A 
ATOM     14  C   UNL     1       5.820   4.455  14.345  0.00  0.00    +0.000 A 
BRANCH   9  16
ATOM     15  C   UNL     1       8.052   5.391  12.867  0.00  0.00    +0.000 C 
ATOM     16  O   UNL     1       8.018   5.560  14.279  0.00  0.00    +0.000 OA
ENDBRANCH   9  16
ENDBRANCH   8  12
ENDBRANCH   6   8
ENDBRANCH   1   6
BRANCH   5  17
ATOM     17  C   UNL     1       1.604   3.788  20.626  0.00  0.00    +0.000 C 
ATOM     18  N   UNL     1       1.283   2.914  21.327  0.00  0.00    +0.000 NA
ENDBRANCH   5  17
BRANCH   3  19
ATOM     19  C   UNL     1       2.493   8.369  19.179  0.00  0.00    +0.000 C 
BRANCH  19  20
ATOM     20  C   UNL     1       1.182   9.127  19.292  0.00  0.00    +0.000 A 
ATOM     21  C   UNL     1       0.571   9.545  18.093  0.00  0.00    +0.000 A 
ATOM     22  C   UNL     1      -0.594  10.305  18.113  0.00  0.00    +0.000 A 
ATOM     23  C   UNL     1      -1.149  10.688  19.329  0.00  0.00    +0.000 A 
ATOM     24  C   UNL     1      -0.563  10.302  20.542  0.00  0.00    +0.000 A 
ATOM     25  C   UNL     1      -1.111  10.757  21.753  0.00  0.00    +0.000 A 
ATOM     26  C   UNL     1      -0.561  10.381  22.975  0.00  0.00    +0.000 A 
ATOM     27  C   UNL     1       0.517   9.508  23.001  0.00  0.00    +0.000 A 
ATOM     28  C   UNL     1       1.080   9.056  21.803  0.00  0.00    +0.000 A 
ATOM     29  C   UNL     1       0.588   9.472  20.543  0.00  0.00    +0.000 A 
ENDBRANCH  19  20
ENDBRANCH   3  19
TORSDOF 7
ENDMDL
