MODEL 1
REMARK VINA RESULT:      -7.0      0.000      0.000
REMARK  Name = 
REMARK  2 active torsions:
REMARK  status: ('A' for Active; 'I' for Inactive)
REMARK    1  A    between atoms: C_2  and  C_11
REMARK    2  A    between atoms: N_3  and  C_4
REMARK                            x       y       z     vdW  Elec       q    Type
REMARK                         _______ _______ _______ _____ _____    ______ ____
ROOT
ATOM      1  O   UNL     1       2.538   4.561  17.499  0.00  0.00    +0.000 OA
ATOM      2  C   UNL     1       2.985   3.472  17.856  0.00  0.00    +0.000 C 
ATOM      3  N   UNL     1       4.315   3.112  17.707  0.00  0.00    +0.000 N 
ATOM      4  H   UNL     1       4.486   2.128  17.537  0.00  0.00    +0.000 HD
ENDROOT
BRANCH   3   5
ATOM      5  C   UNL     1       5.258   4.030  17.204  0.00  0.00    +0.000 A 
ATOM      6  C   UNL     1       5.445   4.115  15.823  0.00  0.00    +0.000 A 
ATOM      7  C   UNL     1       6.354   5.036  15.297  0.00  0.00    +0.000 A 
ATOM      8  C   UNL     1       7.119   5.829  16.153  0.00  0.00    +0.000 A 
ATOM      9  C   UNL     1       6.952   5.722  17.534  0.00  0.00    +0.000 A 
ATOM     10 CL   UNL     1       7.933   6.660  18.586  0.00  0.00    +0.000 Cl
ATOM     11  C   UNL     1       6.008   4.837  18.062  0.00  0.00    +0.000 A 
ENDBRANCH   3   5
BRANCH   2  12
ATOM     12  C   UNL     1       2.101   2.382  18.470  0.00  0.00    +0.000 C 
ATOM     13  C   UNL     1       2.807   1.690  19.641  0.00  0.00    +0.000 C 
ATOM     14  C   UNL     1       2.964   2.624  20.842  0.00  0.00    +0.000 C 
ATOM     15  C   UNL     1       1.623   3.196  21.295  0.00  0.00    +0.000 C 
ATOM     16  C   UNL     1       0.855   3.854  20.155  0.00  0.00    +0.000 C 
ATOM     17  C   UNL     1       0.745   2.945  18.928  0.00  0.00    +0.000 C 
ENDBRANCH   2  12
TORSDOF 2
ENDMDL
MODEL 2
REMARK VINA RESULT:      -7.0      1.893      2.382
REMARK  Name = 
REMARK  2 active torsions:
REMARK  status: ('A' for Active; 'I' for Inactive)
REMARK    1  A    between atoms: C_2  and  C_11
REMARK    2  A    between atoms: N_3  and  C_4
REMARK                            x       y       z     vdW  Elec       q    Type
REMARK                         _______ _______ _______ _____ _____    ______ ____
ROOT
ATOM      1  O   UNL     1       3.082   2.521  17.705  0.00  0.00    +0.000 OA
ATOM      2  C   UNL     1       2.771   3.658  18.056  0.00  0.00    +0.000 C 
ATOM      3  N   UNL     1       3.605   4.755  17.902  0.00  0.00    +0.000 N 
ATOM      4  H   UNL     1       3.526   5.469  18.616  0.00  0.00    +0.000 HD
ENDROOT
BRANCH   3   5
ATOM      5  C   UNL     1       4.844   4.632  17.244  0.00  0.00    +0.000 A 
ATOM      6  C   UNL     1       6.017   4.825  17.974  0.00  0.00    +0.000 A 
ATOM      7  C   UNL     1       7.259   4.681  17.351  0.00  0.00    +0.000 A 
ATOM      8  C   UNL     1       7.328   4.403  15.986  0.00  0.00    +0.000 A 
ATOM      9  C   UNL     1       6.154   4.239  15.251  0.00  0.00    +0.000 A 
ATOM     10 CL   UNL     1       6.240   3.952  13.560  0.00  0.00    +0.000 Cl
ATOM     11  C   UNL     1       4.909   4.333  15.881  0.00  0.00    +0.000 A 
ENDBRANCH   3   5
BRANCH   2  12
ATOM     12  C   UNL     1       1.437   3.971  18.741  0.00  0.00    +0.000 C 
ATOM     13  C   UNL     1       0.815   2.708  19.346  0.00  0.00    +0.000 C 
ATOM     14  C   UNL     1       1.621   2.193  20.539  0.00  0.00    +0.000 C 
ATOM     15  C   UNL     1       1.794   3.265  21.612  0.00  0.00    +0.000 C 
ATOM     16  C   UNL     1       2.365   4.563  21.053  0.00  0.00    +0.000 C 
ATOM     17  C   UNL     1       1.597   5.053  19.823  0.00  0.00    +0.000 C 
ENDBRANCH   2  12
TORSDOF 2
ENDMDL
MODEL 3
REMARK VINA RESULT:      -7.0      2.754      6.012
REMARK  Name = 
REMARK  2 active torsions:
REMARK  status: ('A' for Active; 'I' for Inactive)
REMARK    1  A    between atoms: C_2  and  C_11
REMARK    2  A    between atoms: N_3  and  C_4
REMARK                            x       y       z     vdW  Elec       q    Type
REMARK                         _______ _______ _______ _____ _____    ______ ____
ROOT
ATOM      1  O   UNL     1       5.713   4.037  19.291  0.00  0.00    +0.000 OA
ATOM      2  C   UNL     1       5.513   4.981  18.529  0.00  0.00    +0.000 C 
ATOM      3  N   UNL     1       4.253   5.503  18.279  0.00  0.00    +0.000 N 
ATOM      4  H   UNL     1       4.108   5.871  17.347  0.00  0.00    +0.000 HD
ENDROOT
BRANCH   3   5
ATOM      5  C   UNL     1       3.124   5.018  18.967  0.00  0.00    +0.000 A 
ATOM      6  C   UNL     1       2.724   5.658  20.142  0.00  0.00    +0.000 A 
ATOM      7  C   UNL     1       1.592   5.214  20.828  0.00  0.00    +0.000 A 
ATOM      8  C   UNL     1       0.893   4.095  20.374  0.00  0.00    +0.000 A 
ATOM      9  C   UNL     1       1.310   3.439  19.215  0.00  0.00    +0.000 A 
ATOM     10 CL   UNL     1       0.482   2.030  18.689  0.00  0.00    +0.000 Cl
ATOM     11  C   UNL     1       2.414   3.910  18.498  0.00  0.00    +0.000 A 
ENDBRANCH   3   5
BRANCH   2  12
ATOM     12  C   UNL     1       6.642   5.655  17.743  0.00  0.00    +0.000 C 
ATOM     13  C   UNL     1       7.421   4.635  16.906  0.00  0.00    +0.000 C 
ATOM     14  C   UNL     1       6.579   4.081  15.757  0.00  0.00    +0.000 C 
ATOM     15  C   UNL     1       6.036   5.194  14.864  0.00  0.00    +0.000 C 
ATOM     16  C   UNL     1       5.292   6.265  15.653  0.00  0.00    +0.000 C 
ATOM     17  C   UNL     1       6.108   6.782  16.841  0.00  0.00    +0.000 C 
ENDBRANCH   2  12
TORSDOF 2
ENDMDL
MODEL 4
REMARK VINA RESULT:      -7.0      2.037      2.446
REMARK  Name = 
REMARK  2 active torsions:
REMARK  status: ('A' for Active; 'I' for Inactive)
REMARK    1  A    between atoms: C_2  and  C_11
REMARK    2  A    between atoms: N_3  and  C_4
REMARK                            x       y       z     vdW  Elec       q    Type
REMARK                         _______ _______ _______ _____ _____    ______ ____
ROOT
ATOM      1  O   UNL     1       5.237   3.468  19.428  0.00  0.00    +0.000 OA
ATOM      2  C   UNL     1       4.108   3.153  19.057  0.00  0.00    +0.000 C 
ATOM      3  N   UNL     1       3.532   3.629  17.889  0.00  0.00    +0.000 N 
ATOM      4  H   UNL     1       2.527   3.752  17.915  0.00  0.00    +0.000 HD
ENDROOT
BRANCH   3   5
ATOM      5  C   UNL     1       4.262   4.451  17.009  0.00  0.00    +0.000 A 
ATOM      6  C   UNL     1       4.262   5.831  17.218  0.00  0.00    +0.000 A 
ATOM      7  C   UNL     1       5.000   6.666  16.376  0.00  0.00    +0.000 A 
ATOM      8  C   UNL     1       5.690   6.128  15.289  0.00  0.00    +0.000 A 
ATOM      9  C   UNL     1       5.667   4.751  15.064  0.00  0.00    +0.000 A 
ATOM     10 CL   UNL     1       6.471   4.098  13.695  0.00  0.00    +0.000 Cl
ATOM     11  C   UNL     1       4.969   3.907  15.934  0.00  0.00    +0.000 A 
ENDBRANCH   3   5
BRANCH   2  12
ATOM     12  C   UNL     1       3.203   2.226  19.874  0.00  0.00    +0.000 C 
ATOM     13  C   UNL     1       2.922   2.810  21.263  0.00  0.00    +0.000 C 
ATOM     14  C   UNL     1       2.041   4.057  21.188  0.00  0.00    +0.000 C 
ATOM     15  C   UNL     1       0.731   3.783  20.454  0.00  0.00    +0.000 C 
ATOM     16  C   UNL     1       0.951   3.155  19.082  0.00  0.00    +0.000 C 
ATOM     17  C   UNL     1       1.880   1.939  19.143  0.00  0.00    +0.000 C 
ENDBRANCH   2  12
TORSDOF 2
ENDMDL
MODEL 5
REMARK VINA RESULT:      -6.9      2.297      5.752
REMARK  Name = 
REMARK  2 active torsions:
REMARK  status: ('A' for Active; 'I' for Inactive)
REMARK    1  A    between atoms: C_2  and  C_11
REMARK    2  A    between atoms: N_3  and  C_4
REMARK                            x       y       z     vdW  Elec       q    Type
REMARK                         _______ _______ _______ _____ _____    ______ ____
ROOT
ATOM      1  O   UNL     1       4.456   5.243  16.825  0.00  0.00    +0.000 OA
ATOM      2  C   UNL     1       5.387   4.526  17.189  0.00  0.00    +0.000 C 
ATOM      3  N   UNL     1       5.232   3.473  18.077  0.00  0.00    +0.000 N 
ATOM      4  H   UNL     1       6.023   3.291  18.683  0.00  0.00    +0.000 HD
ENDROOT
BRANCH   3   5
ATOM      5  C   UNL     1       3.956   3.113  18.552  0.00  0.00    +0.000 A 
ATOM      6  C   UNL     1       3.025   2.589  17.654  0.00  0.00    +0.000 A 
ATOM      7  C   UNL     1       1.763   2.199  18.105  0.00  0.00    +0.000 A 
ATOM      8  C   UNL     1       1.409   2.387  19.442  0.00  0.00    +0.000 A 
ATOM      9  C   UNL     1       2.331   2.936  20.333  0.00  0.00    +0.000 A 
ATOM     10 CL   UNL     1       1.875   3.217  21.964  0.00  0.00    +0.000 Cl
ATOM     11  C   UNL     1       3.613   3.283  19.895  0.00  0.00    +0.000 A 
ENDBRANCH   3   5
BRANCH   2  12
ATOM     12  C   UNL     1       6.828   4.752  16.723  0.00  0.00    +0.000 C 
ATOM     13  C   UNL     1       7.007   6.155  16.132  0.00  0.00    +0.000 C 
ATOM     14  C   UNL     1       6.891   7.241  17.202  0.00  0.00    +0.000 C 
ATOM     15  C   UNL     1       7.877   7.019  18.346  0.00  0.00    +0.000 C 
ATOM     16  C   UNL     1       7.777   5.618  18.939  0.00  0.00    +0.000 C 
ATOM     17  C   UNL     1       7.833   4.528  17.866  0.00  0.00    +0.000 C 
ENDBRANCH   2  12
TORSDOF 2
ENDMDL
MODEL 6
REMARK VINA RESULT:      -6.9      1.256      1.481
REMARK  Name = 
REMARK  2 active torsions:
REMARK  status: ('A' for Active; 'I' for Inactive)
REMARK    1  A    between atoms: C_2  and  C_11
REMARK    2  A    between atoms: N_3  and  C_4
REMARK                            x       y       z     vdW  Elec       q    Type
REMARK                         _______ _______ _______ _____ _____    ______ ____
ROOT
ATOM      1  O   UNL     1       5.243   3.212  19.660  0.00  0.00    +0.000 OA
ATOM      2  C   UNL     1       4.208   3.028  19.023  0.00  0.00    +0.000 C 
ATOM      3  N   UNL     1       4.007   3.519  17.742  0.00  0.00    +0.000 N 
ATOM      4  H   UNL     1       3.053   3.771  17.514  0.00  0.00    +0.000 HD
ENDROOT
BRANCH   3   5
ATOM      5  C   UNL     1       5.036   4.197  17.061  0.00  0.00    +0.000 A 
ATOM      6  C   UNL     1       5.531   3.653  15.874  0.00  0.00    +0.000 A 
ATOM      7  C   UNL     1       6.533   4.320  15.165  0.00  0.00    +0.000 A 
ATOM      8  C   UNL     1       7.081   5.499  15.672  0.00  0.00    +0.000 A 
ATOM      9  C   UNL     1       6.605   6.026  16.872  0.00  0.00    +0.000 A 
ATOM     10 CL   UNL     1       7.319   7.447  17.521  0.00  0.00    +0.000 Cl
ATOM     11  C   UNL     1       5.569   5.388  17.560  0.00  0.00    +0.000 A 
ENDBRANCH   3   5
BRANCH   2  12
ATOM     12  C   UNL     1       3.012   2.266  19.601  0.00  0.00    +0.000 C 
ATOM     13  C   UNL     1       2.765   2.649  21.065  0.00  0.00    +0.000 C 
ATOM     14  C   UNL     1       2.263   4.087  21.198  0.00  0.00    +0.000 C 
ATOM     15  C   UNL     1       1.006   4.330  20.367  0.00  0.00    +0.000 C 
ATOM     16  C   UNL     1       1.181   3.918  18.910  0.00  0.00    +0.000 C 
ATOM     17  C   UNL     1       1.738   2.499  18.771  0.00  0.00    +0.000 C 
ENDBRANCH   2  12
TORSDOF 2
ENDMDL
MODEL 7
REMARK VINA RESULT:      -6.8      2.561      5.943
REMARK  Name = 
REMARK  2 active torsions:
REMARK  status: ('A' for Active; 'I' for Inactive)
REMARK    1  A    between atoms: C_2  and  C_11
REMARK    2  A    between atoms: N_3  and  C_4
REMARK                            x       y       z     vdW  Elec       q    Type
REMARK                         _______ _______ _______ _____ _____    ______ ____
ROOT
ATOM      1  O   UNL     1       5.265   5.504  19.499  0.00  0.00    +0.000 OA
ATOM      2  C   UNL     1       5.726   4.594  18.812  0.00  0.00    +0.000 C 
ATOM      3  N   UNL     1       4.996   3.473  18.447  0.00  0.00    +0.000 N 
ATOM      4  H   UNL     1       5.527   2.615  18.358  0.00  0.00    +0.000 HD
ENDROOT
BRANCH   3   5
ATOM      5  C   UNL     1       3.633   3.360  18.785  0.00  0.00    +0.000 A 
ATOM      6  C   UNL     1       2.672   3.693  17.829  0.00  0.00    +0.000 A 
ATOM      7  C   UNL     1       1.314   3.563  18.130  0.00  0.00    +0.000 A 
ATOM      8  C   UNL     1       0.916   3.158  19.405  0.00  0.00    +0.000 A 
ATOM      9  C   UNL     1       1.878   2.853  20.368  0.00  0.00    +0.000 A 
ATOM     10 CL   UNL     1       1.386   2.408  21.952  0.00  0.00    +0.000 Cl
ATOM     11  C   UNL     1       3.238   2.934  20.055  0.00  0.00    +0.000 A 
ENDBRANCH   3   5
BRANCH   2  12
ATOM     12  C   UNL     1       7.176   4.590  18.319  0.00  0.00    +0.000 C 
ATOM     13  C   UNL     1       7.242   4.562  16.788  0.00  0.00    +0.000 C 
ATOM     14  C   UNL     1       6.748   5.873  16.175  0.00  0.00    +0.000 C 
ATOM     15  C   UNL     1       7.514   7.077  16.716  0.00  0.00    +0.000 C 
ATOM     16  C   UNL     1       7.523   7.126  18.240  0.00  0.00    +0.000 C 
ATOM     17  C   UNL     1       7.961   5.797  18.861  0.00  0.00    +0.000 C 
ENDBRANCH   2  12
TORSDOF 2
ENDMDL
MODEL 8
REMARK VINA RESULT:      -6.8      1.456      2.065
REMARK  Name = 
REMARK  2 active torsions:
REMARK  status: ('A' for Active; 'I' for Inactive)
REMARK    1  A    between atoms: C_2  and  C_11
REMARK    2  A    between atoms: N_3  and  C_4
REMARK                            x       y       z     vdW  Elec       q    Type
REMARK                         _______ _______ _______ _____ _____    ______ ____
ROOT
ATOM      1  O   UNL     1       3.416   3.505  17.465  0.00  0.00    +0.000 OA
ATOM      2  C   UNL     1       3.910   3.122  18.524  0.00  0.00    +0.000 C 
ATOM      3  N   UNL     1       5.174   3.497  18.953  0.00  0.00    +0.000 N 
ATOM      4  H   UNL     1       5.677   2.804  19.493  0.00  0.00    +0.000 HD
ENDROOT
BRANCH   3   5
ATOM      5  C   UNL     1       5.938   4.424  18.217  0.00  0.00    +0.000 A 
ATOM      6  C   UNL     1       6.460   5.539  18.875  0.00  0.00    +0.000 A 
ATOM      7  C   UNL     1       7.244   6.459  18.176  0.00  0.00    +0.000 A 
ATOM      8  C   UNL     1       7.457   6.297  16.806  0.00  0.00    +0.000 A 
ATOM      9  C   UNL     1       6.911   5.197  16.144  0.00  0.00    +0.000 A 
ATOM     10 CL   UNL     1       7.128   5.029  14.449  0.00  0.00    +0.000 Cl
ATOM     11  C   UNL     1       6.167   4.248  16.851  0.00  0.00    +0.000 A 
ENDBRANCH   3   5
BRANCH   2  12
ATOM     12  C   UNL     1       3.187   2.152  19.463  0.00  0.00    +0.000 C 
ATOM     13  C   UNL     1       3.181   2.677  20.904  0.00  0.00    +0.000 C 
ATOM     14  C   UNL     1       2.295   3.914  21.053  0.00  0.00    +0.000 C 
ATOM     15  C   UNL     1       0.868   3.652  20.578  0.00  0.00    +0.000 C 
ATOM     16  C   UNL     1       0.819   3.081  19.166  0.00  0.00    +0.000 C 
ATOM     17  C   UNL     1       1.748   1.877  18.994  0.00  0.00    +0.000 C 
ENDBRANCH   2  12
TORSDOF 2
ENDMDL
MODEL 9
REMARK VINA RESULT:      -6.8      1.653      2.210
REMARK  Name = 
REMARK  2 active torsions:
REMARK  status: ('A' for Active; 'I' for Inactive)
REMARK    1  A    between atoms: C_2  and  C_11
REMARK    2  A    between atoms: N_3  and  C_4
REMARK                            x       y       z     vdW  Elec       q    Type
REMARK                         _______ _______ _______ _____ _____    ______ ____
ROOT
ATOM      1  O   UNL     1       2.750   5.775  17.944  0.00  0.00    +0.000 OA
ATOM      2  C   UNL     1       2.613   4.588  18.238  0.00  0.00    +0.000 C 
ATOM      3  N   UNL     1       3.572   3.623  17.969  0.00  0.00    +0.000 N 
ATOM      4  H   UNL     1       3.216   2.698  17.764  0.00  0.00    +0.000 HD
ENDROOT
BRANCH   3   5
ATOM      5  C   UNL     1       4.814   3.979  17.408  0.00  0.00    +0.000 A 
ATOM      6  C   UNL     1       5.833   4.421  18.253  0.00  0.00    +0.000 A 
ATOM      7  C   UNL     1       7.083   4.754  17.725  0.00  0.00    +0.000 A 
ATOM      8  C   UNL     1       7.296   4.701  16.347  0.00  0.00    +0.000 A 
ATOM      9  C   UNL     1       6.267   4.286  15.501  0.00  0.00    +0.000 A 
ATOM     10 CL   UNL     1       6.514   4.275  13.802  0.00  0.00    +0.000 Cl
ATOM     11  C   UNL     1       5.030   3.905  16.030  0.00  0.00    +0.000 A 
ENDBRANCH   3   5
BRANCH   2  12
ATOM     12  C   UNL     1       1.343   4.047  18.900  0.00  0.00    +0.000 C 
ATOM     13  C   UNL     1       1.391   2.521  19.029  0.00  0.00    +0.000 C 
ATOM     14  C   UNL     1       2.442   2.070  20.044  0.00  0.00    +0.000 C 
ATOM     15  C   UNL     1       2.222   2.710  21.412  0.00  0.00    +0.000 C 
ATOM     16  C   UNL     1       2.116   4.229  21.335  0.00  0.00    +0.000 C 
ATOM     17  C   UNL     1       1.107   4.688  20.279  0.00  0.00    +0.000 C 
ENDBRANCH   2  12
TORSDOF 2
ENDMDL
