MODEL 1
REMARK VINA RESULT:      -8.3      0.000      0.000
REMARK  Name = 
REMARK  4 active torsions:
REMARK  status: ('A' for Active; 'I' for Inactive)
REMARK    1  A    between atoms: C_1  and  C_2
REMARK    2  A    between atoms: C_2  and  C_3
REMARK    3  A    between atoms: C_3  and  C_4
REMARK    4  A    between atoms: N_12  and  C_13
REMARK                            x       y       z     vdW  Elec       q    Type
REMARK                         _______ _______ _______ _____ _____    ______ ____
ROOT
ATOM      1  C   UNL     1       5.399   3.814  12.480  0.00  0.00    +0.000 C 
ATOM      2  C   UNL     1       6.872   4.069  12.135  0.00  0.00    +0.000 C 
ATOM      3  C   UNL     1       7.508   5.011  13.137  0.00  0.00    +0.000 C 
ATOM      4  O   UNL     1       8.377   5.818  12.829  0.00  0.00    +0.000 OA
ATOM      5  C   UNL     1       7.100   4.865  14.541  0.00  0.00    +0.000 A 
ATOM      6  C   UNL     1       7.734   5.526  15.568  0.00  0.00    +0.000 A 
ATOM      7  N   UNL     1       7.412   5.356  16.872  0.00  0.00    +0.000 NA
ATOM      8  C   UNL     1       6.404   4.512  17.143  0.00  0.00    +0.000 A 
ATOM      9  N   UNL     1       6.103   4.289  18.487  0.00  0.00    +0.000 N 
ATOM     10  N   UNL     1       5.716   3.852  16.195  0.00  0.00    +0.000 NA
ATOM     11  C   UNL     1       6.069   4.032  14.905  0.00  0.00    +0.000 A 
ATOM     12  C   UNL     1       5.300   3.228  13.895  0.00  0.00    +0.000 C 
ATOM     13  H   UNL     1       6.674   4.908  19.049  0.00  0.00    +0.000 HD
ENDROOT
BRANCH   9  14
ATOM     14  C   UNL     1       4.835   4.024  19.035  0.00  0.00    +0.000 A 
ATOM     15  C   UNL     1       4.514   2.710  19.400  0.00  0.00    +0.000 A 
ATOM     16  C   UNL     1       3.266   2.409  19.958  0.00  0.00    +0.000 A 
ATOM     17  C   UNL     1       2.342   3.425  20.182  0.00  0.00    +0.000 A 
ATOM     18 CL   UNL     1       0.811   3.059  20.873  0.00  0.00    +0.000 Cl
ATOM     19  C   UNL     1       2.654   4.741  19.850  0.00  0.00    +0.000 A 
ATOM     20  C   UNL     1       3.895   5.035  19.277  0.00  0.00    +0.000 A 
ENDBRANCH   9  14
BRANCH   1  21
ATOM     21  C   UNL     1       4.747   2.895  11.428  0.00  0.00    +0.000 C 
BRANCH  21  23
ATOM     22  C   UNL     1       3.209   4.042   9.784  0.00  0.00    +0.000 C 
ATOM     23  C   UNL     1       3.303   3.289  11.100  0.00  0.00    +0.000 C 
ENDBRANCH  21  23
ENDBRANCH   1  21
TORSDOF 3
ENDMDL
MODEL 2
REMARK VINA RESULT:      -8.3      0.080      1.031
REMARK  Name = 
REMARK  4 active torsions:
REMARK  status: ('A' for Active; 'I' for Inactive)
REMARK    1  A    between atoms: C_1  and  C_2
REMARK    2  A    between atoms: C_2  and  C_3
REMARK    3  A    between atoms: C_3  and  C_4
REMARK    4  A    between atoms: N_12  and  C_13
REMARK                            x       y       z     vdW  Elec       q    Type
REMARK                         _______ _______ _______ _____ _____    ______ ____
ROOT
ATOM      1  C   UNL     1       5.390   3.840  12.455  0.00  0.00    +0.000 C 
ATOM      2  C   UNL     1       6.859   4.111  12.105  0.00  0.00    +0.000 C 
ATOM      3  C   UNL     1       7.493   5.047  13.115  0.00  0.00    +0.000 C 
ATOM      4  O   UNL     1       8.354   5.865  12.812  0.00  0.00    +0.000 OA
ATOM      5  C   UNL     1       7.094   4.881  14.519  0.00  0.00    +0.000 A 
ATOM      6  C   UNL     1       7.727   5.535  15.550  0.00  0.00    +0.000 A 
ATOM      7  N   UNL     1       7.414   5.347  16.854  0.00  0.00    +0.000 NA
ATOM      8  C   UNL     1       6.414   4.492  17.120  0.00  0.00    +0.000 A 
ATOM      9  N   UNL     1       6.122   4.250  18.463  0.00  0.00    +0.000 N 
ATOM     10  N   UNL     1       5.727   3.838  16.168  0.00  0.00    +0.000 NA
ATOM     11  C   UNL     1       6.072   4.035  14.878  0.00  0.00    +0.000 A 
ATOM     12  C   UNL     1       5.304   3.237  13.863  0.00  0.00    +0.000 C 
ATOM     13  H   UNL     1       6.691   4.867  19.030  0.00  0.00    +0.000 HD
ENDROOT
BRANCH   9  14
ATOM     14  C   UNL     1       4.860   3.969  19.015  0.00  0.00    +0.000 A 
ATOM     15  C   UNL     1       3.948   5.017  19.194  0.00  0.00    +0.000 A 
ATOM     16  C   UNL     1       2.678   4.776  19.730  0.00  0.00    +0.000 A 
ATOM     17  C   UNL     1       2.301   3.479  20.064  0.00  0.00    +0.000 A 
ATOM     18 CL   UNL     1       0.739   3.178  20.717  0.00  0.00    +0.000 Cl
ATOM     19  C   UNL     1       3.184   2.420  19.868  0.00  0.00    +0.000 A 
ATOM     20  C   UNL     1       4.458   2.668  19.348  0.00  0.00    +0.000 A 
ENDBRANCH   9  14
BRANCH   1  21
ATOM     21  C   UNL     1       4.741   2.929  11.395  0.00  0.00    +0.000 C 
BRANCH  21  23
ATOM     22  C   UNL     1       3.164   4.002   9.737  0.00  0.00    +0.000 C 
ATOM     23  C   UNL     1       3.290   3.310  11.084  0.00  0.00    +0.000 C 
ENDBRANCH  21  23
ENDBRANCH   1  21
TORSDOF 3
ENDMDL
MODEL 3
REMARK VINA RESULT:      -7.6      0.871      1.696
REMARK  Name = 
REMARK  4 active torsions:
REMARK  status: ('A' for Active; 'I' for Inactive)
REMARK    1  A    between atoms: C_1  and  C_2
REMARK    2  A    between atoms: C_2  and  C_3
REMARK    3  A    between atoms: C_3  and  C_4
REMARK    4  A    between atoms: N_12  and  C_13
REMARK                            x       y       z     vdW  Elec       q    Type
REMARK                         _______ _______ _______ _____ _____    ______ ____
ROOT
ATOM      1  C   UNL     1       5.714   3.540  12.624  0.00  0.00    +0.000 C 
ATOM      2  C   UNL     1       7.147   3.975  12.293  0.00  0.00    +0.000 C 
ATOM      3  C   UNL     1       7.604   5.083  13.220  0.00  0.00    +0.000 C 
ATOM      4  O   UNL     1       8.360   5.979  12.861  0.00  0.00    +0.000 OA
ATOM      5  C   UNL     1       7.169   5.003  14.621  0.00  0.00    +0.000 A 
ATOM      6  C   UNL     1       7.663   5.835  15.598  0.00  0.00    +0.000 A 
ATOM      7  N   UNL     1       7.319   5.735  16.904  0.00  0.00    +0.000 NA
ATOM      8  C   UNL     1       6.433   4.780  17.226  0.00  0.00    +0.000 A 
ATOM      9  N   UNL     1       6.117   4.633  18.577  0.00  0.00    +0.000 N 
ATOM     10  N   UNL     1       5.883   3.947  16.326  0.00  0.00    +0.000 NA
ATOM     11  C   UNL     1       6.255   4.063  15.034  0.00  0.00    +0.000 A 
ATOM     12  C   UNL     1       5.647   3.071  14.084  0.00  0.00    +0.000 C 
ATOM     13  H   UNL     1       6.572   5.375  19.094  0.00  0.00    +0.000 HD
ENDROOT
BRANCH   9  14
ATOM     14  C   UNL     1       4.880   4.236  19.116  0.00  0.00    +0.000 A 
ATOM     15  C   UNL     1       3.898   5.207  19.352  0.00  0.00    +0.000 A 
ATOM     16  C   UNL     1       2.651   4.850  19.877  0.00  0.00    +0.000 A 
ATOM     17  C   UNL     1       2.367   3.513  20.144  0.00  0.00    +0.000 A 
ATOM     18 CL   UNL     1       0.834   3.070  20.783  0.00  0.00    +0.000 Cl
ATOM     19  C   UNL     1       3.322   2.531  19.890  0.00  0.00    +0.000 A 
ATOM     20  C   UNL     1       4.571   2.895  19.381  0.00  0.00    +0.000 A 
ENDBRANCH   9  14
BRANCH   1  21
ATOM     21  C   UNL     1       5.240   2.448  11.645  0.00  0.00    +0.000 C 
BRANCH  21  23
ATOM     22  C   UNL     1       6.081   0.102  11.227  0.00  0.00    +0.000 C 
ATOM     23  C   UNL     1       6.387   1.586  11.107  0.00  0.00    +0.000 C 
ENDBRANCH  21  23
ENDBRANCH   1  21
TORSDOF 3
ENDMDL
MODEL 4
REMARK VINA RESULT:      -7.6      0.892      1.384
REMARK  Name = 
REMARK  4 active torsions:
REMARK  status: ('A' for Active; 'I' for Inactive)
REMARK    1  A    between atoms: C_1  and  C_2
REMARK    2  A    between atoms: C_2  and  C_3
REMARK    3  A    between atoms: C_3  and  C_4
REMARK    4  A    between atoms: N_12  and  C_13
REMARK                            x       y       z     vdW  Elec       q    Type
REMARK                         _______ _______ _______ _____ _____    ______ ____
ROOT
ATOM      1  C   UNL     1       5.715   3.496  12.508  0.00  0.00    +0.000 C 
ATOM      2  C   UNL     1       7.154   3.926  12.192  0.00  0.00    +0.000 C 
ATOM      3  C   UNL     1       7.591   5.059  13.099  0.00  0.00    +0.000 C 
ATOM      4  O   UNL     1       8.352   5.947  12.730  0.00  0.00    +0.000 OA
ATOM      5  C   UNL     1       7.129   5.014  14.493  0.00  0.00    +0.000 A 
ATOM      6  C   UNL     1       7.603   5.874  15.457  0.00  0.00    +0.000 A 
ATOM      7  N   UNL     1       7.235   5.807  16.758  0.00  0.00    +0.000 NA
ATOM      8  C   UNL     1       6.344   4.859  17.089  0.00  0.00    +0.000 A 
ATOM      9  N   UNL     1       6.002   4.747  18.437  0.00  0.00    +0.000 N 
ATOM     10  N   UNL     1       5.812   4.001  16.200  0.00  0.00    +0.000 NA
ATOM     11  C   UNL     1       6.209   4.084  14.913  0.00  0.00    +0.000 A 
ATOM     12  C   UNL     1       5.621   3.066  13.978  0.00  0.00    +0.000 C 
ATOM     13  H   UNL     1       6.446   5.504  18.943  0.00  0.00    +0.000 HD
ENDROOT
BRANCH   9  14
ATOM     14  C   UNL     1       4.756   4.361  18.962  0.00  0.00    +0.000 A 
ATOM     15  C   UNL     1       4.599   3.058  19.452  0.00  0.00    +0.000 A 
ATOM     16  C   UNL     1       3.378   2.639  19.992  0.00  0.00    +0.000 A 
ATOM     17  C   UNL     1       2.313   3.531  20.072  0.00  0.00    +0.000 A 
ATOM     18 CL   UNL     1       0.813   3.022  20.740  0.00  0.00    +0.000 Cl
ATOM     19  C   UNL     1       2.458   4.839  19.614  0.00  0.00    +0.000 A 
ATOM     20  C   UNL     1       3.674   5.247  19.060  0.00  0.00    +0.000 A 
ENDBRANCH   9  14
BRANCH   1  21
ATOM     21  C   UNL     1       5.262   2.378  11.549  0.00  0.00    +0.000 C 
BRANCH  21  23
ATOM     22  C   UNL     1       6.092   0.010  11.248  0.00  0.00    +0.000 C 
ATOM     23  C   UNL     1       6.416   1.485  11.080  0.00  0.00    +0.000 C 
ENDBRANCH  21  23
ENDBRANCH   1  21
TORSDOF 3
ENDMDL
MODEL 5
REMARK VINA RESULT:      -7.3      6.832      9.054
REMARK  Name = 
REMARK  4 active torsions:
REMARK  status: ('A' for Active; 'I' for Inactive)
REMARK    1  A    between atoms: C_1  and  C_2
REMARK    2  A    between atoms: C_2  and  C_3
REMARK    3  A    between atoms: C_3  and  C_4
REMARK    4  A    between atoms: N_12  and  C_13
REMARK                            x       y       z     vdW  Elec       q    Type
REMARK                         _______ _______ _______ _____ _____    ______ ____
ROOT
ATOM      1  C   UNL     1      -2.073  10.951  18.080  0.00  0.00    +0.000 C 
ATOM      2  C   UNL     1      -1.805  12.218  18.903  0.00  0.00    +0.000 C 
ATOM      3  C   UNL     1      -1.342  11.866  20.303  0.00  0.00    +0.000 C 
ATOM      4  O   UNL     1      -1.623  12.545  21.284  0.00  0.00    +0.000 OA
ATOM      5  C   UNL     1      -0.455  10.703  20.439  0.00  0.00    +0.000 A 
ATOM      6  C   UNL     1       0.181  10.392  21.619  0.00  0.00    +0.000 A 
ATOM      7  N   UNL     1       1.050   9.361  21.746  0.00  0.00    +0.000 NA
ATOM      8  C   UNL     1       1.263   8.609  20.655  0.00  0.00    +0.000 A 
ATOM      9  N   UNL     1       2.199   7.580  20.763  0.00  0.00    +0.000 N 
ATOM     10  N   UNL     1       0.658   8.830  19.475  0.00  0.00    +0.000 NA
ATOM     11  C   UNL     1      -0.192   9.873  19.375  0.00  0.00    +0.000 A 
ATOM     12  C   UNL     1      -0.796  10.102  18.019  0.00  0.00    +0.000 C 
ATOM     13  H   UNL     1       2.503   7.525  21.727  0.00  0.00    +0.000 HD
ENDROOT
BRANCH   9  14
ATOM     14  C   UNL     1       2.170   6.340  20.099  0.00  0.00    +0.000 A 
ATOM     15  C   UNL     1       1.489   5.268  20.692  0.00  0.00    +0.000 A 
ATOM     16  C   UNL     1       1.428   4.022  20.059  0.00  0.00    +0.000 A 
ATOM     17  C   UNL     1       2.024   3.847  18.813  0.00  0.00    +0.000 A 
ATOM     18 CL   UNL     1       1.946   2.319  18.029  0.00  0.00    +0.000 Cl
ATOM     19  C   UNL     1       2.683   4.909  18.196  0.00  0.00    +0.000 A 
ATOM     20  C   UNL     1       2.755   6.147  18.841  0.00  0.00    +0.000 A 
ENDBRANCH   9  14
BRANCH   1  21
ATOM     21  C   UNL     1      -2.591  11.317  16.676  0.00  0.00    +0.000 C 
BRANCH  21  23
ATOM     22  C   UNL     1      -3.645  10.237  14.649  0.00  0.00    +0.000 C 
ATOM     23  C   UNL     1      -2.546  10.142  15.694  0.00  0.00    +0.000 C 
ENDBRANCH  21  23
ENDBRANCH   1  21
TORSDOF 3
ENDMDL
MODEL 6
REMARK VINA RESULT:      -7.3      6.870      9.210
REMARK  Name = 
REMARK  4 active torsions:
REMARK  status: ('A' for Active; 'I' for Inactive)
REMARK    1  A    between atoms: C_1  and  C_2
REMARK    2  A    between atoms: C_2  and  C_3
REMARK    3  A    between atoms: C_3  and  C_4
REMARK    4  A    between atoms: N_12  and  C_13
REMARK                            x       y       z     vdW  Elec       q    Type
REMARK                         _______ _______ _______ _____ _____    ______ ____
ROOT
ATOM      1  C   UNL     1      -1.978  11.085  18.265  0.00  0.00    +0.000 C 
ATOM      2  C   UNL     1      -1.733  12.295  19.176  0.00  0.00    +0.000 C 
ATOM      3  C   UNL     1      -1.345  11.850  20.572  0.00  0.00    +0.000 C 
ATOM      4  O   UNL     1      -1.664  12.473  21.579  0.00  0.00    +0.000 OA
ATOM      5  C   UNL     1      -0.482  10.666  20.679  0.00  0.00    +0.000 A 
ATOM      6  C   UNL     1       0.090  10.273  21.867  0.00  0.00    +0.000 A 
ATOM      7  N   UNL     1       0.937   9.222  21.972  0.00  0.00    +0.000 NA
ATOM      8  C   UNL     1       1.193   8.534  20.848  0.00  0.00    +0.000 A 
ATOM      9  N   UNL     1       2.108   7.485  20.936  0.00  0.00    +0.000 N 
ATOM     10  N   UNL     1       0.651   8.838  19.656  0.00  0.00    +0.000 NA
ATOM     11  C   UNL     1      -0.179   9.899  19.580  0.00  0.00    +0.000 A 
ATOM     12  C   UNL     1      -0.712  10.220  18.213  0.00  0.00    +0.000 C 
ATOM     13  H   UNL     1       2.364   7.365  21.909  0.00  0.00    +0.000 HD
ENDROOT
BRANCH   9  14
ATOM     14  C   UNL     1       2.094   6.288  20.197  0.00  0.00    +0.000 A 
ATOM     15  C   UNL     1       2.857   6.206  19.024  0.00  0.00    +0.000 A 
ATOM     16  C   UNL     1       2.878   5.029  18.267  0.00  0.00    +0.000 A 
ATOM     17  C   UNL     1       2.157   3.917  18.692  0.00  0.00    +0.000 A 
ATOM     18 CL   UNL     1       2.185   2.468  17.767  0.00  0.00    +0.000 Cl
ATOM     19  C   UNL     1       1.413   3.972  19.869  0.00  0.00    +0.000 A 
ATOM     20  C   UNL     1       1.383   5.155  20.614  0.00  0.00    +0.000 A 
ENDBRANCH   9  14
BRANCH   1  21
ATOM     21  C   UNL     1      -2.421  11.546  16.862  0.00  0.00    +0.000 C 
BRANCH  21  23
ATOM     22  C   UNL     1      -3.087  10.119  14.885  0.00  0.00    +0.000 C 
ATOM     23  C   UNL     1      -3.501  10.649  16.248  0.00  0.00    +0.000 C 
ENDBRANCH  21  23
ENDBRANCH   1  21
TORSDOF 3
ENDMDL
MODEL 7
REMARK VINA RESULT:      -7.1      4.344      7.558
REMARK  Name = 
REMARK  4 active torsions:
REMARK  status: ('A' for Active; 'I' for Inactive)
REMARK    1  A    between atoms: C_1  and  C_2
REMARK    2  A    between atoms: C_2  and  C_3
REMARK    3  A    between atoms: C_3  and  C_4
REMARK    4  A    between atoms: N_12  and  C_13
REMARK                            x       y       z     vdW  Elec       q    Type
REMARK                         _______ _______ _______ _____ _____    ______ ____
ROOT
ATOM      1  C   UNL     1       1.947   8.144  18.336  0.00  0.00    +0.000 C 
ATOM      2  C   UNL     1       1.863   7.816  19.832  0.00  0.00    +0.000 C 
ATOM      3  C   UNL     1       2.132   6.346  20.080  0.00  0.00    +0.000 C 
ATOM      4  O   UNL     1       1.583   5.713  20.975  0.00  0.00    +0.000 OA
ATOM      5  C   UNL     1       3.159   5.706  19.247  0.00  0.00    +0.000 A 
ATOM      6  C   UNL     1       3.627   4.436  19.494  0.00  0.00    +0.000 A 
ATOM      7  N   UNL     1       4.616   3.855  18.775  0.00  0.00    +0.000 NA
ATOM      8  C   UNL     1       5.130   4.569  17.762  0.00  0.00    +0.000 A 
ATOM      9  N   UNL     1       6.188   4.000  17.052  0.00  0.00    +0.000 N 
ATOM     10  N   UNL     1       4.707   5.804  17.439  0.00  0.00    +0.000 NA
ATOM     11  C   UNL     1       3.730   6.362  18.182  0.00  0.00    +0.000 A 
ATOM     12  C   UNL     1       3.336   7.762  17.806  0.00  0.00    +0.000 C 
ATOM     13  H   UNL     1       6.329   3.057  17.391  0.00  0.00    +0.000 HD
ENDROOT
BRANCH   9  14
ATOM     14  C   UNL     1       6.473   4.166  15.685  0.00  0.00    +0.000 A 
ATOM     15  C   UNL     1       5.703   3.472  14.742  0.00  0.00    +0.000 A 
ATOM     16  C   UNL     1       5.948   3.619  13.372  0.00  0.00    +0.000 A 
ATOM     17  C   UNL     1       6.947   4.483  12.935  0.00  0.00    +0.000 A 
ATOM     18 CL   UNL     1       7.247   4.671  11.252  0.00  0.00    +0.000 Cl
ATOM     19  C   UNL     1       7.706   5.201  13.857  0.00  0.00    +0.000 A 
ATOM     20  C   UNL     1       7.468   5.039  15.224  0.00  0.00    +0.000 A 
ENDBRANCH   9  14
BRANCH   1  21
ATOM     21  C   UNL     1       1.623   9.630  18.088  0.00  0.00    +0.000 C 
BRANCH  21  23
ATOM     22  C   UNL     1      -0.213  10.849  19.325  0.00  0.00    +0.000 C 
ATOM     23  C   UNL     1       0.124   9.938  18.157  0.00  0.00    +0.000 C 
ENDBRANCH  21  23
ENDBRANCH   1  21
TORSDOF 3
ENDMDL
MODEL 8
REMARK VINA RESULT:      -7.0      5.615      8.237
REMARK  Name = 
REMARK  4 active torsions:
REMARK  status: ('A' for Active; 'I' for Inactive)
REMARK    1  A    between atoms: C_1  and  C_2
REMARK    2  A    between atoms: C_2  and  C_3
REMARK    3  A    between atoms: C_3  and  C_4
REMARK    4  A    between atoms: N_12  and  C_13
REMARK                            x       y       z     vdW  Elec       q    Type
REMARK                         _______ _______ _______ _____ _____    ______ ____
ROOT
ATOM      1  C   UNL     1       2.278   4.894  20.186  0.00  0.00    +0.000 C 
ATOM      2  C   UNL     1       3.732   4.770  19.712  0.00  0.00    +0.000 C 
ATOM      3  C   UNL     1       3.952   5.547  18.430  0.00  0.00    +0.000 C 
ATOM      4  O   UNL     1       4.732   5.181  17.557  0.00  0.00    +0.000 OA
ATOM      5  C   UNL     1       3.246   6.829  18.297  0.00  0.00    +0.000 A 
ATOM      6  C   UNL     1       3.501   7.713  17.274  0.00  0.00    +0.000 A 
ATOM      7  N   UNL     1       2.905   8.924  17.171  0.00  0.00    +0.000 NA
ATOM      8  C   UNL     1       2.007   9.240  18.117  0.00  0.00    +0.000 A 
ATOM      9  N   UNL     1       1.430  10.509  18.050  0.00  0.00    +0.000 N 
ATOM     10  N   UNL     1       1.681   8.420  19.131  0.00  0.00    +0.000 NA
ATOM     11  C   UNL     1       2.302   7.225  19.215  0.00  0.00    +0.000 A 
ATOM     12  C   UNL     1       1.935   6.375  20.398  0.00  0.00    +0.000 C 
ATOM     13  H   UNL     1       1.744  10.958  17.199  0.00  0.00    +0.000 HD
ENDROOT
BRANCH   9  14
ATOM     14  C   UNL     1       0.125  10.864  18.437  0.00  0.00    +0.000 A 
ATOM     15  C   UNL     1      -0.049  11.870  19.396  0.00  0.00    +0.000 A 
ATOM     16  C   UNL     1      -1.331  12.259  19.799  0.00  0.00    +0.000 A 
ATOM     17  C   UNL     1      -2.450  11.663  19.224  0.00  0.00    +0.000 A 
ATOM     18 CL   UNL     1      -4.027  12.142  19.713  0.00  0.00    +0.000 Cl
ATOM     19  C   UNL     1      -2.297  10.678  18.250  0.00  0.00    +0.000 A 
ATOM     20  C   UNL     1      -1.013  10.282  17.863  0.00  0.00    +0.000 A 
ENDBRANCH   9  14
BRANCH   1  21
ATOM     21  C   UNL     1       2.052   4.061  21.462  0.00  0.00    +0.000 C 
BRANCH  21  23
ATOM     22  C   UNL     1       0.767   2.678  19.782  0.00  0.00    +0.000 C 
ATOM     23  C   UNL     1       1.320   2.742  21.196  0.00  0.00    +0.000 C 
ENDBRANCH  21  23
ENDBRANCH   1  21
TORSDOF 3
ENDMDL
MODEL 9
REMARK VINA RESULT:      -6.9      4.403      7.674
REMARK  Name = 
REMARK  4 active torsions:
REMARK  status: ('A' for Active; 'I' for Inactive)
REMARK    1  A    between atoms: C_1  and  C_2
REMARK    2  A    between atoms: C_2  and  C_3
REMARK    3  A    between atoms: C_3  and  C_4
REMARK    4  A    between atoms: N_12  and  C_13
REMARK                            x       y       z     vdW  Elec       q    Type
REMARK                         _______ _______ _______ _____ _____    ______ ____
ROOT
ATOM      1  C   UNL     1       1.896   8.187  18.303  0.00  0.00    +0.000 C 
ATOM      2  C   UNL     1       1.851   7.883  19.806  0.00  0.00    +0.000 C 
ATOM      3  C   UNL     1       2.127   6.416  20.069  0.00  0.00    +0.000 C 
ATOM      4  O   UNL     1       1.602   5.797  20.988  0.00  0.00    +0.000 OA
ATOM      5  C   UNL     1       3.133   5.763  19.220  0.00  0.00    +0.000 A 
ATOM      6  C   UNL     1       3.607   4.497  19.474  0.00  0.00    +0.000 A 
ATOM      7  N   UNL     1       4.577   3.905  18.739  0.00  0.00    +0.000 NA
ATOM      8  C   UNL     1       5.064   4.604  17.702  0.00  0.00    +0.000 A 
ATOM      9  N   UNL     1       6.103   4.024  16.974  0.00  0.00    +0.000 N 
ATOM     10  N   UNL     1       4.633   5.833  17.371  0.00  0.00    +0.000 NA
ATOM     11  C   UNL     1       3.675   6.403  18.130  0.00  0.00    +0.000 A 
ATOM     12  C   UNL     1       3.271   7.797  17.743  0.00  0.00    +0.000 C 
ATOM     13  H   UNL     1       6.253   3.085  17.323  0.00  0.00    +0.000 HD
ENDROOT
BRANCH   9  14
ATOM     14  C   UNL     1       6.352   4.168  15.597  0.00  0.00    +0.000 A 
ATOM     15  C   UNL     1       7.404   4.995  15.179  0.00  0.00    +0.000 A 
ATOM     16  C   UNL     1       7.689   5.156  13.819  0.00  0.00    +0.000 A 
ATOM     17  C   UNL     1       6.942   4.469  12.867  0.00  0.00    +0.000 A 
ATOM     18 CL   UNL     1       7.294   4.659  11.195  0.00  0.00    +0.000 Cl
ATOM     19  C   UNL     1       5.909   3.622  13.264  0.00  0.00    +0.000 A 
ATOM     20  C   UNL     1       5.618   3.477  14.624  0.00  0.00    +0.000 A 
ENDBRANCH   9  14
BRANCH   1  21
ATOM     21  C   UNL     1       1.565   9.669  18.041  0.00  0.00    +0.000 C 
BRANCH  21  23
ATOM     22  C   UNL     1       0.990  11.843  19.194  0.00  0.00    +0.000 C 
ATOM     23  C   UNL     1       0.821  10.333  19.204  0.00  0.00    +0.000 C 
ENDBRANCH  21  23
ENDBRANCH   1  21
TORSDOF 3
ENDMDL
