MODEL 1
REMARK VINA RESULT:      -6.3      0.000      0.000
REMARK  Name = 
REMARK  1 active torsions:
REMARK  status: ('A' for Active; 'I' for Inactive)
REMARK    1  A    between atoms: C_1  and  N_2
REMARK                            x       y       z     vdW  Elec       q    Type
REMARK                         _______ _______ _______ _____ _____    ______ ____
ROOT
ATOM      1  C   UNL     1       4.020   5.829  17.511  0.00  0.00    +0.000 C 
ATOM      2  N   UNL     1       4.135   4.765  18.477  0.00  0.00    +0.000 N 
ATOM      3  C   UNL     1       5.235   3.990  18.751  0.00  0.00    +0.000 A 
ATOM      4  N   UNL     1       6.409   4.122  18.123  0.00  0.00    +0.000 N 
ATOM      5  N   UNL     1       4.979   3.117  19.693  0.00  0.00    +0.000 NA
ATOM      6  C   UNL     1       3.672   3.323  20.050  0.00  0.00    +0.000 A 
ATOM      7  C   UNL     1       2.896   2.661  21.011  0.00  0.00    +0.000 A 
ATOM      8  C   UNL     1       1.574   3.072  21.178  0.00  0.00    +0.000 A 
ATOM      9  F   UNL     1       0.811   2.455  22.091  0.00  0.00    +0.000 F 
ATOM     10  C   UNL     1       1.021   4.105  20.425  0.00  0.00    +0.000 A 
ATOM     11  C   UNL     1       1.783   4.775  19.462  0.00  0.00    +0.000 A 
ATOM     12  C   UNL     1       3.110   4.355  19.303  0.00  0.00    +0.000 A 
ATOM     13  H   UNL     1       6.627   4.792  17.400  0.00  0.00    +0.000 HD
ATOM     14  H   UNL     1       7.166   3.505  18.396  0.00  0.00    +0.000 HD
ENDROOT
TORSDOF 0
ENDMDL
MODEL 2
REMARK VINA RESULT:      -6.0      1.613      1.865
REMARK  Name = 
REMARK  1 active torsions:
REMARK  status: ('A' for Active; 'I' for Inactive)
REMARK    1  A    between atoms: C_1  and  N_2
REMARK                            x       y       z     vdW  Elec       q    Type
REMARK                         _______ _______ _______ _____ _____    ______ ____
ROOT
ATOM      1  C   UNL     1       5.314   4.032  15.811  0.00  0.00    +0.000 C 
ATOM      2  N   UNL     1       5.078   4.127  17.230  0.00  0.00    +0.000 N 
ATOM      3  C   UNL     1       6.005   4.296  18.229  0.00  0.00    +0.000 A 
ATOM      4  N   UNL     1       7.320   4.397  18.009  0.00  0.00    +0.000 N 
ATOM      5  N   UNL     1       5.433   4.341  19.406  0.00  0.00    +0.000 NA
ATOM      6  C   UNL     1       4.089   4.198  19.175  0.00  0.00    +0.000 A 
ATOM      7  C   UNL     1       3.025   4.176  20.088  0.00  0.00    +0.000 A 
ATOM      8  C   UNL     1       1.736   4.015  19.583  0.00  0.00    +0.000 A 
ATOM      9  F   UNL     1       0.701   3.990  20.435  0.00  0.00    +0.000 F 
ATOM     10  C   UNL     1       1.489   3.878  18.219  0.00  0.00    +0.000 A 
ATOM     11  C   UNL     1       2.539   3.898  17.296  0.00  0.00    +0.000 A 
ATOM     12  C   UNL     1       3.831   4.061  17.814  0.00  0.00    +0.000 A 
ATOM     13  H   UNL     1       7.779   4.370  17.111  0.00  0.00    +0.000 HD
ATOM     14  H   UNL     1       7.928   4.522  18.812  0.00  0.00    +0.000 HD
ENDROOT
TORSDOF 0
ENDMDL
MODEL 3
REMARK VINA RESULT:      -5.8      1.657      1.722
REMARK  Name = 
REMARK  1 active torsions:
REMARK  status: ('A' for Active; 'I' for Inactive)
REMARK    1  A    between atoms: C_1  and  N_2
REMARK                            x       y       z     vdW  Elec       q    Type
REMARK                         _______ _______ _______ _____ _____    ______ ____
ROOT
ATOM      1  C   UNL     1       5.081   6.538  17.296  0.00  0.00    +0.000 C 
ATOM      2  N   UNL     1       4.900   5.342  18.079  0.00  0.00    +0.000 N 
ATOM      3  C   UNL     1       5.838   4.674  18.827  0.00  0.00    +0.000 A 
ATOM      4  N   UNL     1       7.113   5.061  18.933  0.00  0.00    +0.000 N 
ATOM      5  N   UNL     1       5.320   3.621  19.410  0.00  0.00    +0.000 NA
ATOM      6  C   UNL     1       4.002   3.595  19.034  0.00  0.00    +0.000 A 
ATOM      7  C   UNL     1       2.995   2.681  19.375  0.00  0.00    +0.000 A 
ATOM      8  C   UNL     1       1.721   2.888  18.850  0.00  0.00    +0.000 A 
ATOM      9  F   UNL     1       0.741   2.028  19.161  0.00  0.00    +0.000 F 
ATOM     10  C   UNL     1       1.433   3.962  18.011  0.00  0.00    +0.000 A 
ATOM     11  C   UNL     1       2.427   4.883  17.662  0.00  0.00    +0.000 A 
ATOM     12  C   UNL     1       3.703   4.667  18.196  0.00  0.00    +0.000 A 
ATOM     13  H   UNL     1       7.530   5.870  18.497  0.00  0.00    +0.000 HD
ATOM     14  H   UNL     1       7.733   4.503  19.511  0.00  0.00    +0.000 HD
ENDROOT
TORSDOF 0
ENDMDL
MODEL 4
REMARK VINA RESULT:      -5.7      2.812      3.199
REMARK  Name = 
REMARK  1 active torsions:
REMARK  status: ('A' for Active; 'I' for Inactive)
REMARK    1  A    between atoms: C_1  and  N_2
REMARK                            x       y       z     vdW  Elec       q    Type
REMARK                         _______ _______ _______ _____ _____    ______ ____
ROOT
ATOM      1  C   UNL     1       6.435   7.121  17.229  0.00  0.00    +0.000 C 
ATOM      2  N   UNL     1       5.800   5.855  16.962  0.00  0.00    +0.000 N 
ATOM      3  C   UNL     1       6.325   4.771  16.303  0.00  0.00    +0.000 A 
ATOM      4  N   UNL     1       7.559   4.743  15.789  0.00  0.00    +0.000 N 
ATOM      5  N   UNL     1       5.463   3.785  16.245  0.00  0.00    +0.000 NA
ATOM      6  C   UNL     1       4.337   4.235  16.886  0.00  0.00    +0.000 A 
ATOM      7  C   UNL     1       3.118   3.580  17.110  0.00  0.00    +0.000 A 
ATOM      8  C   UNL     1       2.123   4.272  17.798  0.00  0.00    +0.000 A 
ATOM      9  F   UNL     1       0.948   3.669  18.025  0.00  0.00    +0.000 F 
ATOM     10  C   UNL     1       2.312   5.574  18.257  0.00  0.00    +0.000 A 
ATOM     11  C   UNL     1       3.522   6.240  18.042  0.00  0.00    +0.000 A 
ATOM     12  C   UNL     1       4.516   5.535  17.351  0.00  0.00    +0.000 A 
ATOM     13  H   UNL     1       8.239   5.488  15.828  0.00  0.00    +0.000 HD
ATOM     14  H   UNL     1       7.860   3.895  15.321  0.00  0.00    +0.000 HD
ENDROOT
TORSDOF 0
ENDMDL
MODEL 5
REMARK VINA RESULT:      -5.7      1.143      1.143
REMARK  Name = 
REMARK  1 active torsions:
REMARK  status: ('A' for Active; 'I' for Inactive)
REMARK    1  A    between atoms: C_1  and  N_2
REMARK                            x       y       z     vdW  Elec       q    Type
REMARK                         _______ _______ _______ _____ _____    ______ ____
ROOT
ATOM      1  C   UNL     1       4.227   6.214  17.435  0.00  0.00    +0.000 C 
ATOM      2  N   UNL     1       3.952   4.875  17.892  0.00  0.00    +0.000 N 
ATOM      3  C   UNL     1       4.480   3.698  17.421  0.00  0.00    +0.000 A 
ATOM      4  N   UNL     1       5.363   3.631  16.419  0.00  0.00    +0.000 N 
ATOM      5  N   UNL     1       4.005   2.667  18.075  0.00  0.00    +0.000 NA
ATOM      6  C   UNL     1       3.138   3.181  19.005  0.00  0.00    +0.000 A 
ATOM      7  C   UNL     1       2.361   2.516  19.963  0.00  0.00    +0.000 A 
ATOM      8  C   UNL     1       1.554   3.286  20.798  0.00  0.00    +0.000 A 
ATOM      9  F   UNL     1       0.801   2.674  21.722  0.00  0.00    +0.000 F 
ATOM     10  C   UNL     1       1.504   4.675  20.701  0.00  0.00    +0.000 A 
ATOM     11  C   UNL     1       2.273   5.354  19.751  0.00  0.00    +0.000 A 
ATOM     12  C   UNL     1       3.082   4.570  18.917  0.00  0.00    +0.000 A 
ATOM     13  H   UNL     1       5.745   4.413  15.907  0.00  0.00    +0.000 HD
ATOM     14  H   UNL     1       5.699   2.715  16.141  0.00  0.00    +0.000 HD
ENDROOT
TORSDOF 0
ENDMDL
MODEL 6
REMARK VINA RESULT:      -5.7      2.171      2.920
REMARK  Name = 
REMARK  1 active torsions:
REMARK  status: ('A' for Active; 'I' for Inactive)
REMARK    1  A    between atoms: C_1  and  N_2
REMARK                            x       y       z     vdW  Elec       q    Type
REMARK                         _______ _______ _______ _____ _____    ______ ____
ROOT
ATOM      1  C   UNL     1       6.989   5.698  19.224  0.00  0.00    +0.000 C 
ATOM      2  N   UNL     1       6.154   5.011  18.271  0.00  0.00    +0.000 N 
ATOM      3  C   UNL     1       6.520   4.476  17.060  0.00  0.00    +0.000 A 
ATOM      4  N   UNL     1       7.765   4.525  16.575  0.00  0.00    +0.000 N 
ATOM      5  N   UNL     1       5.497   3.923  16.456  0.00  0.00    +0.000 NA
ATOM      6  C   UNL     1       4.427   4.100  17.294  0.00  0.00    +0.000 A 
ATOM      7  C   UNL     1       3.093   3.701  17.131  0.00  0.00    +0.000 A 
ATOM      8  C   UNL     1       2.192   4.010  18.148  0.00  0.00    +0.000 A 
ATOM      9  F   UNL     1       0.910   3.639  18.018  0.00  0.00    +0.000 F 
ATOM     10  C   UNL     1       2.581   4.693  19.298  0.00  0.00    +0.000 A 
ATOM     11  C   UNL     1       3.908   5.099  19.475  0.00  0.00    +0.000 A 
ATOM     12  C   UNL     1       4.806   4.782  18.447  0.00  0.00    +0.000 A 
ATOM     13  H   UNL     1       8.566   4.940  17.028  0.00  0.00    +0.000 HD
ATOM     14  H   UNL     1       7.940   4.099  15.671  0.00  0.00    +0.000 HD
ENDROOT
TORSDOF 0
ENDMDL
MODEL 7
REMARK VINA RESULT:      -5.6      2.521      3.743
REMARK  Name = 
REMARK  1 active torsions:
REMARK  status: ('A' for Active; 'I' for Inactive)
REMARK    1  A    between atoms: C_1  and  N_2
REMARK                            x       y       z     vdW  Elec       q    Type
REMARK                         _______ _______ _______ _____ _____    ______ ____
ROOT
ATOM      1  C   UNL     1       2.615   2.836  21.381  0.00  0.00    +0.000 C 
ATOM      2  N   UNL     1       3.356   3.434  20.299  0.00  0.00    +0.000 N 
ATOM      3  C   UNL     1       4.412   2.899  19.603  0.00  0.00    +0.000 A 
ATOM      4  N   UNL     1       4.925   1.690  19.851  0.00  0.00    +0.000 N 
ATOM      5  N   UNL     1       4.842   3.725  18.681  0.00  0.00    +0.000 NA
ATOM      6  C   UNL     1       4.045   4.836  18.772  0.00  0.00    +0.000 A 
ATOM      7  C   UNL     1       4.074   6.018  18.020  0.00  0.00    +0.000 A 
ATOM      8  C   UNL     1       3.138   7.006  18.321  0.00  0.00    +0.000 A 
ATOM      9  F   UNL     1       3.145   8.146  17.615  0.00  0.00    +0.000 F 
ATOM     10  C   UNL     1       2.195   6.847  19.333  0.00  0.00    +0.000 A 
ATOM     11  C   UNL     1       2.153   5.673  20.093  0.00  0.00    +0.000 A 
ATOM     12  C   UNL     1       3.097   4.686  19.782  0.00  0.00    +0.000 A 
ATOM     13  H   UNL     1       4.605   1.037  20.552  0.00  0.00    +0.000 HD
ATOM     14  H   UNL     1       5.705   1.378  19.282  0.00  0.00    +0.000 HD
ENDROOT
TORSDOF 0
ENDMDL
MODEL 8
REMARK VINA RESULT:      -5.6      1.617      2.183
REMARK  Name = 
REMARK  1 active torsions:
REMARK  status: ('A' for Active; 'I' for Inactive)
REMARK    1  A    between atoms: C_1  and  N_2
REMARK                            x       y       z     vdW  Elec       q    Type
REMARK                         _______ _______ _______ _____ _____    ______ ____
ROOT
ATOM      1  C   UNL     1       6.202   6.856  16.996  0.00  0.00    +0.000 C 
ATOM      2  N   UNL     1       5.709   5.808  17.854  0.00  0.00    +0.000 N 
ATOM      3  C   UNL     1       6.371   4.679  18.271  0.00  0.00    +0.000 A 
ATOM      4  N   UNL     1       7.624   4.381  17.915  0.00  0.00    +0.000 N 
ATOM      5  N   UNL     1       5.614   3.945  19.049  0.00  0.00    +0.000 NA
ATOM      6  C   UNL     1       4.420   4.611  19.148  0.00  0.00    +0.000 A 
ATOM      7  C   UNL     1       3.263   4.265  19.859  0.00  0.00    +0.000 A 
ATOM      8  C   UNL     1       2.172   5.130  19.790  0.00  0.00    +0.000 A 
ATOM      9  F   UNL     1       1.053   4.822  20.460  0.00  0.00    +0.000 F 
ATOM     10  C   UNL     1       2.208   6.306  19.045  0.00  0.00    +0.000 A 
ATOM     11  C   UNL     1       3.356   6.666  18.331  0.00  0.00    +0.000 A 
ATOM     12  C   UNL     1       4.446   5.790  18.407  0.00  0.00    +0.000 A 
ATOM     13  H   UNL     1       8.224   4.936  17.322  0.00  0.00    +0.000 HD
ATOM     14  H   UNL     1       8.030   3.524  18.275  0.00  0.00    +0.000 HD
ENDROOT
TORSDOF 0
ENDMDL
MODEL 9
REMARK VINA RESULT:      -5.6      2.192      2.968
REMARK  Name = 
REMARK  1 active torsions:
REMARK  status: ('A' for Active; 'I' for Inactive)
REMARK    1  A    between atoms: C_1  and  N_2
REMARK                            x       y       z     vdW  Elec       q    Type
REMARK                         _______ _______ _______ _____ _____    ______ ____
ROOT
ATOM      1  C   UNL     1       5.678   3.817  15.713  0.00  0.00    +0.000 C 
ATOM      2  N   UNL     1       4.838   4.650  16.536  0.00  0.00    +0.000 N 
ATOM      3  C   UNL     1       4.918   6.009  16.720  0.00  0.00    +0.000 A 
ATOM      4  N   UNL     1       5.837   6.782  16.133  0.00  0.00    +0.000 N 
ATOM      5  N   UNL     1       3.988   6.434  17.539  0.00  0.00    +0.000 NA
ATOM      6  C   UNL     1       3.274   5.323  17.904  0.00  0.00    +0.000 A 
ATOM      7  C   UNL     1       2.171   5.214  18.763  0.00  0.00    +0.000 A 
ATOM      8  C   UNL     1       1.625   3.948  18.966  0.00  0.00    +0.000 A 
ATOM      9  F   UNL     1       0.570   3.818  19.783  0.00  0.00    +0.000 F 
ATOM     10  C   UNL     1       2.142   2.813  18.347  0.00  0.00    +0.000 A 
ATOM     11  C   UNL     1       3.242   2.904  17.488  0.00  0.00    +0.000 A 
ATOM     12  C   UNL     1       3.783   4.181  17.290  0.00  0.00    +0.000 A 
ATOM     13  H   UNL     1       6.557   6.475  15.495  0.00  0.00    +0.000 HD
ATOM     14  H   UNL     1       5.816   7.778  16.328  0.00  0.00    +0.000 HD
ENDROOT
TORSDOF 0
ENDMDL
