MODEL 1
REMARK VINA RESULT:      -7.1      0.000      0.000
REMARK  Name = 
REMARK  8 active torsions:
REMARK  status: ('A' for Active; 'I' for Inactive)
REMARK    1  A    between atoms: C_1  and  C_2
REMARK    2  A    between atoms: C_2  and  C_3
REMARK    3  A    between atoms: C_3  and  C_4
REMARK    4  A    between atoms: C_4  and  C_5
REMARK    5  A    between atoms: C_5  and  C_6
REMARK    6  A    between atoms: C_6  and  C_7
REMARK    7  A    between atoms: C_8  and  O_9
REMARK    8  A    between atoms: C_17  and  O_18
REMARK                            x       y       z     vdW  Elec       q    Type
REMARK                         _______ _______ _______ _____ _____    ______ ____
ROOT
ATOM      1  C   UNL     1       4.720   5.260  17.964  0.00  0.00    +0.000 A 
ATOM      2  C   UNL     1       5.467   4.234  18.524  0.00  0.00    +0.000 A 
ATOM      3  N   UNL     1       4.992   3.353  19.424  0.00  0.00    +0.000 NA
ATOM      4  C   UNL     1       3.721   3.466  19.830  0.00  0.00    +0.000 A 
ATOM      5  C   UNL     1       3.269   2.606  20.821  0.00  0.00    +0.000 A 
ATOM      6  C   UNL     1       1.972   2.676  21.331  0.00  0.00    +0.000 A 
ATOM      7  C   UNL     1       1.088   3.615  20.825  0.00  0.00    +0.000 A 
ATOM      8  C   UNL     1       1.506   4.475  19.810  0.00  0.00    +0.000 A 
ATOM      9  C   UNL     1       2.834   4.426  19.310  0.00  0.00    +0.000 A 
ATOM     10  C   UNL     1       3.366   5.296  18.331  0.00  0.00    +0.000 A 
ENDROOT
BRANCH   2  11
ATOM     11  O   UNL     1       6.783   4.026  18.235  0.00  0.00    +0.000 OA
ATOM     12  H   UNL     1       6.861   3.787  17.303  0.00  0.00    +0.000 HD
ENDBRANCH   2  11
BRANCH  10  13
ATOM     13  O   UNL     1       2.588   6.240  17.705  0.00  0.00    +0.000 OA
ATOM     14  H   UNL     1       2.113   5.840  16.964  0.00  0.00    +0.000 HD
ENDBRANCH  10  13
BRANCH   1  15
ATOM     15  C   UNL     1       5.306   6.355  17.101  0.00  0.00    +0.000 C 
BRANCH  15  16
ATOM     16  C   UNL     1       5.229   5.990  15.610  0.00  0.00    +0.000 C 
BRANCH  16  17
ATOM     17  C   UNL     1       6.482   5.269  15.121  0.00  0.00    +0.000 C 
BRANCH  17  18
ATOM     18  C   UNL     1       6.113   3.890  14.569  0.00  0.00    +0.000 C 
BRANCH  18  20
ATOM     19  C   UNL     1       5.088   3.456  12.315  0.00  0.00    +0.000 C 
ATOM     20  C   UNL     1       6.364   3.800  13.067  0.00  0.00    +0.000 C 
ENDBRANCH  18  20
ENDBRANCH  17  18
ENDBRANCH  16  17
ENDBRANCH  15  16
ENDBRANCH   1  15
TORSDOF 7
ENDMDL
MODEL 2
REMARK VINA RESULT:      -6.9      1.943      3.458
REMARK  Name = 
REMARK  8 active torsions:
REMARK  status: ('A' for Active; 'I' for Inactive)
REMARK    1  A    between atoms: C_1  and  C_2
REMARK    2  A    between atoms: C_2  and  C_3
REMARK    3  A    between atoms: C_3  and  C_4
REMARK    4  A    between atoms: C_4  and  C_5
REMARK    5  A    between atoms: C_5  and  C_6
REMARK    6  A    between atoms: C_6  and  C_7
REMARK    7  A    between atoms: C_8  and  O_9
REMARK    8  A    between atoms: C_17  and  O_18
REMARK                            x       y       z     vdW  Elec       q    Type
REMARK                         _______ _______ _______ _____ _____    ______ ____
ROOT
ATOM      1  C   UNL     1       4.342   4.718  17.117  0.00  0.00    +0.000 A 
ATOM      2  C   UNL     1       3.826   5.895  17.637  0.00  0.00    +0.000 A 
ATOM      3  N   UNL     1       2.964   5.955  18.669  0.00  0.00    +0.000 NA
ATOM      4  C   UNL     1       2.554   4.813  19.236  0.00  0.00    +0.000 A 
ATOM      5  C   UNL     1       1.601   4.884  20.242  0.00  0.00    +0.000 A 
ATOM      6  C   UNL     1       1.089   3.743  20.862  0.00  0.00    +0.000 A 
ATOM      7  C   UNL     1       1.556   2.493  20.488  0.00  0.00    +0.000 A 
ATOM      8  C   UNL     1       2.533   2.393  19.498  0.00  0.00    +0.000 A 
ATOM      9  C   UNL     1       3.034   3.550  18.845  0.00  0.00    +0.000 A 
ATOM     10  C   UNL     1       3.975   3.543  17.789  0.00  0.00    +0.000 A 
ENDROOT
BRANCH   2  11
ATOM     11  O   UNL     1       4.124   7.127  17.135  0.00  0.00    +0.000 OA
ATOM     12  H   UNL     1       3.393   7.727  17.333  0.00  0.00    +0.000 HD
ENDBRANCH   2  11
BRANCH  10  13
ATOM     13  O   UNL     1       4.560   2.379  17.352  0.00  0.00    +0.000 OA
ATOM     14  H   UNL     1       5.108   2.555  16.574  0.00  0.00    +0.000 HD
ENDBRANCH  10  13
BRANCH   1  15
ATOM     15  C   UNL     1       5.158   4.646  15.845  0.00  0.00    +0.000 C 
BRANCH  15  16
ATOM     16  C   UNL     1       6.536   5.302  16.029  0.00  0.00    +0.000 C 
BRANCH  16  17
ATOM     17  C   UNL     1       7.237   4.841  17.303  0.00  0.00    +0.000 C 
BRANCH  17  18
ATOM     18  C   UNL     1       7.582   6.048  18.178  0.00  0.00    +0.000 C 
BRANCH  18  20
ATOM     19  C   UNL     1       8.239   8.474  18.123  0.00  0.00    +0.000 C 
ATOM     20  C   UNL     1       7.522   7.352  17.388  0.00  0.00    +0.000 C 
ENDBRANCH  18  20
ENDBRANCH  17  18
ENDBRANCH  16  17
ENDBRANCH  15  16
ENDBRANCH   1  15
TORSDOF 7
ENDMDL
MODEL 3
REMARK VINA RESULT:      -6.9      2.378      5.667
REMARK  Name = 
REMARK  8 active torsions:
REMARK  status: ('A' for Active; 'I' for Inactive)
REMARK    1  A    between atoms: C_1  and  C_2
REMARK    2  A    between atoms: C_2  and  C_3
REMARK    3  A    between atoms: C_3  and  C_4
REMARK    4  A    between atoms: C_4  and  C_5
REMARK    5  A    between atoms: C_5  and  C_6
REMARK    6  A    between atoms: C_6  and  C_7
REMARK    7  A    between atoms: C_8  and  O_9
REMARK    8  A    between atoms: C_17  and  O_18
REMARK                            x       y       z     vdW  Elec       q    Type
REMARK                         _______ _______ _______ _____ _____    ______ ____
ROOT
ATOM      1  C   UNL     1       4.336   4.311  17.786  0.00  0.00    +0.000 A 
ATOM      2  C   UNL     1       5.092   3.792  18.827  0.00  0.00    +0.000 A 
ATOM      3  N   UNL     1       6.205   4.368  19.318  0.00  0.00    +0.000 NA
ATOM      4  C   UNL     1       6.638   5.510  18.768  0.00  0.00    +0.000 A 
ATOM      5  C   UNL     1       7.833   6.047  19.225  0.00  0.00    +0.000 A 
ATOM      6  C   UNL     1       8.378   7.213  18.685  0.00  0.00    +0.000 A 
ATOM      7  C   UNL     1       7.704   7.879  17.675  0.00  0.00    +0.000 A 
ATOM      8  C   UNL     1       6.488   7.377  17.214  0.00  0.00    +0.000 A 
ATOM      9  C   UNL     1       5.945   6.175  17.741  0.00  0.00    +0.000 A 
ATOM     10  C   UNL     1       4.754   5.557  17.294  0.00  0.00    +0.000 A 
ENDROOT
BRANCH   2  11
ATOM     11  O   UNL     1       4.793   2.618  19.452  0.00  0.00    +0.000 OA
ATOM     12  H   UNL     1       5.547   2.021  19.366  0.00  0.00    +0.000 HD
ENDBRANCH   2  11
BRANCH  10  13
ATOM     13  O   UNL     1       3.958   6.135  16.335  0.00  0.00    +0.000 OA
ATOM     14  H   UNL     1       3.340   5.481  15.978  0.00  0.00    +0.000 HD
ENDBRANCH  10  13
BRANCH   1  15
ATOM     15  C   UNL     1       3.200   3.570  17.118  0.00  0.00    +0.000 C 
BRANCH  15  16
ATOM     16  C   UNL     1       1.856   3.883  17.796  0.00  0.00    +0.000 C 
BRANCH  16  17
ATOM     17  C   UNL     1       1.280   2.677  18.532  0.00  0.00    +0.000 C 
BRANCH  17  18
ATOM     18  C   UNL     1       0.595   3.129  19.825  0.00  0.00    +0.000 C 
BRANCH  18  20
ATOM     19  C   UNL     1       2.220   3.293  21.735  0.00  0.00    +0.000 C 
ATOM     20  C   UNL     1       1.491   4.057  20.641  0.00  0.00    +0.000 C 
ENDBRANCH  18  20
ENDBRANCH  17  18
ENDBRANCH  16  17
ENDBRANCH  15  16
ENDBRANCH   1  15
TORSDOF 7
ENDMDL
MODEL 4
REMARK VINA RESULT:      -6.9      2.030      3.376
REMARK  Name = 
REMARK  8 active torsions:
REMARK  status: ('A' for Active; 'I' for Inactive)
REMARK    1  A    between atoms: C_1  and  C_2
REMARK    2  A    between atoms: C_2  and  C_3
REMARK    3  A    between atoms: C_3  and  C_4
REMARK    4  A    between atoms: C_4  and  C_5
REMARK    5  A    between atoms: C_5  and  C_6
REMARK    6  A    between atoms: C_6  and  C_7
REMARK    7  A    between atoms: C_8  and  O_9
REMARK    8  A    between atoms: C_17  and  O_18
REMARK                            x       y       z     vdW  Elec       q    Type
REMARK                         _______ _______ _______ _____ _____    ______ ____
ROOT
ATOM      1  C   UNL     1       4.325   5.146  17.035  0.00  0.00    +0.000 A 
ATOM      2  C   UNL     1       4.667   3.802  17.046  0.00  0.00    +0.000 A 
ATOM      3  N   UNL     1       4.109   2.883  17.856  0.00  0.00    +0.000 NA
ATOM      4  C   UNL     1       3.169   3.275  18.726  0.00  0.00    +0.000 A 
ATOM      5  C   UNL     1       2.664   2.335  19.614  0.00  0.00    +0.000 A 
ATOM      6  C   UNL     1       1.711   2.663  20.579  0.00  0.00    +0.000 A 
ATOM      7  C   UNL     1       1.226   3.959  20.650  0.00  0.00    +0.000 A 
ATOM      8  C   UNL     1       1.697   4.918  19.753  0.00  0.00    +0.000 A 
ATOM      9  C   UNL     1       2.688   4.595  18.790  0.00  0.00    +0.000 A 
ATOM     10  C   UNL     1       3.270   5.512  17.885  0.00  0.00    +0.000 A 
ENDROOT
BRANCH   2  11
ATOM     11  O   UNL     1       5.634   3.272  16.244  0.00  0.00    +0.000 OA
ATOM     12  H   UNL     1       5.343   3.334  15.326  0.00  0.00    +0.000 HD
ENDBRANCH   2  11
BRANCH  10  13
ATOM     13  O   UNL     1       2.848   6.818  17.809  0.00  0.00    +0.000 OA
ATOM     14  H   UNL     1       3.571   7.383  17.503  0.00  0.00    +0.000 HD
ENDBRANCH  10  13
BRANCH   1  15
ATOM     15  C   UNL     1       5.082   6.202  16.260  0.00  0.00    +0.000 C 
BRANCH  15  16
ATOM     16  C   UNL     1       5.930   7.078  17.196  0.00  0.00    +0.000 C 
BRANCH  16  17
ATOM     17  C   UNL     1       7.189   6.366  17.680  0.00  0.00    +0.000 C 
BRANCH  17  18
ATOM     18  C   UNL     1       8.128   7.365  18.362  0.00  0.00    +0.000 C 
BRANCH  18  20
ATOM     19  C   UNL     1       8.853   9.766  18.525  0.00  0.00    +0.000 C 
ATOM     20  C   UNL     1       7.917   8.782  17.839  0.00  0.00    +0.000 C 
ENDBRANCH  18  20
ENDBRANCH  17  18
ENDBRANCH  16  17
ENDBRANCH  15  16
ENDBRANCH   1  15
TORSDOF 7
ENDMDL
MODEL 5
REMARK VINA RESULT:      -6.8      1.241      2.336
REMARK  Name = 
REMARK  8 active torsions:
REMARK  status: ('A' for Active; 'I' for Inactive)
REMARK    1  A    between atoms: C_1  and  C_2
REMARK    2  A    between atoms: C_2  and  C_3
REMARK    3  A    between atoms: C_3  and  C_4
REMARK    4  A    between atoms: C_4  and  C_5
REMARK    5  A    between atoms: C_5  and  C_6
REMARK    6  A    between atoms: C_6  and  C_7
REMARK    7  A    between atoms: C_8  and  O_9
REMARK    8  A    between atoms: C_17  and  O_18
REMARK                            x       y       z     vdW  Elec       q    Type
REMARK                         _______ _______ _______ _____ _____    ______ ____
ROOT
ATOM      1  C   UNL     1       4.600   5.781  18.196  0.00  0.00    +0.000 A 
ATOM      2  C   UNL     1       3.440   6.525  18.345  0.00  0.00    +0.000 A 
ATOM      3  N   UNL     1       2.380   6.140  19.080  0.00  0.00    +0.000 NA
ATOM      4  C   UNL     1       2.423   4.955  19.705  0.00  0.00    +0.000 A 
ATOM      5  C   UNL     1       1.292   4.532  20.388  0.00  0.00    +0.000 A 
ATOM      6  C   UNL     1       1.235   3.297  21.035  0.00  0.00    +0.000 A 
ATOM      7  C   UNL     1       2.343   2.466  21.023  0.00  0.00    +0.000 A 
ATOM      8  C   UNL     1       3.502   2.877  20.367  0.00  0.00    +0.000 A 
ATOM      9  C   UNL     1       3.555   4.120  19.682  0.00  0.00    +0.000 A 
ATOM     10  C   UNL     1       4.660   4.592  18.938  0.00  0.00    +0.000 A 
ENDROOT
BRANCH   2  11
ATOM     11  O   UNL     1       3.241   7.728  17.735  0.00  0.00    +0.000 OA
ATOM     12  H   UNL     1       3.460   7.640  16.799  0.00  0.00    +0.000 HD
ENDBRANCH   2  11
BRANCH  10  13
ATOM     13  O   UNL     1       5.843   3.895  18.884  0.00  0.00    +0.000 OA
ATOM     14  H   UNL     1       6.591   4.503  18.973  0.00  0.00    +0.000 HD
ENDBRANCH  10  13
BRANCH   1  15
ATOM     15  C   UNL     1       5.705   6.129  17.224  0.00  0.00    +0.000 C 
BRANCH  15  16
ATOM     16  C   UNL     1       5.514   5.407  15.880  0.00  0.00    +0.000 C 
BRANCH  16  17
ATOM     17  C   UNL     1       6.739   4.592  15.476  0.00  0.00    +0.000 C 
BRANCH  17  18
ATOM     18  C   UNL     1       6.806   4.465  13.952  0.00  0.00    +0.000 C 
BRANCH  18  20
ATOM     19  C   UNL     1       5.784   3.150  12.069  0.00  0.00    +0.000 C 
ATOM     20  C   UNL     1       5.520   3.874  13.380  0.00  0.00    +0.000 C 
ENDBRANCH  18  20
ENDBRANCH  17  18
ENDBRANCH  16  17
ENDBRANCH  15  16
ENDBRANCH   1  15
TORSDOF 7
ENDMDL
MODEL 6
REMARK VINA RESULT:      -6.8      1.231      1.439
REMARK  Name = 
REMARK  8 active torsions:
REMARK  status: ('A' for Active; 'I' for Inactive)
REMARK    1  A    between atoms: C_1  and  C_2
REMARK    2  A    between atoms: C_2  and  C_3
REMARK    3  A    between atoms: C_3  and  C_4
REMARK    4  A    between atoms: C_4  and  C_5
REMARK    5  A    between atoms: C_5  and  C_6
REMARK    6  A    between atoms: C_6  and  C_7
REMARK    7  A    between atoms: C_8  and  O_9
REMARK    8  A    between atoms: C_17  and  O_18
REMARK                            x       y       z     vdW  Elec       q    Type
REMARK                         _______ _______ _______ _____ _____    ______ ____
ROOT
ATOM      1  C   UNL     1       4.448   4.122  17.474  0.00  0.00    +0.000 A 
ATOM      2  C   UNL     1       5.281   3.878  18.556  0.00  0.00    +0.000 A 
ATOM      3  N   UNL     1       4.862   3.411  19.747  0.00  0.00    +0.000 NA
ATOM      4  C   UNL     1       3.555   3.174  19.924  0.00  0.00    +0.000 A 
ATOM      5  C   UNL     1       3.125   2.775  21.181  0.00  0.00    +0.000 A 
ATOM      6  C   UNL     1       1.778   2.542  21.466  0.00  0.00    +0.000 A 
ATOM      7  C   UNL     1       0.832   2.687  20.465  0.00  0.00    +0.000 A 
ATOM      8  C   UNL     1       1.239   3.061  19.185  0.00  0.00    +0.000 A 
ATOM      9  C   UNL     1       2.604   3.327  18.899  0.00  0.00    +0.000 A 
ATOM     10  C   UNL     1       3.101   3.772  17.652  0.00  0.00    +0.000 A 
ENDROOT
BRANCH   2  11
ATOM     11  O   UNL     1       6.624   4.112  18.532  0.00  0.00    +0.000 OA
ATOM     12  H   UNL     1       7.057   3.492  19.132  0.00  0.00    +0.000 HD
ENDBRANCH   2  11
BRANCH  10  13
ATOM     13  O   UNL     1       2.283   3.909  16.557  0.00  0.00    +0.000 OA
ATOM     14  H   UNL     1       2.150   4.846  16.357  0.00  0.00    +0.000 HD
ENDBRANCH  10  13
BRANCH   1  15
ATOM     15  C   UNL     1       4.894   4.819  16.209  0.00  0.00    +0.000 C 
BRANCH  15  16
ATOM     16  C   UNL     1       5.543   3.831  15.226  0.00  0.00    +0.000 C 
BRANCH  16  17
ATOM     17  C   UNL     1       5.349   4.243  13.770  0.00  0.00    +0.000 C 
BRANCH  17  18
ATOM     18  C   UNL     1       6.353   3.508  12.878  0.00  0.00    +0.000 C 
BRANCH  18  20
ATOM     19  C   UNL     1       4.310   3.233  11.438  0.00  0.00    +0.000 C 
ATOM     20  C   UNL     1       5.650   2.636  11.841  0.00  0.00    +0.000 C 
ENDBRANCH  18  20
ENDBRANCH  17  18
ENDBRANCH  16  17
ENDBRANCH  15  16
ENDBRANCH   1  15
TORSDOF 7
ENDMDL
MODEL 7
REMARK VINA RESULT:      -6.7      1.828      2.825
REMARK  Name = 
REMARK  8 active torsions:
REMARK  status: ('A' for Active; 'I' for Inactive)
REMARK    1  A    between atoms: C_1  and  C_2
REMARK    2  A    between atoms: C_2  and  C_3
REMARK    3  A    between atoms: C_3  and  C_4
REMARK    4  A    between atoms: C_4  and  C_5
REMARK    5  A    between atoms: C_5  and  C_6
REMARK    6  A    between atoms: C_6  and  C_7
REMARK    7  A    between atoms: C_8  and  O_9
REMARK    8  A    between atoms: C_17  and  O_18
REMARK                            x       y       z     vdW  Elec       q    Type
REMARK                         _______ _______ _______ _____ _____    ______ ____
ROOT
ATOM      1  C   UNL     1       5.360   4.541  16.611  0.00  0.00    +0.000 A 
ATOM      2  C   UNL     1       5.365   5.914  16.811  0.00  0.00    +0.000 A 
ATOM      3  N   UNL     1       4.580   6.555  17.696  0.00  0.00    +0.000 NA
ATOM      4  C   UNL     1       3.719   5.840  18.433  0.00  0.00    +0.000 A 
ATOM      5  C   UNL     1       2.856   6.520  19.280  0.00  0.00    +0.000 A 
ATOM      6  C   UNL     1       1.902   5.860  20.055  0.00  0.00    +0.000 A 
ATOM      7  C   UNL     1       1.818   4.478  20.005  0.00  0.00    +0.000 A 
ATOM      8  C   UNL     1       2.690   3.766  19.183  0.00  0.00    +0.000 A 
ATOM      9  C   UNL     1       3.642   4.437  18.371  0.00  0.00    +0.000 A 
ATOM     10  C   UNL     1       4.522   3.806  17.462  0.00  0.00    +0.000 A 
ENDROOT
BRANCH   2  11
ATOM     11  O   UNL     1       6.159   6.768  16.105  0.00  0.00    +0.000 OA
ATOM     12  H   UNL     1       6.964   6.933  16.611  0.00  0.00    +0.000 HD
ENDBRANCH   2  11
BRANCH  10  13
ATOM     13  O   UNL     1       4.583   2.438  17.348  0.00  0.00    +0.000 OA
ATOM     14  H   UNL     1       4.993   2.057  18.137  0.00  0.00    +0.000 HD
ENDBRANCH  10  13
BRANCH   1  15
ATOM     15  C   UNL     1       6.104   3.851  15.490  0.00  0.00    +0.000 C 
BRANCH  15  16
ATOM     16  C   UNL     1       5.494   4.195  14.121  0.00  0.00    +0.000 C 
BRANCH  16  17
ATOM     17  C   UNL     1       6.345   3.690  12.960  0.00  0.00    +0.000 C 
BRANCH  17  18
ATOM     18  C   UNL     1       5.471   2.928  11.960  0.00  0.00    +0.000 C 
BRANCH  18  20
ATOM     19  C   UNL     1       3.428   3.033  10.500  0.00  0.00    +0.000 C 
ATOM     20  C   UNL     1       4.183   3.684  11.648  0.00  0.00    +0.000 C 
ENDBRANCH  18  20
ENDBRANCH  17  18
ENDBRANCH  16  17
ENDBRANCH  15  16
ENDBRANCH   1  15
TORSDOF 7
ENDMDL
MODEL 8
REMARK VINA RESULT:      -6.7      1.596      2.251
REMARK  Name = 
REMARK  8 active torsions:
REMARK  status: ('A' for Active; 'I' for Inactive)
REMARK    1  A    between atoms: C_1  and  C_2
REMARK    2  A    between atoms: C_2  and  C_3
REMARK    3  A    between atoms: C_3  and  C_4
REMARK    4  A    between atoms: C_4  and  C_5
REMARK    5  A    between atoms: C_5  and  C_6
REMARK    6  A    between atoms: C_6  and  C_7
REMARK    7  A    between atoms: C_8  and  O_9
REMARK    8  A    between atoms: C_17  and  O_18
REMARK                            x       y       z     vdW  Elec       q    Type
REMARK                         _______ _______ _______ _____ _____    ______ ____
ROOT
ATOM      1  C   UNL     1       5.057   4.243  17.420  0.00  0.00    +0.000 A 
ATOM      2  C   UNL     1       4.913   5.527  17.924  0.00  0.00    +0.000 A 
ATOM      3  N   UNL     1       3.954   5.898  18.792  0.00  0.00    +0.000 NA
ATOM      4  C   UNL     1       3.060   4.986  19.198  0.00  0.00    +0.000 A 
ATOM      5  C   UNL     1       2.026   5.401  20.025  0.00  0.00    +0.000 A 
ATOM      6  C   UNL     1       1.031   4.528  20.465  0.00  0.00    +0.000 A 
ATOM      7  C   UNL     1       1.076   3.195  20.091  0.00  0.00    +0.000 A 
ATOM      8  C   UNL     1       2.118   2.744  19.282  0.00  0.00    +0.000 A 
ATOM      9  C   UNL     1       3.116   3.636  18.808  0.00  0.00    +0.000 A 
ATOM     10  C   UNL     1       4.171   3.285  17.935  0.00  0.00    +0.000 A 
ENDROOT
BRANCH   2  11
ATOM     11  O   UNL     1       5.723   6.564  17.568  0.00  0.00    +0.000 OA
ATOM     12  H   UNL     1       6.638   6.255  17.566  0.00  0.00    +0.000 HD
ENDBRANCH   2  11
BRANCH  10  13
ATOM     13  O   UNL     1       4.367   1.987  17.526  0.00  0.00    +0.000 OA
ATOM     14  H   UNL     1       3.907   1.379  18.120  0.00  0.00    +0.000 HD
ENDBRANCH  10  13
BRANCH   1  15
ATOM     15  C   UNL     1       6.014   3.877  16.308  0.00  0.00    +0.000 C 
BRANCH  15  16
ATOM     16  C   UNL     1       5.468   4.311  14.938  0.00  0.00    +0.000 C 
BRANCH  16  17
ATOM     17  C   UNL     1       6.568   4.460  13.892  0.00  0.00    +0.000 C 
BRANCH  17  18
ATOM     18  C   UNL     1       6.221   3.643  12.644  0.00  0.00    +0.000 C 
BRANCH  18  20
ATOM     19  C   UNL     1       4.249   3.283  11.128  0.00  0.00    +0.000 C 
ATOM     20  C   UNL     1       4.728   3.336  12.570  0.00  0.00    +0.000 C 
ENDBRANCH  18  20
ENDBRANCH  17  18
ENDBRANCH  16  17
ENDBRANCH  15  16
ENDBRANCH   1  15
TORSDOF 7
ENDMDL
MODEL 9
REMARK VINA RESULT:      -6.7      1.595      2.513
REMARK  Name = 
REMARK  8 active torsions:
REMARK  status: ('A' for Active; 'I' for Inactive)
REMARK    1  A    between atoms: C_1  and  C_2
REMARK    2  A    between atoms: C_2  and  C_3
REMARK    3  A    between atoms: C_3  and  C_4
REMARK    4  A    between atoms: C_4  and  C_5
REMARK    5  A    between atoms: C_5  and  C_6
REMARK    6  A    between atoms: C_6  and  C_7
REMARK    7  A    between atoms: C_8  and  O_9
REMARK    8  A    between atoms: C_17  and  O_18
REMARK                            x       y       z     vdW  Elec       q    Type
REMARK                         _______ _______ _______ _____ _____    ______ ____
ROOT
ATOM      1  C   UNL     1       4.958   5.431  18.040  0.00  0.00    +0.000 A 
ATOM      2  C   UNL     1       3.806   6.143  17.743  0.00  0.00    +0.000 A 
ATOM      3  N   UNL     1       2.558   5.656  17.871  0.00  0.00    +0.000 NA
ATOM      4  C   UNL     1       2.397   4.396  18.298  0.00  0.00    +0.000 A 
ATOM      5  C   UNL     1       1.110   3.878  18.344  0.00  0.00    +0.000 A 
ATOM      6  C   UNL     1       0.853   2.565  18.739  0.00  0.00    +0.000 A 
ATOM      7  C   UNL     1       1.903   1.748  19.125  0.00  0.00    +0.000 A 
ATOM      8  C   UNL     1       3.203   2.250  19.114  0.00  0.00    +0.000 A 
ATOM      9  C   UNL     1       3.472   3.576  18.684  0.00  0.00    +0.000 A 
ATOM     10  C   UNL     1       4.760   4.151  18.579  0.00  0.00    +0.000 A 
ENDROOT
BRANCH   2  11
ATOM     11  O   UNL     1       3.820   7.418  17.261  0.00  0.00    +0.000 OA
ATOM     12  H   UNL     1       3.808   7.385  16.296  0.00  0.00    +0.000 HD
ENDBRANCH   2  11
BRANCH  10  13
ATOM     13  O   UNL     1       5.887   3.473  18.977  0.00  0.00    +0.000 OA
ATOM     14  H   UNL     1       6.343   3.967  19.672  0.00  0.00    +0.000 HD
ENDBRANCH  10  13
BRANCH   1  15
ATOM     15  C   UNL     1       6.354   5.915  17.719  0.00  0.00    +0.000 C 
BRANCH  15  16
ATOM     16  C   UNL     1       6.650   5.804  16.214  0.00  0.00    +0.000 C 
BRANCH  16  17
ATOM     17  C   UNL     1       6.591   4.364  15.713  0.00  0.00    +0.000 C 
BRANCH  17  18
ATOM     18  C   UNL     1       5.684   4.273  14.483  0.00  0.00    +0.000 C 
BRANCH  18  20
ATOM     19  C   UNL     1       5.607   3.249  12.189  0.00  0.00    +0.000 C 
ATOM     20  C   UNL     1       6.478   3.946  13.222  0.00  0.00    +0.000 C 
ENDBRANCH  18  20
ENDBRANCH  17  18
ENDBRANCH  16  17
ENDBRANCH  15  16
ENDBRANCH   1  15
TORSDOF 7
ENDMDL
