MODEL 1
REMARK VINA RESULT:      -5.6      0.000      0.000
REMARK  Name = 
REMARK  7 active torsions:
REMARK  status: ('A' for Active; 'I' for Inactive)
REMARK    1  A    between atoms: C_2  and  C_3
REMARK    2  A    between atoms: C_3  and  S_4
REMARK    3  A    between atoms: S_4  and  S_5
REMARK    4  A    between atoms: S_5  and  C_6
REMARK    5  A    between atoms: C_11  and  C_12
REMARK    6  A    between atoms: C_12  and  O_14
REMARK    7  A    between atoms: O_14  and  C_15
REMARK                            x       y       z     vdW  Elec       q    Type
REMARK                         _______ _______ _______ _____ _____    ______ ____
ROOT
ATOM      1  C   UNL     1       5.349   5.162  17.848  0.00  0.00    +0.000 A 
ATOM      2  C   UNL     1       5.814   4.985  19.168  0.00  0.00    +0.000 A 
ATOM      3  C   UNL     1       7.024   5.533  19.594  0.00  0.00    +0.000 A 
ATOM      4  C   UNL     1       7.806   6.255  18.704  0.00  0.00    +0.000 A 
ATOM      5  C   UNL     1       7.376   6.427  17.388  0.00  0.00    +0.000 A 
ATOM      6  C   UNL     1       6.150   5.892  16.946  0.00  0.00    +0.000 A 
ENDROOT
BRANCH   6   7
ATOM      7  C   UNL     1       5.842   6.139  15.510  0.00  0.00    +0.000 C 
ATOM      8  O   UNL     1       4.941   6.884  15.152  0.00  0.00    +0.000 OA
BRANCH   7   9
ATOM      9  O   UNL     1       6.605   5.388  14.679  0.00  0.00    +0.000 OA
ATOM     10  C   UNL     1       6.052   4.100  14.382  0.00  0.00    +0.000 C 
ENDBRANCH   7   9
ENDBRANCH   6   7
BRANCH   1  11
ATOM     11  S   UNL     1       3.767   4.424  17.429  0.00  0.00    +0.000 S 
BRANCH  11  12
ATOM     12  S   UNL     1       3.532   3.008  18.914  0.00  0.00    +0.000 S 
BRANCH  12  13
ATOM     13  C   UNL     1       1.807   2.494  18.656  0.00  0.00    +0.000 C 
BRANCH  13  15
ATOM     14  C   UNL     1       1.302   2.998  21.063  0.00  0.00    +0.000 C 
ATOM     15  C   UNL     1       0.948   3.018  19.770  0.00  0.00    +0.000 C 
ENDBRANCH  13  15
ENDBRANCH  12  13
ENDBRANCH  11  12
ENDBRANCH   1  11
TORSDOF 6
ENDMDL
MODEL 2
REMARK VINA RESULT:      -5.5      1.781      2.561
REMARK  Name = 
REMARK  7 active torsions:
REMARK  status: ('A' for Active; 'I' for Inactive)
REMARK    1  A    between atoms: C_2  and  C_3
REMARK    2  A    between atoms: C_3  and  S_4
REMARK    3  A    between atoms: S_4  and  S_5
REMARK    4  A    between atoms: S_5  and  C_6
REMARK    5  A    between atoms: C_11  and  C_12
REMARK    6  A    between atoms: C_12  and  O_14
REMARK    7  A    between atoms: O_14  and  C_15
REMARK                            x       y       z     vdW  Elec       q    Type
REMARK                         _______ _______ _______ _____ _____    ______ ____
ROOT
ATOM      1  C   UNL     1       4.067   4.696  17.583  0.00  0.00    +0.000 A 
ATOM      2  C   UNL     1       3.112   5.514  18.222  0.00  0.00    +0.000 A 
ATOM      3  C   UNL     1       3.085   6.894  18.023  0.00  0.00    +0.000 A 
ATOM      4  C   UNL     1       4.024   7.491  17.195  0.00  0.00    +0.000 A 
ATOM      5  C   UNL     1       4.991   6.705  16.567  0.00  0.00    +0.000 A 
ATOM      6  C   UNL     1       5.023   5.308  16.747  0.00  0.00    +0.000 A 
ENDROOT
BRANCH   6   7
ATOM      7  C   UNL     1       6.128   4.611  16.031  0.00  0.00    +0.000 C 
ATOM      8  O   UNL     1       5.923   3.724  15.215  0.00  0.00    +0.000 OA
BRANCH   7   9
ATOM      9  O   UNL     1       7.352   5.011  16.451  0.00  0.00    +0.000 OA
ATOM     10  C   UNL     1       7.682   4.588  17.780  0.00  0.00    +0.000 C 
ENDBRANCH   7   9
ENDBRANCH   6   7
BRANCH   1  11
ATOM     11  S   UNL     1       3.983   2.932  17.905  0.00  0.00    +0.000 S 
BRANCH  11  12
ATOM     12  S   UNL     1       1.949   2.605  18.052  0.00  0.00    +0.000 S 
BRANCH  12  13
ATOM     13  C   UNL     1       1.786   2.116  19.796  0.00  0.00    +0.000 C 
BRANCH  13  15
ATOM     14  C   UNL     1       2.072   4.019  21.408  0.00  0.00    +0.000 C 
ATOM     15  C   UNL     1       1.293   3.279  20.606  0.00  0.00    +0.000 C 
ENDBRANCH  13  15
ENDBRANCH  12  13
ENDBRANCH  11  12
ENDBRANCH   1  11
TORSDOF 6
ENDMDL
MODEL 3
REMARK VINA RESULT:      -5.5      1.177      1.422
REMARK  Name = 
REMARK  7 active torsions:
REMARK  status: ('A' for Active; 'I' for Inactive)
REMARK    1  A    between atoms: C_2  and  C_3
REMARK    2  A    between atoms: C_3  and  S_4
REMARK    3  A    between atoms: S_4  and  S_5
REMARK    4  A    between atoms: S_5  and  C_6
REMARK    5  A    between atoms: C_11  and  C_12
REMARK    6  A    between atoms: C_12  and  O_14
REMARK    7  A    between atoms: O_14  and  C_15
REMARK                            x       y       z     vdW  Elec       q    Type
REMARK                         _______ _______ _______ _____ _____    ______ ____
ROOT
ATOM      1  C   UNL     1       5.360   5.080  18.049  0.00  0.00    +0.000 A 
ATOM      2  C   UNL     1       6.010   5.045  19.300  0.00  0.00    +0.000 A 
ATOM      3  C   UNL     1       7.226   5.697  19.507  0.00  0.00    +0.000 A 
ATOM      4  C   UNL     1       7.830   6.381  18.463  0.00  0.00    +0.000 A 
ATOM      5  C   UNL     1       7.215   6.413  17.210  0.00  0.00    +0.000 A 
ATOM      6  C   UNL     1       5.979   5.772  16.989  0.00  0.00    +0.000 A 
ENDROOT
BRANCH   6   7
ATOM      7  C   UNL     1       5.464   5.875  15.596  0.00  0.00    +0.000 C 
ATOM      8  O   UNL     1       5.063   6.928  15.121  0.00  0.00    +0.000 OA
BRANCH   7   9
ATOM      9  O   UNL     1       5.414   4.674  14.971  0.00  0.00    +0.000 OA
ATOM     10  C   UNL     1       6.554   4.396  14.147  0.00  0.00    +0.000 C 
ENDBRANCH   7   9
ENDBRANCH   6   7
BRANCH   1  11
ATOM     11  S   UNL     1       3.790   4.220  17.917  0.00  0.00    +0.000 S 
BRANCH  11  12
ATOM     12  S   UNL     1       2.425   5.740  18.220  0.00  0.00    +0.000 S 
BRANCH  12  13
ATOM     13  C   UNL     1       2.327   5.783  20.035  0.00  0.00    +0.000 C 
BRANCH  13  15
ATOM     14  C   UNL     1       1.181   3.644  20.681  0.00  0.00    +0.000 C 
ATOM     15  C   UNL     1       2.295   4.383  20.577  0.00  0.00    +0.000 C 
ENDBRANCH  13  15
ENDBRANCH  12  13
ENDBRANCH  11  12
ENDBRANCH   1  11
TORSDOF 6
ENDMDL
MODEL 4
REMARK VINA RESULT:      -5.5      2.032      2.406
REMARK  Name = 
REMARK  7 active torsions:
REMARK  status: ('A' for Active; 'I' for Inactive)
REMARK    1  A    between atoms: C_2  and  C_3
REMARK    2  A    between atoms: C_3  and  S_4
REMARK    3  A    between atoms: S_4  and  S_5
REMARK    4  A    between atoms: S_5  and  C_6
REMARK    5  A    between atoms: C_11  and  C_12
REMARK    6  A    between atoms: C_12  and  O_14
REMARK    7  A    between atoms: O_14  and  C_15
REMARK                            x       y       z     vdW  Elec       q    Type
REMARK                         _______ _______ _______ _____ _____    ______ ____
ROOT
ATOM      1  C   UNL     1       4.137   4.558  17.488  0.00  0.00    +0.000 A 
ATOM      2  C   UNL     1       3.146   5.433  17.980  0.00  0.00    +0.000 A 
ATOM      3  C   UNL     1       3.249   6.814  17.816  0.00  0.00    +0.000 A 
ATOM      4  C   UNL     1       4.354   7.354  17.175  0.00  0.00    +0.000 A 
ATOM      5  C   UNL     1       5.357   6.508  16.697  0.00  0.00    +0.000 A 
ATOM      6  C   UNL     1       5.261   5.110  16.841  0.00  0.00    +0.000 A 
ENDROOT
BRANCH   6   7
ATOM      7  C   UNL     1       6.420   4.346  16.303  0.00  0.00    +0.000 C 
ATOM      8  O   UNL     1       7.557   4.494  16.727  0.00  0.00    +0.000 OA
BRANCH   7   9
ATOM      9  O   UNL     1       6.079   3.555  15.257  0.00  0.00    +0.000 OA
ATOM     10  C   UNL     1       6.338   4.138  13.974  0.00  0.00    +0.000 C 
ENDBRANCH   7   9
ENDBRANCH   6   7
BRANCH   1  11
ATOM     11  S   UNL     1       3.878   2.800  17.743  0.00  0.00    +0.000 S 
BRANCH  11  12
ATOM     12  S   UNL     1       4.111   2.610  19.787  0.00  0.00    +0.000 S 
BRANCH  12  13
ATOM     13  C   UNL     1       2.396   2.331  20.323  0.00  0.00    +0.000 C 
BRANCH  13  15
ATOM     14  C   UNL     1       0.948   4.374  20.509  0.00  0.00    +0.000 C 
ATOM     15  C   UNL     1       1.876   3.553  21.023  0.00  0.00    +0.000 C 
ENDBRANCH  13  15
ENDBRANCH  12  13
ENDBRANCH  11  12
ENDBRANCH   1  11
TORSDOF 6
ENDMDL
MODEL 5
REMARK VINA RESULT:      -5.5      1.979      2.723
REMARK  Name = 
REMARK  7 active torsions:
REMARK  status: ('A' for Active; 'I' for Inactive)
REMARK    1  A    between atoms: C_2  and  C_3
REMARK    2  A    between atoms: C_3  and  S_4
REMARK    3  A    between atoms: S_4  and  S_5
REMARK    4  A    between atoms: S_5  and  C_6
REMARK    5  A    between atoms: C_11  and  C_12
REMARK    6  A    between atoms: C_12  and  O_14
REMARK    7  A    between atoms: O_14  and  C_15
REMARK                            x       y       z     vdW  Elec       q    Type
REMARK                         _______ _______ _______ _____ _____    ______ ____
ROOT
ATOM      1  C   UNL     1       3.635   4.644  17.799  0.00  0.00    +0.000 A 
ATOM      2  C   UNL     1       2.444   5.355  18.053  0.00  0.00    +0.000 A 
ATOM      3  C   UNL     1       2.400   6.747  17.991  0.00  0.00    +0.000 A 
ATOM      4  C   UNL     1       3.551   7.463  17.694  0.00  0.00    +0.000 A 
ATOM      5  C   UNL     1       4.746   6.782  17.459  0.00  0.00    +0.000 A 
ATOM      6  C   UNL     1       4.804   5.374  17.503  0.00  0.00    +0.000 A 
ENDROOT
BRANCH   6   7
ATOM      7  C   UNL     1       6.154   4.797  17.255  0.00  0.00    +0.000 C 
ATOM      8  O   UNL     1       6.845   4.337  18.153  0.00  0.00    +0.000 OA
BRANCH   7   9
ATOM      9  O   UNL     1       6.543   4.923  15.963  0.00  0.00    +0.000 OA
ATOM     10  C   UNL     1       6.170   3.818  15.130  0.00  0.00    +0.000 C 
ENDBRANCH   7   9
ENDBRANCH   6   7
BRANCH   1  11
ATOM     11  S   UNL     1       3.557   2.853  17.889  0.00  0.00    +0.000 S 
BRANCH  11  12
ATOM     12  S   UNL     1       4.332   2.469  19.764  0.00  0.00    +0.000 S 
BRANCH  12  13
ATOM     13  C   UNL     1       2.963   2.997  20.838  0.00  0.00    +0.000 C 
BRANCH  13  15
ATOM     14  C   UNL     1       0.556   3.229  20.163  0.00  0.00    +0.000 C 
ATOM     15  C   UNL     1       1.662   2.483  20.294  0.00  0.00    +0.000 C 
ENDBRANCH  13  15
ENDBRANCH  12  13
ENDBRANCH  11  12
ENDBRANCH   1  11
TORSDOF 6
ENDMDL
MODEL 6
REMARK VINA RESULT:      -5.5      2.901      5.819
REMARK  Name = 
REMARK  7 active torsions:
REMARK  status: ('A' for Active; 'I' for Inactive)
REMARK    1  A    between atoms: C_2  and  C_3
REMARK    2  A    between atoms: C_3  and  S_4
REMARK    3  A    between atoms: S_4  and  S_5
REMARK    4  A    between atoms: S_5  and  C_6
REMARK    5  A    between atoms: C_11  and  C_12
REMARK    6  A    between atoms: C_12  and  O_14
REMARK    7  A    between atoms: O_14  and  C_15
REMARK                            x       y       z     vdW  Elec       q    Type
REMARK                         _______ _______ _______ _____ _____    ______ ____
ROOT
ATOM      1  C   UNL     1       3.727   5.006  17.504  0.00  0.00    +0.000 A 
ATOM      2  C   UNL     1       3.657   3.641  17.155  0.00  0.00    +0.000 A 
ATOM      3  C   UNL     1       2.541   2.865  17.471  0.00  0.00    +0.000 A 
ATOM      4  C   UNL     1       1.478   3.431  18.159  0.00  0.00    +0.000 A 
ATOM      5  C   UNL     1       1.533   4.775  18.532  0.00  0.00    +0.000 A 
ATOM      6  C   UNL     1       2.647   5.575  18.209  0.00  0.00    +0.000 A 
ENDROOT
BRANCH   6   7
ATOM      7  C   UNL     1       2.568   6.980  18.696  0.00  0.00    +0.000 C 
ATOM      8  O   UNL     1       2.438   7.257  19.880  0.00  0.00    +0.000 OA
BRANCH   7   9
ATOM      9  O   UNL     1       2.571   7.882  17.685  0.00  0.00    +0.000 OA
ATOM     10  C   UNL     1       1.856   9.089  17.975  0.00  0.00    +0.000 C 
ENDBRANCH   7   9
ENDBRANCH   6   7
BRANCH   1  11
ATOM     11  S   UNL     1       5.207   5.900  17.024  0.00  0.00    +0.000 S 
BRANCH  11  12
ATOM     12  S   UNL     1       6.674   4.954  18.127  0.00  0.00    +0.000 S 
BRANCH  12  13
ATOM     13  C   UNL     1       7.760   6.348  18.557  0.00  0.00    +0.000 C 
BRANCH  13  15
ATOM     14  C   UNL     1       7.994   8.728  17.795  0.00  0.00    +0.000 C 
ATOM     15  C   UNL     1       7.530   7.485  17.605  0.00  0.00    +0.000 C 
ENDBRANCH  13  15
ENDBRANCH  12  13
ENDBRANCH  11  12
ENDBRANCH   1  11
TORSDOF 6
ENDMDL
MODEL 7
REMARK VINA RESULT:      -5.4      3.263      5.787
REMARK  Name = 
REMARK  7 active torsions:
REMARK  status: ('A' for Active; 'I' for Inactive)
REMARK    1  A    between atoms: C_2  and  C_3
REMARK    2  A    between atoms: C_3  and  S_4
REMARK    3  A    between atoms: S_4  and  S_5
REMARK    4  A    between atoms: S_5  and  C_6
REMARK    5  A    between atoms: C_11  and  C_12
REMARK    6  A    between atoms: C_12  and  O_14
REMARK    7  A    between atoms: O_14  and  C_15
REMARK                            x       y       z     vdW  Elec       q    Type
REMARK                         _______ _______ _______ _____ _____    ______ ____
ROOT
ATOM      1  C   UNL     1       3.934   4.990  18.018  0.00  0.00    +0.000 A 
ATOM      2  C   UNL     1       3.557   6.313  17.708  0.00  0.00    +0.000 A 
ATOM      3  C   UNL     1       2.784   7.074  18.586  0.00  0.00    +0.000 A 
ATOM      4  C   UNL     1       2.355   6.523  19.784  0.00  0.00    +0.000 A 
ATOM      5  C   UNL     1       2.699   5.209  20.103  0.00  0.00    +0.000 A 
ATOM      6  C   UNL     1       3.491   4.432  19.234  0.00  0.00    +0.000 A 
ENDROOT
BRANCH   6   7
ATOM      7  C   UNL     1       3.753   3.043  19.702  0.00  0.00    +0.000 C 
ATOM      8  O   UNL     1       4.881   2.628  19.927  0.00  0.00    +0.000 OA
BRANCH   7   9
ATOM      9  O   UNL     1       2.625   2.293  19.760  0.00  0.00    +0.000 OA
ATOM     10  C   UNL     1       2.062   1.984  18.479  0.00  0.00    +0.000 C 
ENDBRANCH   7   9
ENDBRANCH   6   7
BRANCH   1  11
ATOM     11  S   UNL     1       4.946   4.123  16.815  0.00  0.00    +0.000 S 
BRANCH  11  12
ATOM     12  S   UNL     1       5.709   5.671  15.680  0.00  0.00    +0.000 S 
BRANCH  12  13
ATOM     13  C   UNL     1       6.753   4.772  14.494  0.00  0.00    +0.000 C 
BRANCH  13  15
ATOM     14  C   UNL     1       6.249   3.430  12.433  0.00  0.00    +0.000 C 
ATOM     15  C   UNL     1       5.902   3.865  13.653  0.00  0.00    +0.000 C 
ENDBRANCH  13  15
ENDBRANCH  12  13
ENDBRANCH  11  12
ENDBRANCH   1  11
TORSDOF 6
ENDMDL
MODEL 8
REMARK VINA RESULT:      -5.4      2.174      2.818
REMARK  Name = 
REMARK  7 active torsions:
REMARK  status: ('A' for Active; 'I' for Inactive)
REMARK    1  A    between atoms: C_2  and  C_3
REMARK    2  A    between atoms: C_3  and  S_4
REMARK    3  A    between atoms: S_4  and  S_5
REMARK    4  A    between atoms: S_5  and  C_6
REMARK    5  A    between atoms: C_11  and  C_12
REMARK    6  A    between atoms: C_12  and  O_14
REMARK    7  A    between atoms: O_14  and  C_15
REMARK                            x       y       z     vdW  Elec       q    Type
REMARK                         _______ _______ _______ _____ _____    ______ ____
ROOT
ATOM      1  C   UNL     1       4.256   5.555  18.784  0.00  0.00    +0.000 A 
ATOM      2  C   UNL     1       3.260   5.824  19.747  0.00  0.00    +0.000 A 
ATOM      3  C   UNL     1       2.363   6.880  19.589  0.00  0.00    +0.000 A 
ATOM      4  C   UNL     1       2.452   7.703  18.476  0.00  0.00    +0.000 A 
ATOM      5  C   UNL     1       3.442   7.468  17.520  0.00  0.00    +0.000 A 
ATOM      6  C   UNL     1       4.347   6.397  17.658  0.00  0.00    +0.000 A 
ENDROOT
BRANCH   6   7
ATOM      7  C   UNL     1       5.359   6.291  16.570  0.00  0.00    +0.000 C 
ATOM      8  O   UNL     1       6.317   7.046  16.491  0.00  0.00    +0.000 OA
BRANCH   7   9
ATOM      9  O   UNL     1       5.044   5.339  15.659  0.00  0.00    +0.000 OA
ATOM     10  C   UNL     1       6.122   4.990  14.782  0.00  0.00    +0.000 C 
ENDBRANCH   7   9
ENDBRANCH   6   7
BRANCH   1  11
ATOM     11  S   UNL     1       5.336   4.155  19.093  0.00  0.00    +0.000 S 
BRANCH  11  12
ATOM     12  S   UNL     1       4.022   2.728  19.801  0.00  0.00    +0.000 S 
BRANCH  12  13
ATOM     13  C   UNL     1       3.341   2.061  18.253  0.00  0.00    +0.000 C 
BRANCH  13  15
ATOM     14  C   UNL     1       1.491   3.661  17.688  0.00  0.00    +0.000 C 
ATOM     15  C   UNL     1       1.900   2.458  18.117  0.00  0.00    +0.000 C 
ENDBRANCH  13  15
ENDBRANCH  12  13
ENDBRANCH  11  12
ENDBRANCH   1  11
TORSDOF 6
ENDMDL
MODEL 9
REMARK VINA RESULT:      -5.3      1.903      3.257
REMARK  Name = 
REMARK  7 active torsions:
REMARK  status: ('A' for Active; 'I' for Inactive)
REMARK    1  A    between atoms: C_2  and  C_3
REMARK    2  A    between atoms: C_3  and  S_4
REMARK    3  A    between atoms: S_4  and  S_5
REMARK    4  A    between atoms: S_5  and  C_6
REMARK    5  A    between atoms: C_11  and  C_12
REMARK    6  A    between atoms: C_12  and  O_14
REMARK    7  A    between atoms: O_14  and  C_15
REMARK                            x       y       z     vdW  Elec       q    Type
REMARK                         _______ _______ _______ _____ _____    ______ ____
ROOT
ATOM      1  C   UNL     1       5.325   4.417  17.029  0.00  0.00    +0.000 A 
ATOM      2  C   UNL     1       4.692   4.052  15.823  0.00  0.00    +0.000 A 
ATOM      3  C   UNL     1       5.365   4.101  14.603  0.00  0.00    +0.000 A 
ATOM      4  C   UNL     1       6.681   4.536  14.557  0.00  0.00    +0.000 A 
ATOM      5  C   UNL     1       7.323   4.922  15.735  0.00  0.00    +0.000 A 
ATOM      6  C   UNL     1       6.661   4.864  16.978  0.00  0.00    +0.000 A 
ENDROOT
BRANCH   6   7
ATOM      7  C   UNL     1       7.469   5.332  18.138  0.00  0.00    +0.000 C 
ATOM      8  O   UNL     1       8.282   4.614  18.703  0.00  0.00    +0.000 OA
BRANCH   7   9
ATOM      9  O   UNL     1       7.136   6.585  18.532  0.00  0.00    +0.000 OA
ATOM     10  C   UNL     1       7.843   7.622  17.840  0.00  0.00    +0.000 C 
ENDBRANCH   7   9
ENDBRANCH   6   7
BRANCH   1  11
ATOM     11  S   UNL     1       4.357   4.290  18.536  0.00  0.00    +0.000 S 
BRANCH  11  12
ATOM     12  S   UNL     1       3.062   2.741  18.100  0.00  0.00    +0.000 S 
BRANCH  12  13
ATOM     13  C   UNL     1       1.447   3.527  18.386  0.00  0.00    +0.000 C 
BRANCH  13  15
ATOM     14  C   UNL     1       1.460   3.076  20.856  0.00  0.00    +0.000 C 
ATOM     15  C   UNL     1       0.850   3.013  19.664  0.00  0.00    +0.000 C 
ENDBRANCH  13  15
ENDBRANCH  12  13
ENDBRANCH  11  12
ENDBRANCH   1  11
TORSDOF 6
ENDMDL
