MODEL 1
REMARK VINA RESULT:      -8.2      0.000      0.000
REMARK  Name = 
REMARK  3 active torsions:
REMARK  status: ('A' for Active; 'I' for Inactive)
REMARK    1  A    between atoms: C_1  and  C_2
REMARK    2  A    between atoms: C_5  and  C_6
REMARK    3  A    between atoms: C_6  and  C_7
REMARK                            x       y       z     vdW  Elec       q    Type
REMARK                         _______ _______ _______ _____ _____    ______ ____
ROOT
ATOM      1  C   UNL     1       2.530   6.887  18.481  0.00  0.00    +0.000 C 
ATOM      2  C   UNL     1       2.856   8.032  17.541  0.00  0.00    +0.000 C 
ATOM      3  C   UNL     1       2.037   9.186  18.050  0.00  0.00    +0.000 C 
ATOM      4  O   UNL     1       2.015  10.259  17.463  0.00  0.00    +0.000 OA
ATOM      5  N   UNL     1       1.467   8.826  19.242  0.00  0.00    +0.000 N 
ATOM      6  C   UNL     1       0.670   9.641  20.029  0.00  0.00    +0.000 A 
ATOM      7  N   UNL     1       0.411   9.479  21.308  0.00  0.00    +0.000 NA
ATOM      8  C   UNL     1      -0.476  10.447  21.759  0.00  0.00    +0.000 A 
ATOM      9  C   UNL     1      -0.938  10.607  23.081  0.00  0.00    +0.000 A 
ATOM     10  C   UNL     1      -1.864  11.613  23.381  0.00  0.00    +0.000 A 
ATOM     11  C   UNL     1      -2.341  12.454  22.379  0.00  0.00    +0.000 A 
ATOM     12  C   UNL     1      -1.888  12.325  21.064  0.00  0.00    +0.000 A 
ATOM     13  C   UNL     1      -0.944  11.322  20.780  0.00  0.00    +0.000 A 
ATOM     14  S   UNL     1      -0.179  10.943  19.293  0.00  0.00    +0.000 S 
ATOM     15  C   UNL     1       1.854   7.572  19.655  0.00  0.00    +0.000 C 
ATOM     16  O   UNL     1       1.649   7.002  20.716  0.00  0.00    +0.000 OA
ENDROOT
BRANCH   1  17
ATOM     17  C   UNL     1       3.736   6.050  18.924  0.00  0.00    +0.000 C 
BRANCH  17  22
ATOM     18  C   UNL     1       7.276   4.532  14.520  0.00  0.00    +0.000 C 
ATOM     19  C   UNL     1       6.395   4.876  15.685  0.00  0.00    +0.000 A 
ATOM     20  C   UNL     1       5.142   4.282  15.847  0.00  0.00    +0.000 A 
ATOM     21  C   UNL     1       4.316   4.649  16.917  0.00  0.00    +0.000 A 
ATOM     22  C   UNL     1       4.722   5.613  17.857  0.00  0.00    +0.000 A 
ATOM     23  C   UNL     1       5.979   6.204  17.687  0.00  0.00    +0.000 A 
ATOM     24  C   UNL     1       6.807   5.836  16.617  0.00  0.00    +0.000 A 
ENDBRANCH  17  22
ENDBRANCH   1  17
TORSDOF 2
ENDMDL
MODEL 2
REMARK VINA RESULT:      -7.9      3.205      7.630
REMARK  Name = 
REMARK  3 active torsions:
REMARK  status: ('A' for Active; 'I' for Inactive)
REMARK    1  A    between atoms: C_1  and  C_2
REMARK    2  A    between atoms: C_5  and  C_6
REMARK    3  A    between atoms: C_6  and  C_7
REMARK                            x       y       z     vdW  Elec       q    Type
REMARK                         _______ _______ _______ _____ _____    ______ ____
ROOT
ATOM      1  C   UNL     1       1.072  10.294  19.718  0.00  0.00    +0.000 C 
ATOM      2  C   UNL     1       1.530  10.176  18.276  0.00  0.00    +0.000 C 
ATOM      3  C   UNL     1       2.121   8.797  18.177  0.00  0.00    +0.000 C 
ATOM      4  O   UNL     1       2.653   8.405  17.148  0.00  0.00    +0.000 OA
ATOM      5  N   UNL     1       1.862   8.125  19.342  0.00  0.00    +0.000 N 
ATOM      6  C   UNL     1       2.221   6.814  19.608  0.00  0.00    +0.000 A 
ATOM      7  N   UNL     1       1.695   6.033  20.527  0.00  0.00    +0.000 NA
ATOM      8  C   UNL     1       2.340   4.803  20.558  0.00  0.00    +0.000 A 
ATOM      9  C   UNL     1       2.014   3.709  21.383  0.00  0.00    +0.000 A 
ATOM     10  C   UNL     1       2.781   2.539  21.328  0.00  0.00    +0.000 A 
ATOM     11  C   UNL     1       3.873   2.451  20.468  0.00  0.00    +0.000 A 
ATOM     12  C   UNL     1       4.207   3.517  19.630  0.00  0.00    +0.000 A 
ATOM     13  C   UNL     1       3.418   4.680  19.682  0.00  0.00    +0.000 A 
ATOM     14  S   UNL     1       3.550   6.122  18.765  0.00  0.00    +0.000 S 
ATOM     15  C   UNL     1       1.096   8.861  20.217  0.00  0.00    +0.000 C 
ATOM     16  O   UNL     1       0.575   8.525  21.270  0.00  0.00    +0.000 OA
ENDROOT
BRANCH   1  17
ATOM     17  C   UNL     1      -0.303  10.944  19.909  0.00  0.00    +0.000 C 
BRANCH  17  22
ATOM     18  C   UNL     1      -3.834  10.500  15.265  0.00  0.00    +0.000 C 
ATOM     19  C   UNL     1      -2.978  10.636  16.490  0.00  0.00    +0.000 A 
ATOM     20  C   UNL     1      -2.266  11.808  16.752  0.00  0.00    +0.000 A 
ATOM     21  C   UNL     1      -1.437  11.898  17.878  0.00  0.00    +0.000 A 
ATOM     22  C   UNL     1      -1.304  10.824  18.775  0.00  0.00    +0.000 A 
ATOM     23  C   UNL     1      -2.019   9.653  18.504  0.00  0.00    +0.000 A 
ATOM     24  C   UNL     1      -2.850   9.562  17.378  0.00  0.00    +0.000 A 
ENDBRANCH  17  22
ENDBRANCH   1  17
TORSDOF 2
ENDMDL
MODEL 3
REMARK VINA RESULT:      -7.7      1.811      9.028
REMARK  Name = 
REMARK  3 active torsions:
REMARK  status: ('A' for Active; 'I' for Inactive)
REMARK    1  A    between atoms: C_1  and  C_2
REMARK    2  A    between atoms: C_5  and  C_6
REMARK    3  A    between atoms: C_6  and  C_7
REMARK                            x       y       z     vdW  Elec       q    Type
REMARK                         _______ _______ _______ _____ _____    ______ ____
ROOT
ATOM      1  C   UNL     1       0.614   9.324  20.029  0.00  0.00    +0.000 C 
ATOM      2  C   UNL     1       0.716   8.284  21.128  0.00  0.00    +0.000 C 
ATOM      3  C   UNL     1       1.562   7.190  20.540  0.00  0.00    +0.000 C 
ATOM      4  O   UNL     1       1.780   6.154  21.153  0.00  0.00    +0.000 OA
ATOM      5  N   UNL     1       2.059   7.619  19.337  0.00  0.00    +0.000 N 
ATOM      6  C   UNL     1       2.910   6.897  18.517  0.00  0.00    +0.000 A 
ATOM      7  N   UNL     1       3.680   7.386  17.569  0.00  0.00    +0.000 NA
ATOM      8  C   UNL     1       4.351   6.368  16.905  0.00  0.00    +0.000 A 
ATOM      9  C   UNL     1       5.292   6.525  15.867  0.00  0.00    +0.000 A 
ATOM     10  C   UNL     1       5.864   5.399  15.266  0.00  0.00    +0.000 A 
ATOM     11  C   UNL     1       5.503   4.118  15.679  0.00  0.00    +0.000 A 
ATOM     12  C   UNL     1       4.584   3.937  16.715  0.00  0.00    +0.000 A 
ATOM     13  C   UNL     1       4.031   5.077  17.323  0.00  0.00    +0.000 A 
ATOM     14  S   UNL     1       2.921   5.181  18.626  0.00  0.00    +0.000 S 
ATOM     15  C   UNL     1       1.706   8.918  19.054  0.00  0.00    +0.000 C 
ATOM     16  O   UNL     1       2.081   9.650  18.150  0.00  0.00    +0.000 OA
ENDROOT
BRANCH   1  17
ATOM     17  C   UNL     1       0.774  10.776  20.494  0.00  0.00    +0.000 C 
BRANCH  17  22
ATOM     18  C   UNL     1      -4.074  13.052  22.851  0.00  0.00    +0.000 C 
ATOM     19  C   UNL     1      -2.801  12.524  22.257  0.00  0.00    +0.000 A 
ATOM     20  C   UNL     1      -2.546  12.619  20.887  0.00  0.00    +0.000 A 
ATOM     21  C   UNL     1      -1.372  12.080  20.345  0.00  0.00    +0.000 A 
ATOM     22  C   UNL     1      -0.419  11.440  21.157  0.00  0.00    +0.000 A 
ATOM     23  C   UNL     1      -0.683  11.348  22.528  0.00  0.00    +0.000 A 
ATOM     24  C   UNL     1      -1.857  11.888  23.071  0.00  0.00    +0.000 A 
ENDBRANCH  17  22
ENDBRANCH   1  17
TORSDOF 2
ENDMDL
MODEL 4
REMARK VINA RESULT:      -7.7      2.742      8.604
REMARK  Name = 
REMARK  3 active torsions:
REMARK  status: ('A' for Active; 'I' for Inactive)
REMARK    1  A    between atoms: C_1  and  C_2
REMARK    2  A    between atoms: C_5  and  C_6
REMARK    3  A    between atoms: C_6  and  C_7
REMARK                            x       y       z     vdW  Elec       q    Type
REMARK                         _______ _______ _______ _____ _____    ______ ____
ROOT
ATOM      1  C   UNL     1       0.889  10.256  20.016  0.00  0.00    +0.000 C 
ATOM      2  C   UNL     1       1.302  10.228  18.556  0.00  0.00    +0.000 C 
ATOM      3  C   UNL     1       1.946   8.883  18.369  0.00  0.00    +0.000 C 
ATOM      4  O   UNL     1       2.459   8.565  17.305  0.00  0.00    +0.000 OA
ATOM      5  N   UNL     1       1.755   8.143  19.506  0.00  0.00    +0.000 N 
ATOM      6  C   UNL     1       2.177   6.838  19.694  0.00  0.00    +0.000 A 
ATOM      7  N   UNL     1       1.716   5.990  20.589  0.00  0.00    +0.000 NA
ATOM      8  C   UNL     1       2.412   4.790  20.537  0.00  0.00    +0.000 A 
ATOM      9  C   UNL     1       2.160   3.643  21.316  0.00  0.00    +0.000 A 
ATOM     10  C   UNL     1       2.971   2.511  21.177  0.00  0.00    +0.000 A 
ATOM     11  C   UNL     1       4.037   2.513  20.279  0.00  0.00    +0.000 A 
ATOM     12  C   UNL     1       4.298   3.633  19.486  0.00  0.00    +0.000 A 
ATOM     13  C   UNL     1       3.463   4.756  19.622  0.00  0.00    +0.000 A 
ATOM     14  S   UNL     1       3.504   6.247  18.775  0.00  0.00    +0.000 S 
ATOM     15  C   UNL     1       0.990   8.802  20.441  0.00  0.00    +0.000 C 
ATOM     16  O   UNL     1       0.519   8.393  21.492  0.00  0.00    +0.000 OA
ENDROOT
BRANCH   1  17
ATOM     17  C   UNL     1      -0.504  10.835  20.284  0.00  0.00    +0.000 C 
BRANCH  17  22
ATOM     18  C   UNL     1      -1.163  15.140  24.192  0.00  0.00    +0.000 C 
ATOM     19  C   UNL     1      -0.950  14.010  23.228  0.00  0.00    +0.000 A 
ATOM     20  C   UNL     1      -0.013  14.102  22.197  0.00  0.00    +0.000 A 
ATOM     21  C   UNL     1       0.139  13.053  21.280  0.00  0.00    +0.000 A 
ATOM     22  C   UNL     1      -0.635  11.883  21.374  0.00  0.00    +0.000 A 
ATOM     23  C   UNL     1      -1.572  11.799  22.409  0.00  0.00    +0.000 A 
ATOM     24  C   UNL     1      -1.724  12.848  23.328  0.00  0.00    +0.000 A 
ENDBRANCH  17  22
ENDBRANCH   1  17
TORSDOF 2
ENDMDL
MODEL 5
REMARK VINA RESULT:      -7.6      1.887      9.059
REMARK  Name = 
REMARK  3 active torsions:
REMARK  status: ('A' for Active; 'I' for Inactive)
REMARK    1  A    between atoms: C_1  and  C_2
REMARK    2  A    between atoms: C_5  and  C_6
REMARK    3  A    between atoms: C_6  and  C_7
REMARK                            x       y       z     vdW  Elec       q    Type
REMARK                         _______ _______ _______ _____ _____    ______ ____
ROOT
ATOM      1  C   UNL     1       0.751   8.990  19.966  0.00  0.00    +0.000 C 
ATOM      2  C   UNL     1       0.907   7.949  21.058  0.00  0.00    +0.000 C 
ATOM      3  C   UNL     1       1.785   6.890  20.451  0.00  0.00    +0.000 C 
ATOM      4  O   UNL     1       2.049   5.859  21.056  0.00  0.00    +0.000 OA
ATOM      5  N   UNL     1       2.247   7.342  19.244  0.00  0.00    +0.000 N 
ATOM      6  C   UNL     1       3.111   6.656  18.407  0.00  0.00    +0.000 A 
ATOM      7  N   UNL     1       3.849   7.177  17.451  0.00  0.00    +0.000 NA
ATOM      8  C   UNL     1       4.547   6.188  16.771  0.00  0.00    +0.000 A 
ATOM      9  C   UNL     1       5.465   6.385  15.721  0.00  0.00    +0.000 A 
ATOM     10  C   UNL     1       6.070   5.283  15.105  0.00  0.00    +0.000 A 
ATOM     11  C   UNL     1       5.762   3.988  15.517  0.00  0.00    +0.000 A 
ATOM     12  C   UNL     1       4.866   3.768  16.565  0.00  0.00    +0.000 A 
ATOM     13  C   UNL     1       4.281   4.885  17.188  0.00  0.00    +0.000 A 
ATOM     14  S   UNL     1       3.187   4.941  18.508  0.00  0.00    +0.000 S 
ATOM     15  C   UNL     1       1.842   8.629  18.973  0.00  0.00    +0.000 C 
ATOM     16  O   UNL     1       2.176   9.378  18.068  0.00  0.00    +0.000 OA
ENDROOT
BRANCH   1  17
ATOM     17  C   UNL     1       0.865  10.444  20.437  0.00  0.00    +0.000 C 
BRANCH  17  22
ATOM     18  C   UNL     1      -3.560  13.105  23.191  0.00  0.00    +0.000 C 
ATOM     19  C   UNL     1      -2.463  12.373  22.473  0.00  0.00    +0.000 A 
ATOM     20  C   UNL     1      -1.569  11.550  23.162  0.00  0.00    +0.000 A 
ATOM     21  C   UNL     1      -0.526  10.911  22.480  0.00  0.00    +0.000 A 
ATOM     22  C   UNL     1      -0.352  11.070  21.094  0.00  0.00    +0.000 A 
ATOM     23  C   UNL     1      -1.251  11.897  20.413  0.00  0.00    +0.000 A 
ATOM     24  C   UNL     1      -2.297  12.536  21.094  0.00  0.00    +0.000 A 
ENDBRANCH  17  22
ENDBRANCH   1  17
TORSDOF 2
ENDMDL
MODEL 6
REMARK VINA RESULT:      -7.6      2.912      7.849
REMARK  Name = 
REMARK  3 active torsions:
REMARK  status: ('A' for Active; 'I' for Inactive)
REMARK    1  A    between atoms: C_1  and  C_2
REMARK    2  A    between atoms: C_5  and  C_6
REMARK    3  A    between atoms: C_6  and  C_7
REMARK                            x       y       z     vdW  Elec       q    Type
REMARK                         _______ _______ _______ _____ _____    ______ ____
ROOT
ATOM      1  C   UNL     1       1.038  10.301  20.115  0.00  0.00    +0.000 C 
ATOM      2  C   UNL     1       1.340  10.260  18.629  0.00  0.00    +0.000 C 
ATOM      3  C   UNL     1       1.926   8.896  18.398  0.00  0.00    +0.000 C 
ATOM      4  O   UNL     1       2.348   8.563  17.299  0.00  0.00    +0.000 OA
ATOM      5  N   UNL     1       1.799   8.163  19.548  0.00  0.00    +0.000 N 
ATOM      6  C   UNL     1       2.194   6.845  19.707  0.00  0.00    +0.000 A 
ATOM      7  N   UNL     1       1.776   6.013  20.636  0.00  0.00    +0.000 NA
ATOM      8  C   UNL     1       2.430   4.792  20.535  0.00  0.00    +0.000 A 
ATOM      9  C   UNL     1       2.202   3.653  21.334  0.00  0.00    +0.000 A 
ATOM     10  C   UNL     1       2.966   2.498  21.138  0.00  0.00    +0.000 A 
ATOM     11  C   UNL     1       3.961   2.467  20.163  0.00  0.00    +0.000 A 
ATOM     12  C   UNL     1       4.195   3.578  19.349  0.00  0.00    +0.000 A 
ATOM     13  C   UNL     1       3.407   4.725  19.545  0.00  0.00    +0.000 A 
ATOM     14  S   UNL     1       3.430   6.214  18.692  0.00  0.00    +0.000 S 
ATOM     15  C   UNL     1       1.126   8.845  20.536  0.00  0.00    +0.000 C 
ATOM     16  O   UNL     1       0.724   8.451  21.620  0.00  0.00    +0.000 OA
ENDROOT
BRANCH   1  17
ATOM     17  C   UNL     1      -0.313  10.923  20.486  0.00  0.00    +0.000 C 
BRANCH  17  22
ATOM     18  C   UNL     1      -4.543  11.062  16.445  0.00  0.00    +0.000 C 
ATOM     19  C   UNL     1      -3.420  11.056  17.441  0.00  0.00    +0.000 A 
ATOM     20  C   UNL     1      -2.528   9.985  17.521  0.00  0.00    +0.000 A 
ATOM     21  C   UNL     1      -1.512   9.979  18.487  0.00  0.00    +0.000 A 
ATOM     22  C   UNL     1      -1.358  11.044  19.391  0.00  0.00    +0.000 A 
ATOM     23  C   UNL     1      -2.256  12.112  19.304  0.00  0.00    +0.000 A 
ATOM     24  C   UNL     1      -3.272  12.120  18.337  0.00  0.00    +0.000 A 
ENDBRANCH  17  22
ENDBRANCH   1  17
TORSDOF 2
ENDMDL
MODEL 7
REMARK VINA RESULT:      -7.5      1.808      2.789
REMARK  Name = 
REMARK  3 active torsions:
REMARK  status: ('A' for Active; 'I' for Inactive)
REMARK    1  A    between atoms: C_1  and  C_2
REMARK    2  A    between atoms: C_5  and  C_6
REMARK    3  A    between atoms: C_6  and  C_7
REMARK                            x       y       z     vdW  Elec       q    Type
REMARK                         _______ _______ _______ _____ _____    ______ ____
ROOT
ATOM      1  C   UNL     1       2.499   7.088  19.320  0.00  0.00    +0.000 C 
ATOM      2  C   UNL     1       1.739   6.809  20.603  0.00  0.00    +0.000 C 
ATOM      3  C   UNL     1       1.112   8.126  20.968  0.00  0.00    +0.000 C 
ATOM      4  O   UNL     1       0.480   8.264  22.006  0.00  0.00    +0.000 OA
ATOM      5  N   UNL     1       1.308   9.005  19.936  0.00  0.00    +0.000 N 
ATOM      6  C   UNL     1       0.843  10.309  19.894  0.00  0.00    +0.000 A 
ATOM      7  N   UNL     1       0.689  11.048  18.816  0.00  0.00    +0.000 NA
ATOM      8  C   UNL     1       0.262  12.326  19.150  0.00  0.00    +0.000 A 
ATOM      9  C   UNL     1      -0.047  13.366  18.251  0.00  0.00    +0.000 A 
ATOM     10  C   UNL     1      -0.433  14.620  18.738  0.00  0.00    +0.000 A 
ATOM     11  C   UNL     1      -0.506  14.852  20.110  0.00  0.00    +0.000 A 
ATOM     12  C   UNL     1      -0.218  13.833  21.021  0.00  0.00    +0.000 A 
ATOM     13  C   UNL     1       0.151  12.573  20.518  0.00  0.00    +0.000 A 
ATOM     14  S   UNL     1       0.523  11.132  21.369  0.00  0.00    +0.000 S 
ATOM     15  C   UNL     1       1.944   8.425  18.863  0.00  0.00    +0.000 C 
ATOM     16  O   UNL     1       2.151   8.872  17.744  0.00  0.00    +0.000 OA
ENDROOT
BRANCH   1  17
ATOM     17  C   UNL     1       2.361   6.011  18.238  0.00  0.00    +0.000 C 
BRANCH  17  22
ATOM     18  C   UNL     1       6.907   4.403  14.925  0.00  0.00    +0.000 C 
ATOM     19  C   UNL     1       5.779   4.812  15.826  0.00  0.00    +0.000 A 
ATOM     20  C   UNL     1       4.910   3.867  16.374  0.00  0.00    +0.000 A 
ATOM     21  C   UNL     1       3.836   4.272  17.177  0.00  0.00    +0.000 A 
ATOM     22  C   UNL     1       3.606   5.630  17.459  0.00  0.00    +0.000 A 
ATOM     23  C   UNL     1       4.481   6.570  16.905  0.00  0.00    +0.000 A 
ATOM     24  C   UNL     1       5.557   6.165  16.103  0.00  0.00    +0.000 A 
ENDBRANCH  17  22
ENDBRANCH   1  17
TORSDOF 2
ENDMDL
MODEL 8
REMARK VINA RESULT:      -7.5      2.116      3.526
REMARK  Name = 
REMARK  3 active torsions:
REMARK  status: ('A' for Active; 'I' for Inactive)
REMARK    1  A    between atoms: C_1  and  C_2
REMARK    2  A    between atoms: C_5  and  C_6
REMARK    3  A    between atoms: C_6  and  C_7
REMARK                            x       y       z     vdW  Elec       q    Type
REMARK                         _______ _______ _______ _____ _____    ______ ____
ROOT
ATOM      1  C   UNL     1       4.321   4.498  18.423  0.00  0.00    +0.000 C 
ATOM      2  C   UNL     1       3.578   3.870  19.586  0.00  0.00    +0.000 C 
ATOM      3  C   UNL     1       2.740   4.984  20.148  0.00  0.00    +0.000 C 
ATOM      4  O   UNL     1       2.063   4.825  21.155  0.00  0.00    +0.000 OA
ATOM      5  N   UNL     1       2.823   6.062  19.308  0.00  0.00    +0.000 N 
ATOM      6  C   UNL     1       2.158   7.265  19.477  0.00  0.00    +0.000 A 
ATOM      7  N   UNL     1       1.921   8.163  18.546  0.00  0.00    +0.000 NA
ATOM      8  C   UNL     1       1.286   9.275  19.082  0.00  0.00    +0.000 A 
ATOM      9  C   UNL     1       0.842  10.408  18.371  0.00  0.00    +0.000 A 
ATOM     10  C   UNL     1       0.247  11.474  19.056  0.00  0.00    +0.000 A 
ATOM     11  C   UNL     1       0.098  11.428  20.440  0.00  0.00    +0.000 A 
ATOM     12  C   UNL     1       0.518  10.310  21.165  0.00  0.00    +0.000 A 
ATOM     13  C   UNL     1       1.097   9.239  20.463  0.00  0.00    +0.000 A 
ATOM     14  S   UNL     1       1.668   7.735  21.057  0.00  0.00    +0.000 S 
ATOM     15  C   UNL     1       3.574   5.799  18.185  0.00  0.00    +0.000 C 
ATOM     16  O   UNL     1       3.741   6.475  17.181  0.00  0.00    +0.000 OA
ENDROOT
BRANCH   1  17
ATOM     17  C   UNL     1       4.388   3.638  17.156  0.00  0.00    +0.000 C 
BRANCH  17  22
ATOM     18  C   UNL     1       8.098   5.350  12.968  0.00  0.00    +0.000 C 
ATOM     19  C   UNL     1       7.177   4.855  14.044  0.00  0.00    +0.000 A 
ATOM     20  C   UNL     1       5.977   4.211  13.733  0.00  0.00    +0.000 A 
ATOM     21  C   UNL     1       5.110   3.795  14.752  0.00  0.00    +0.000 A 
ATOM     22  C   UNL     1       5.421   4.006  16.107  0.00  0.00    +0.000 A 
ATOM     23  C   UNL     1       6.624   4.653  16.410  0.00  0.00    +0.000 A 
ATOM     24  C   UNL     1       7.493   5.067  15.390  0.00  0.00    +0.000 A 
ENDBRANCH  17  22
ENDBRANCH   1  17
TORSDOF 2
ENDMDL
MODEL 9
REMARK VINA RESULT:      -7.4      1.940      9.316
REMARK  Name = 
REMARK  3 active torsions:
REMARK  status: ('A' for Active; 'I' for Inactive)
REMARK    1  A    between atoms: C_1  and  C_2
REMARK    2  A    between atoms: C_5  and  C_6
REMARK    3  A    between atoms: C_6  and  C_7
REMARK                            x       y       z     vdW  Elec       q    Type
REMARK                         _______ _______ _______ _____ _____    ______ ____
ROOT
ATOM      1  C   UNL     1      -0.067  11.218  21.731  0.00  0.00    +0.000 C 
ATOM      2  C   UNL     1      -0.658  11.547  20.373  0.00  0.00    +0.000 C 
ATOM      3  C   UNL     1       0.030  10.608  19.421  0.00  0.00    +0.000 C 
ATOM      4  O   UNL     1      -0.171  10.664  18.216  0.00  0.00    +0.000 OA
ATOM      5  N   UNL     1       0.771   9.714  20.147  0.00  0.00    +0.000 N 
ATOM      6  C   UNL     1       1.517   8.674  19.617  0.00  0.00    +0.000 A 
ATOM      7  N   UNL     1       1.932   7.605  20.262  0.00  0.00    +0.000 NA
ATOM      8  C   UNL     1       2.709   6.802  19.437  0.00  0.00    +0.000 A 
ATOM      9  C   UNL     1       3.280   5.559  19.777  0.00  0.00    +0.000 A 
ATOM     10  C   UNL     1       4.072   4.876  18.848  0.00  0.00    +0.000 A 
ATOM     11  C   UNL     1       4.310   5.420  17.588  0.00  0.00    +0.000 A 
ATOM     12  C   UNL     1       3.743   6.643  17.222  0.00  0.00    +0.000 A 
ATOM     13  C   UNL     1       2.934   7.310  18.159  0.00  0.00    +0.000 A 
ATOM     14  S   UNL     1       2.079   8.788  17.996  0.00  0.00    +0.000 S 
ATOM     15  C   UNL     1       0.622   9.884  21.504  0.00  0.00    +0.000 C 
ATOM     16  O   UNL     1       1.021   9.188  22.426  0.00  0.00    +0.000 OA
ENDROOT
BRANCH   1  17
ATOM     17  C   UNL     1      -1.080  11.150  22.879  0.00  0.00    +0.000 C 
BRANCH  17  22
ATOM     18  C   UNL     1      -4.106  15.865  24.569  0.00  0.00    +0.000 C 
ATOM     19  C   UNL     1      -3.344  14.670  24.075  0.00  0.00    +0.000 A 
ATOM     20  C   UNL     1      -3.958  13.423  23.938  0.00  0.00    +0.000 A 
ATOM     21  C   UNL     1      -3.218  12.310  23.518  0.00  0.00    +0.000 A 
ATOM     22  C   UNL     1      -1.849  12.414  23.216  0.00  0.00    +0.000 A 
ATOM     23  C   UNL     1      -1.242  13.666  23.357  0.00  0.00    +0.000 A 
ATOM     24  C   UNL     1      -1.982  14.781  23.776  0.00  0.00    +0.000 A 
ENDBRANCH  17  22
ENDBRANCH   1  17
TORSDOF 2
ENDMDL
