MODEL 1
REMARK VINA RESULT:      -8.6      0.000      0.000
REMARK  Name = 
REMARK  5 active torsions:
REMARK  status: ('A' for Active; 'I' for Inactive)
REMARK    1  A    between atoms: C_1  and  N_2
REMARK    2  A    between atoms: C_8  and  C_9
REMARK    3  A    between atoms: C_9  and  N_11
REMARK    4  A    between atoms: C_14  and  C_15
REMARK    5  A    between atoms: C_15  and  C_16
REMARK                            x       y       z     vdW  Elec       q    Type
REMARK                         _______ _______ _______ _____ _____    ______ ____
ROOT
ATOM      1  C   UNL     1       2.701   5.313  19.856  0.00  0.00    +0.000 C 
ATOM      2  S   UNL     1       2.132   4.221  21.013  0.00  0.00    +0.000 S 
ENDROOT
BRANCH   1  10
ATOM      3  C   UNL     1       0.778  11.711  19.062  0.00  0.00    +0.000 C 
ATOM      4  N   UNL     1       0.858  10.611  19.981  0.00  0.00    +0.000 N 
ATOM      5  C   UNL     1       0.549  10.644  21.324  0.00  0.00    +0.000 A 
ATOM      6  O   UNL     1       0.114  11.604  21.945  0.00  0.00    +0.000 OA
ATOM      7  O   UNL     1       0.800   9.400  21.925  0.00  0.00    +0.000 OA
ATOM      8  C   UNL     1       1.283   8.648  20.865  0.00  0.00    +0.000 A 
ATOM      9  C   UNL     1       1.713   7.343  20.947  0.00  0.00    +0.000 A 
ATOM     10  C   UNL     1       2.176   6.724  19.770  0.00  0.00    +0.000 A 
ATOM     11  C   UNL     1       2.201   7.459  18.557  0.00  0.00    +0.000 A 
ATOM     12  C   UNL     1       1.778   8.796  18.509  0.00  0.00    +0.000 A 
ATOM     13  C   UNL     1       1.324   9.355  19.683  0.00  0.00    +0.000 A 
ENDBRANCH   1  10
BRANCH   1  14
ATOM     14  N   UNL     1       3.626   4.954  18.858  0.00  0.00    +0.000 N 
ATOM     15  C   UNL     1       3.120   4.406  17.593  0.00  0.00    +0.000 C 
ATOM     16  C   UNL     1       4.122   3.436  16.981  0.00  0.00    +0.000 C 
ATOM     17  C   UNL     1       5.502   4.088  16.780  0.00  0.00    +0.000 C 
ATOM     18  C   UNL     1       5.975   4.662  18.127  0.00  0.00    +0.000 C 
ATOM     19  C   UNL     1       4.945   5.594  18.772  0.00  0.00    +0.000 C 
BRANCH  17  20
ATOM     20  C   UNL     1       5.522   5.175  15.678  0.00  0.00    +0.000 C 
BRANCH  20  21
ATOM     21  C   UNL     1       6.084   4.701  14.359  0.00  0.00    +0.000 A 
ATOM     22  C   UNL     1       7.307   5.200  13.889  0.00  0.00    +0.000 A 
ATOM     23  C   UNL     1       7.804   4.804  12.647  0.00  0.00    +0.000 A 
ATOM     24  C   UNL     1       7.089   3.900  11.866  0.00  0.00    +0.000 A 
ATOM     25  C   UNL     1       5.884   3.378  12.332  0.00  0.00    +0.000 A 
ATOM     26  C   UNL     1       5.386   3.771  13.575  0.00  0.00    +0.000 A 
ENDBRANCH  20  21
ENDBRANCH  17  20
ENDBRANCH   1  14
TORSDOF 4
ENDMDL
MODEL 2
REMARK VINA RESULT:      -8.6      0.964      1.690
REMARK  Name = 
REMARK  5 active torsions:
REMARK  status: ('A' for Active; 'I' for Inactive)
REMARK    1  A    between atoms: C_1  and  N_2
REMARK    2  A    between atoms: C_8  and  C_9
REMARK    3  A    between atoms: C_9  and  N_11
REMARK    4  A    between atoms: C_14  and  C_15
REMARK    5  A    between atoms: C_15  and  C_16
REMARK                            x       y       z     vdW  Elec       q    Type
REMARK                         _______ _______ _______ _____ _____    ______ ____
ROOT
ATOM      1  C   UNL     1       3.132   5.798  19.277  0.00  0.00    +0.000 C 
ATOM      2  S   UNL     1       2.581   4.369  19.989  0.00  0.00    +0.000 S 
ENDROOT
BRANCH   1  10
ATOM      3  C   UNL     1       0.163  11.830  19.529  0.00  0.00    +0.000 C 
ATOM      4  N   UNL     1       0.489  10.647  20.272  0.00  0.00    +0.000 N 
ATOM      5  C   UNL     1       0.289  10.448  21.621  0.00  0.00    +0.000 A 
ATOM      6  O   UNL     1      -0.242  11.230  22.399  0.00  0.00    +0.000 OA
ATOM      7  O   UNL     1       0.781   9.195  22.021  0.00  0.00    +0.000 OA
ATOM      8  C   UNL     1       1.290   8.683  20.838  0.00  0.00    +0.000 A 
ATOM      9  C   UNL     1       1.926   7.469  20.705  0.00  0.00    +0.000 A 
ATOM     10  C   UNL     1       2.385   7.099  19.426  0.00  0.00    +0.000 A 
ATOM     11  C   UNL     1       2.195   7.983  18.333  0.00  0.00    +0.000 A 
ATOM     12  C   UNL     1       1.563   9.224  18.503  0.00  0.00    +0.000 A 
ATOM     13  C   UNL     1       1.123   9.537  19.770  0.00  0.00    +0.000 A 
ENDBRANCH   1  10
BRANCH   1  14
ATOM     14  N   UNL     1       4.262   5.846  18.439  0.00  0.00    +0.000 N 
ATOM     15  C   UNL     1       5.545   5.355  18.957  0.00  0.00    +0.000 C 
ATOM     16  C   UNL     1       6.709   6.101  18.320  0.00  0.00    +0.000 C 
ATOM     17  C   UNL     1       6.674   6.018  16.783  0.00  0.00    +0.000 C 
ATOM     18  C   UNL     1       5.305   6.523  16.296  0.00  0.00    +0.000 C 
ATOM     19  C   UNL     1       4.131   5.814  16.976  0.00  0.00    +0.000 C 
BRANCH  17  20
ATOM     20  C   UNL     1       6.969   4.603  16.230  0.00  0.00    +0.000 C 
BRANCH  20  21
ATOM     21  C   UNL     1       6.928   4.513  14.723  0.00  0.00    +0.000 A 
ATOM     22  C   UNL     1       6.051   3.620  14.090  0.00  0.00    +0.000 A 
ATOM     23  C   UNL     1       6.048   3.497  12.700  0.00  0.00    +0.000 A 
ATOM     24  C   UNL     1       6.913   4.269  11.929  0.00  0.00    +0.000 A 
ATOM     25  C   UNL     1       7.771   5.176  12.545  0.00  0.00    +0.000 A 
ATOM     26  C   UNL     1       7.776   5.303  13.934  0.00  0.00    +0.000 A 
ENDBRANCH  20  21
ENDBRANCH  17  20
ENDBRANCH   1  14
TORSDOF 4
ENDMDL
MODEL 3
REMARK VINA RESULT:      -8.4      1.387      2.080
REMARK  Name = 
REMARK  5 active torsions:
REMARK  status: ('A' for Active; 'I' for Inactive)
REMARK    1  A    between atoms: C_1  and  N_2
REMARK    2  A    between atoms: C_8  and  C_9
REMARK    3  A    between atoms: C_9  and  N_11
REMARK    4  A    between atoms: C_14  and  C_15
REMARK    5  A    between atoms: C_15  and  C_16
REMARK                            x       y       z     vdW  Elec       q    Type
REMARK                         _______ _______ _______ _____ _____    ______ ____
ROOT
ATOM      1  C   UNL     1       3.126   5.502  19.249  0.00  0.00    +0.000 C 
ATOM      2  S   UNL     1       2.548   3.995  19.750  0.00  0.00    +0.000 S 
ENDROOT
BRANCH   1  10
ATOM      3  C   UNL     1      -0.402  10.889  21.196  0.00  0.00    +0.000 C 
ATOM      4  N   UNL     1       0.433  10.338  20.168  0.00  0.00    +0.000 N 
ATOM      5  C   UNL     1       0.723  10.919  18.952  0.00  0.00    +0.000 A 
ATOM      6  O   UNL     1       0.350  12.019  18.566  0.00  0.00    +0.000 OA
ATOM      7  O   UNL     1       1.527  10.072  18.172  0.00  0.00    +0.000 OA
ATOM      8  C   UNL     1       1.677   8.965  18.992  0.00  0.00    +0.000 A 
ATOM      9  C   UNL     1       2.366   7.819  18.664  0.00  0.00    +0.000 A 
ATOM     10  C   UNL     1       2.422   6.784  19.616  0.00  0.00    +0.000 A 
ATOM     11  C   UNL     1       1.763   6.945  20.862  0.00  0.00    +0.000 A 
ATOM     12  C   UNL     1       1.050   8.115  21.161  0.00  0.00    +0.000 A 
ATOM     13  C   UNL     1       1.031   9.103  20.201  0.00  0.00    +0.000 A 
ENDBRANCH   1  10
BRANCH   1  14
ATOM     14  N   UNL     1       4.236   5.649  18.396  0.00  0.00    +0.000 N 
ATOM     15  C   UNL     1       5.570   5.321  18.915  0.00  0.00    +0.000 C 
ATOM     16  C   UNL     1       6.638   6.173  18.241  0.00  0.00    +0.000 C 
ATOM     17  C   UNL     1       6.600   6.034  16.708  0.00  0.00    +0.000 C 
ATOM     18  C   UNL     1       5.178   6.366  16.221  0.00  0.00    +0.000 C 
ATOM     19  C   UNL     1       4.097   5.553  16.937  0.00  0.00    +0.000 C 
BRANCH  17  20
ATOM     20  C   UNL     1       7.047   4.644  16.197  0.00  0.00    +0.000 C 
BRANCH  20  21
ATOM     21  C   UNL     1       6.995   4.496  14.695  0.00  0.00    +0.000 A 
ATOM     22  C   UNL     1       7.824   5.279  13.877  0.00  0.00    +0.000 A 
ATOM     23  C   UNL     1       7.741   5.183  12.487  0.00  0.00    +0.000 A 
ATOM     24  C   UNL     1       6.838   4.301  11.901  0.00  0.00    +0.000 A 
ATOM     25  C   UNL     1       6.027   3.501  12.703  0.00  0.00    +0.000 A 
ATOM     26  C   UNL     1       6.108   3.593  14.093  0.00  0.00    +0.000 A 
ENDBRANCH  20  21
ENDBRANCH  17  20
ENDBRANCH   1  14
TORSDOF 4
ENDMDL
MODEL 4
REMARK VINA RESULT:      -7.9      1.236      1.907
REMARK  Name = 
REMARK  5 active torsions:
REMARK  status: ('A' for Active; 'I' for Inactive)
REMARK    1  A    between atoms: C_1  and  N_2
REMARK    2  A    between atoms: C_8  and  C_9
REMARK    3  A    between atoms: C_9  and  N_11
REMARK    4  A    between atoms: C_14  and  C_15
REMARK    5  A    between atoms: C_15  and  C_16
REMARK                            x       y       z     vdW  Elec       q    Type
REMARK                         _______ _______ _______ _____ _____    ______ ____
ROOT
ATOM      1  C   UNL     1       2.371   5.095  19.890  0.00  0.00    +0.000 C 
ATOM      2  S   UNL     1       1.584   3.905  20.795  0.00  0.00    +0.000 S 
ENDROOT
BRANCH   1  10
ATOM      3  C   UNL     1       0.217  11.420  20.672  0.00  0.00    +0.000 C 
ATOM      4  N   UNL     1       0.963  10.527  19.834  0.00  0.00    +0.000 N 
ATOM      5  C   UNL     1       1.494  10.819  18.595  0.00  0.00    +0.000 A 
ATOM      6  O   UNL     1       1.453  11.901  18.026  0.00  0.00    +0.000 OA
ATOM      7  O   UNL     1       2.112   9.688  18.036  0.00  0.00    +0.000 OA
ATOM      8  C   UNL     1       1.900   8.722  19.008  0.00  0.00    +0.000 A 
ATOM      9  C   UNL     1       2.292   7.405  18.918  0.00  0.00    +0.000 A 
ATOM     10  C   UNL     1       1.998   6.552  19.998  0.00  0.00    +0.000 A 
ATOM     11  C   UNL     1       1.302   7.065  21.123  0.00  0.00    +0.000 A 
ATOM     12  C   UNL     1       0.895   8.406  21.178  0.00  0.00    +0.000 A 
ATOM     13  C   UNL     1       1.214   9.204  20.101  0.00  0.00    +0.000 A 
ENDBRANCH   1  10
BRANCH   1  14
ATOM     14  N   UNL     1       3.354   4.797  18.927  0.00  0.00    +0.000 N 
ATOM     15  C   UNL     1       2.922   4.355  17.595  0.00  0.00    +0.000 C 
ATOM     16  C   UNL     1       3.949   3.416  16.975  0.00  0.00    +0.000 C 
ATOM     17  C   UNL     1       5.347   4.057  16.911  0.00  0.00    +0.000 C 
ATOM     18  C   UNL     1       5.740   4.520  18.325  0.00  0.00    +0.000 C 
ATOM     19  C   UNL     1       4.684   5.418  18.974  0.00  0.00    +0.000 C 
BRANCH  17  20
ATOM     20  C   UNL     1       5.452   5.224  15.900  0.00  0.00    +0.000 C 
BRANCH  20  21
ATOM     21  C   UNL     1       6.011   4.821  14.556  0.00  0.00    +0.000 A 
ATOM     22  C   UNL     1       5.323   3.904  13.748  0.00  0.00    +0.000 A 
ATOM     23  C   UNL     1       5.863   3.491  12.529  0.00  0.00    +0.000 A 
ATOM     24  C   UNL     1       7.089   3.994  12.102  0.00  0.00    +0.000 A 
ATOM     25  C   UNL     1       7.769   4.924  12.885  0.00  0.00    +0.000 A 
ATOM     26  C   UNL     1       7.232   5.341  14.102  0.00  0.00    +0.000 A 
ENDBRANCH  20  21
ENDBRANCH  17  20
ENDBRANCH   1  14
TORSDOF 4
ENDMDL
MODEL 5
REMARK VINA RESULT:      -7.5      4.012      6.101
REMARK  Name = 
REMARK  5 active torsions:
REMARK  status: ('A' for Active; 'I' for Inactive)
REMARK    1  A    between atoms: C_1  and  N_2
REMARK    2  A    between atoms: C_8  and  C_9
REMARK    3  A    between atoms: C_9  and  N_11
REMARK    4  A    between atoms: C_14  and  C_15
REMARK    5  A    between atoms: C_15  and  C_16
REMARK                            x       y       z     vdW  Elec       q    Type
REMARK                         _______ _______ _______ _____ _____    ______ ____
ROOT
ATOM      1  C   UNL     1       0.609  10.455  19.755  0.00  0.00    +0.000 C 
ATOM      2  S   UNL     1       1.092  11.403  21.067  0.00  0.00    +0.000 S 
ENDROOT
BRANCH   1  10
ATOM      3  C   UNL     1      -5.274  11.836  16.796  0.00  0.00    +0.000 C 
ATOM      4  N   UNL     1      -4.004  11.185  16.644  0.00  0.00    +0.000 N 
ATOM      5  C   UNL     1      -3.614  10.392  15.587  0.00  0.00    +0.000 A 
ATOM      6  O   UNL     1      -4.269  10.147  14.583  0.00  0.00    +0.000 OA
ATOM      7  O   UNL     1      -2.326   9.874  15.799  0.00  0.00    +0.000 OA
ATOM      8  C   UNL     1      -1.995  10.396  17.039  0.00  0.00    +0.000 A 
ATOM      9  C   UNL     1      -0.823  10.149  17.720  0.00  0.00    +0.000 A 
ATOM     10  C   UNL     1      -0.645  10.761  18.975  0.00  0.00    +0.000 A 
ATOM     11  C   UNL     1      -1.671  11.588  19.500  0.00  0.00    +0.000 A 
ATOM     12  C   UNL     1      -2.864  11.804  18.795  0.00  0.00    +0.000 A 
ATOM     13  C   UNL     1      -2.988  11.192  17.567  0.00  0.00    +0.000 A 
ENDBRANCH   1  10
BRANCH   1  14
ATOM     14  N   UNL     1       1.289   9.286  19.366  0.00  0.00    +0.000 N 
ATOM     15  C   UNL     1       1.071   8.055  20.137  0.00  0.00    +0.000 C 
ATOM     16  C   UNL     1       2.312   7.173  20.112  0.00  0.00    +0.000 C 
ATOM     17  C   UNL     1       2.754   6.845  18.675  0.00  0.00    +0.000 C 
ATOM     18  C   UNL     1       2.947   8.165  17.908  0.00  0.00    +0.000 C 
ATOM     19  C   UNL     1       1.722   9.080  17.978  0.00  0.00    +0.000 C 
BRANCH  17  20
ATOM     20  C   UNL     1       1.781   5.906  17.922  0.00  0.00    +0.000 C 
BRANCH  20  21
ATOM     21  C   UNL     1       2.073   4.437  18.117  0.00  0.00    +0.000 A 
ATOM     22  C   UNL     1       1.275   3.663  18.972  0.00  0.00    +0.000 A 
ATOM     23  C   UNL     1       1.573   2.318  19.194  0.00  0.00    +0.000 A 
ATOM     24  C   UNL     1       2.665   1.731  18.560  0.00  0.00    +0.000 A 
ATOM     25  C   UNL     1       3.451   2.484  17.690  0.00  0.00    +0.000 A 
ATOM     26  C   UNL     1       3.154   3.828  17.464  0.00  0.00    +0.000 A 
ENDBRANCH  20  21
ENDBRANCH  17  20
ENDBRANCH   1  14
TORSDOF 4
ENDMDL
MODEL 6
REMARK VINA RESULT:      -7.4      4.268      5.816
REMARK  Name = 
REMARK  5 active torsions:
REMARK  status: ('A' for Active; 'I' for Inactive)
REMARK    1  A    between atoms: C_1  and  N_2
REMARK    2  A    between atoms: C_8  and  C_9
REMARK    3  A    between atoms: C_9  and  N_11
REMARK    4  A    between atoms: C_14  and  C_15
REMARK    5  A    between atoms: C_15  and  C_16
REMARK                            x       y       z     vdW  Elec       q    Type
REMARK                         _______ _______ _______ _____ _____    ______ ____
ROOT
ATOM      1  C   UNL     1       1.051  10.763  18.554  0.00  0.00    +0.000 C 
ATOM      2  S   UNL     1       2.033  12.131  18.421  0.00  0.00    +0.000 S 
ENDROOT
BRANCH   1  10
ATOM      3  C   UNL     1      -5.628  11.109  17.816  0.00  0.00    +0.000 C 
ATOM      4  N   UNL     1      -4.505  11.554  18.590  0.00  0.00    +0.000 N 
ATOM      5  C   UNL     1      -4.528  12.492  19.601  0.00  0.00    +0.000 A 
ATOM      6  O   UNL     1      -5.518  13.067  20.033  0.00  0.00    +0.000 OA
ATOM      7  O   UNL     1      -3.236  12.723  20.099  0.00  0.00    +0.000 OA
ATOM      8  C   UNL     1      -2.460  11.882  19.317  0.00  0.00    +0.000 A 
ATOM      9  C   UNL     1      -1.090  11.765  19.392  0.00  0.00    +0.000 A 
ATOM     10  C   UNL     1      -0.454  10.860  18.521  0.00  0.00    +0.000 A 
ATOM     11  C   UNL     1      -1.232  10.119  17.595  0.00  0.00    +0.000 A 
ATOM     12  C   UNL     1      -2.624  10.275  17.525  0.00  0.00    +0.000 A 
ATOM     13  C   UNL     1      -3.201  11.165  18.404  0.00  0.00    +0.000 A 
ENDBRANCH   1  10
BRANCH   1  14
ATOM     14  N   UNL     1       1.564   9.474  18.788  0.00  0.00    +0.000 N 
ATOM     15  C   UNL     1       0.981   8.669  19.869  0.00  0.00    +0.000 C 
ATOM     16  C   UNL     1       2.019   7.728  20.467  0.00  0.00    +0.000 C 
ATOM     17  C   UNL     1       2.658   6.824  19.397  0.00  0.00    +0.000 C 
ATOM     18  C   UNL     1       3.234   7.715  18.282  0.00  0.00    +0.000 C 
ATOM     19  C   UNL     1       2.208   8.701  17.717  0.00  0.00    +0.000 C 
BRANCH  17  20
ATOM     20  C   UNL     1       1.689   5.768  18.815  0.00  0.00    +0.000 C 
BRANCH  20  21
ATOM     21  C   UNL     1       2.281   4.382  18.715  0.00  0.00    +0.000 A 
ATOM     22  C   UNL     1       3.365   4.014  19.526  0.00  0.00    +0.000 A 
ATOM     23  C   UNL     1       3.948   2.752  19.399  0.00  0.00    +0.000 A 
ATOM     24  C   UNL     1       3.450   1.844  18.468  0.00  0.00    +0.000 A 
ATOM     25  C   UNL     1       2.359   2.190  17.674  0.00  0.00    +0.000 A 
ATOM     26  C   UNL     1       1.773   3.449  17.800  0.00  0.00    +0.000 A 
ENDBRANCH  20  21
ENDBRANCH  17  20
ENDBRANCH   1  14
TORSDOF 4
ENDMDL
MODEL 7
REMARK VINA RESULT:      -7.4      3.620      5.150
REMARK  Name = 
REMARK  5 active torsions:
REMARK  status: ('A' for Active; 'I' for Inactive)
REMARK    1  A    between atoms: C_1  and  N_2
REMARK    2  A    between atoms: C_8  and  C_9
REMARK    3  A    between atoms: C_9  and  N_11
REMARK    4  A    between atoms: C_14  and  C_15
REMARK    5  A    between atoms: C_15  and  C_16
REMARK                            x       y       z     vdW  Elec       q    Type
REMARK                         _______ _______ _______ _____ _____    ______ ____
ROOT
ATOM      1  C   UNL     1       0.643   9.960  19.919  0.00  0.00    +0.000 C 
ATOM      2  S   UNL     1       1.005  10.672  21.408  0.00  0.00    +0.000 S 
ENDROOT
BRANCH   1  10
ATOM      3  C   UNL     1      -4.980  11.925  16.791  0.00  0.00    +0.000 C 
ATOM      4  N   UNL     1      -3.779  11.148  16.676  0.00  0.00    +0.000 N 
ATOM      5  C   UNL     1      -3.442  10.316  15.630  0.00  0.00    +0.000 A 
ATOM      6  O   UNL     1      -4.090  10.137  14.608  0.00  0.00    +0.000 OA
ATOM      7  O   UNL     1      -2.220   9.670  15.879  0.00  0.00    +0.000 OA
ATOM      8  C   UNL     1      -1.874  10.159  17.129  0.00  0.00    +0.000 A 
ATOM      9  C   UNL     1      -0.753   9.796  17.843  0.00  0.00    +0.000 A 
ATOM     10  C   UNL     1      -0.550  10.390  19.103  0.00  0.00    +0.000 A 
ATOM     11  C   UNL     1      -1.500  11.319  19.598  0.00  0.00    +0.000 A 
ATOM     12  C   UNL     1      -2.644  11.654  18.859  0.00  0.00    +0.000 A 
ATOM     13  C   UNL     1      -2.795  11.053  17.628  0.00  0.00    +0.000 A 
ENDBRANCH   1  10
BRANCH   1  14
ATOM     14  N   UNL     1       1.372   8.877  19.394  0.00  0.00    +0.000 N 
ATOM     15  C   UNL     1       2.165   9.086  18.176  0.00  0.00    +0.000 C 
ATOM     16  C   UNL     1       2.257   7.803  17.360  0.00  0.00    +0.000 C 
ATOM     17  C   UNL     1       2.826   6.636  18.188  0.00  0.00    +0.000 C 
ATOM     18  C   UNL     1       1.974   6.475  19.459  0.00  0.00    +0.000 C 
ATOM     19  C   UNL     1       1.832   7.777  20.252  0.00  0.00    +0.000 C 
BRANCH  17  20
ATOM     20  C   UNL     1       4.323   6.799  18.544  0.00  0.00    +0.000 C 
BRANCH  20  21
ATOM     21  C   UNL     1       5.254   6.005  17.658  0.00  0.00    +0.000 A 
ATOM     22  C   UNL     1       6.351   5.327  18.209  0.00  0.00    +0.000 A 
ATOM     23  C   UNL     1       7.242   4.636  17.386  0.00  0.00    +0.000 A 
ATOM     24  C   UNL     1       7.043   4.610  16.008  0.00  0.00    +0.000 A 
ATOM     25  C   UNL     1       5.943   5.260  15.452  0.00  0.00    +0.000 A 
ATOM     26  C   UNL     1       5.049   5.949  16.272  0.00  0.00    +0.000 A 
ENDBRANCH  20  21
ENDBRANCH  17  20
ENDBRANCH   1  14
TORSDOF 4
ENDMDL
MODEL 8
REMARK VINA RESULT:      -7.3      1.068      1.597
REMARK  Name = 
REMARK  5 active torsions:
REMARK  status: ('A' for Active; 'I' for Inactive)
REMARK    1  A    between atoms: C_1  and  N_2
REMARK    2  A    between atoms: C_8  and  C_9
REMARK    3  A    between atoms: C_9  and  N_11
REMARK    4  A    between atoms: C_14  and  C_15
REMARK    5  A    between atoms: C_15  and  C_16
REMARK                            x       y       z     vdW  Elec       q    Type
REMARK                         _______ _______ _______ _____ _____    ______ ____
ROOT
ATOM      1  C   UNL     1       3.217   5.099  18.709  0.00  0.00    +0.000 C 
ATOM      2  S   UNL     1       2.718   3.747  19.592  0.00  0.00    +0.000 S 
ENDROOT
BRANCH   1  10
ATOM      3  C   UNL     1       0.703  11.327  19.108  0.00  0.00    +0.000 C 
ATOM      4  N   UNL     1       0.994  10.126  19.838  0.00  0.00    +0.000 N 
ATOM      5  C   UNL     1       0.869   9.947  21.199  0.00  0.00    +0.000 A 
ATOM      6  O   UNL     1       0.448  10.767  22.003  0.00  0.00    +0.000 OA
ATOM      7  O   UNL     1       1.297   8.663  21.575  0.00  0.00    +0.000 OA
ATOM      8  C   UNL     1       1.689   8.113  20.365  0.00  0.00    +0.000 A 
ATOM      9  C   UNL     1       2.228   6.856  20.200  0.00  0.00    +0.000 A 
ATOM     10  C   UNL     1       2.575   6.451  18.897  0.00  0.00    +0.000 A 
ATOM     11  C   UNL     1       2.375   7.342  17.812  0.00  0.00    +0.000 A 
ATOM     12  C   UNL     1       1.845   8.625  18.013  0.00  0.00    +0.000 A 
ATOM     13  C   UNL     1       1.513   8.973  19.304  0.00  0.00    +0.000 A 
ENDBRANCH   1  10
BRANCH   1  14
ATOM     14  N   UNL     1       4.190   5.032  17.695  0.00  0.00    +0.000 N 
ATOM     15  C   UNL     1       4.157   3.900  16.761  0.00  0.00    +0.000 C 
ATOM     16  C   UNL     1       5.557   3.560  16.269  0.00  0.00    +0.000 C 
ATOM     17  C   UNL     1       6.251   4.776  15.627  0.00  0.00    +0.000 C 
ATOM     18  C   UNL     1       6.239   5.937  16.637  0.00  0.00    +0.000 C 
ATOM     19  C   UNL     1       4.840   6.243  17.178  0.00  0.00    +0.000 C 
BRANCH  17  20
ATOM     20  C   UNL     1       5.625   5.210  14.280  0.00  0.00    +0.000 C 
BRANCH  20  21
ATOM     21  C   UNL     1       5.784   4.194  13.175  0.00  0.00    +0.000 A 
ATOM     22  C   UNL     1       4.655   3.648  12.546  0.00  0.00    +0.000 A 
ATOM     23  C   UNL     1       4.797   2.670  11.560  0.00  0.00    +0.000 A 
ATOM     24  C   UNL     1       6.065   2.233  11.188  0.00  0.00    +0.000 A 
ATOM     25  C   UNL     1       7.195   2.785  11.789  0.00  0.00    +0.000 A 
ATOM     26  C   UNL     1       7.056   3.764  12.772  0.00  0.00    +0.000 A 
ENDBRANCH  20  21
ENDBRANCH  17  20
ENDBRANCH   1  14
TORSDOF 4
ENDMDL
MODEL 9
REMARK VINA RESULT:      -7.3      3.640      5.668
REMARK  Name = 
REMARK  5 active torsions:
REMARK  status: ('A' for Active; 'I' for Inactive)
REMARK    1  A    between atoms: C_1  and  N_2
REMARK    2  A    between atoms: C_8  and  C_9
REMARK    3  A    between atoms: C_9  and  N_11
REMARK    4  A    between atoms: C_14  and  C_15
REMARK    5  A    between atoms: C_15  and  C_16
REMARK                            x       y       z     vdW  Elec       q    Type
REMARK                         _______ _______ _______ _____ _____    ______ ____
ROOT
ATOM      1  C   UNL     1       0.496  10.845  19.111  0.00  0.00    +0.000 C 
ATOM      2  S   UNL     1      -1.177  11.003  18.936  0.00  0.00    +0.000 S 
ENDROOT
BRANCH   1  10
ATOM      3  C   UNL     1       4.839  15.944  19.742  0.00  0.00    +0.000 C 
ATOM      4  N   UNL     1       3.844  15.157  20.411  0.00  0.00    +0.000 N 
ATOM      5  C   UNL     1       3.510  15.224  21.747  0.00  0.00    +0.000 A 
ATOM      6  O   UNL     1       3.976  15.998  22.572  0.00  0.00    +0.000 OA
ATOM      7  O   UNL     1       2.534  14.267  22.067  0.00  0.00    +0.000 OA
ATOM      8  C   UNL     1       2.330  13.631  20.853  0.00  0.00    +0.000 A 
ATOM      9  C   UNL     1       1.475  12.572  20.643  0.00  0.00    +0.000 A 
ATOM     10  C   UNL     1       1.386  12.040  19.343  0.00  0.00    +0.000 A 
ATOM     11  C   UNL     1       2.180  12.594  18.306  0.00  0.00    +0.000 A 
ATOM     12  C   UNL     1       3.059  13.659  18.553  0.00  0.00    +0.000 A 
ATOM     13  C   UNL     1       3.104  14.151  19.840  0.00  0.00    +0.000 A 
ENDBRANCH   1  10
BRANCH   1  14
ATOM     14  N   UNL     1       1.166   9.616  18.968  0.00  0.00    +0.000 N 
ATOM     15  C   UNL     1       0.885   8.544  19.932  0.00  0.00    +0.000 C 
ATOM     16  C   UNL     1       2.105   7.653  20.125  0.00  0.00    +0.000 C 
ATOM     17  C   UNL     1       2.606   7.069  18.791  0.00  0.00    +0.000 C 
ATOM     18  C   UNL     1       2.864   8.230  17.814  0.00  0.00    +0.000 C 
ATOM     19  C   UNL     1       1.658   9.161  17.661  0.00  0.00    +0.000 C 
BRANCH  17  20
ATOM     20  C   UNL     1       1.647   6.027  18.169  0.00  0.00    +0.000 C 
BRANCH  20  21
ATOM     21  C   UNL     1       2.222   4.632  18.094  0.00  0.00    +0.000 A 
ATOM     22  C   UNL     1       3.543   4.433  17.666  0.00  0.00    +0.000 A 
ATOM     23  C   UNL     1       4.061   3.143  17.546  0.00  0.00    +0.000 A 
ATOM     24  C   UNL     1       3.270   2.041  17.857  0.00  0.00    +0.000 A 
ATOM     25  C   UNL     1       1.964   2.228  18.305  0.00  0.00    +0.000 A 
ATOM     26  C   UNL     1       1.444   3.516  18.429  0.00  0.00    +0.000 A 
ENDBRANCH  20  21
ENDBRANCH  17  20
ENDBRANCH   1  14
TORSDOF 4
ENDMDL
