MODEL 1
REMARK VINA RESULT:      -8.2      0.000      0.000
REMARK  Name = 
REMARK  9 active torsions:
REMARK  status: ('A' for Active; 'I' for Inactive)
REMARK    1  A    between atoms: C_2  and  C_11
REMARK    2  A    between atoms: N_3  and  C_4
REMARK    3  A    between atoms: C_4  and  C_5
REMARK    4  A    between atoms: C_13  and  C_14
REMARK    5  A    between atoms: C_24  and  O_25
REMARK    6  A    between atoms: O_25  and  C_26
REMARK    7  A    between atoms: C_26  and  C_27
REMARK    8  A    between atoms: C_30  and  C_31
REMARK    9  A    between atoms: C_31  and  O_32
REMARK                            x       y       z     vdW  Elec       q    Type
REMARK                         _______ _______ _______ _____ _____    ______ ____
ROOT
ATOM      1  C   UNL     1       0.837  10.114  20.428  0.00  0.00    +0.000 C 
ATOM      2  C   UNL     1       0.282  10.055  19.211  0.00  0.00    +0.000 C 
ATOM      3  C   UNL     1      -0.302  11.235  18.458  0.00  0.00    +0.000 C 
ATOM      4  C   UNL     1       0.362  12.490  19.003  0.00  0.00    +0.000 C 
ATOM      5  C   UNL     1       0.521  12.473  20.525  0.00  0.00    +0.000 C 
ATOM      6  O   UNL     1       1.110  11.292  21.082  0.00  0.00    +0.000 OA
ENDROOT
BRANCH   3   7
ATOM      7  C   UNL     1      -1.822  11.003  18.190  0.00  0.00    +0.000 A 
ATOM      8  C   UNL     1      -2.183   9.918  17.380  0.00  0.00    +0.000 A 
ATOM      9  S   UNL     1      -3.123  10.583  16.111  0.00  0.00    +0.000 S 
ATOM     10  C   UNL     1      -3.937  11.488  17.318  0.00  0.00    +0.000 A 
ATOM     11  C   UNL     1      -5.249  11.975  17.182  0.00  0.00    +0.000 A 
ATOM     12  C   UNL     1      -5.883  12.425  18.324  0.00  0.00    +0.000 A 
ATOM     13  C   UNL     1      -5.167  12.549  19.506  0.00  0.00    +0.000 A 
ATOM     14  C   UNL     1      -3.782  12.238  19.582  0.00  0.00    +0.000 A 
ATOM     15  C   UNL     1      -3.130  11.619  18.478  0.00  0.00    +0.000 A 
ENDBRANCH   3   7
BRANCH   1  17
ATOM     16  O   UNL     1       0.854   8.669  22.351  0.00  0.00    +0.000 OA
ATOM     17  C   UNL     1       1.069   8.805  21.151  0.00  0.00    +0.000 C 
ATOM     18  N   UNL     1       1.622   7.828  20.361  0.00  0.00    +0.000 N 
ATOM     19  H   UNL     1       1.771   8.033  19.383  0.00  0.00    +0.000 HD
BRANCH  18  20
ATOM     20  C   UNL     1       2.123   6.582  20.899  0.00  0.00    +0.000 C 
BRANCH  20  21
ATOM     21  C   UNL     1       1.826   5.421  19.984  0.00  0.00    +0.000 A 
ATOM     22  C   UNL     1       2.170   5.460  18.625  0.00  0.00    +0.000 A 
ATOM     23  C   UNL     1       1.890   4.375  17.790  0.00  0.00    +0.000 A 
ATOM     24  C   UNL     1       1.268   3.238  18.311  0.00  0.00    +0.000 A 
ATOM     25  C   UNL     1       0.918   3.190  19.659  0.00  0.00    +0.000 A 
ATOM     26  C   UNL     1       1.193   4.276  20.492  0.00  0.00    +0.000 A 
ENDBRANCH  20  21
ENDBRANCH  18  20
ENDBRANCH   1  17
BRANCH   5  27
ATOM     27  O   UNL     1      -0.760  12.722  21.069  0.00  0.00    +0.000 OA
BRANCH  27  28
ATOM     28  C   UNL     1      -0.771  12.691  22.485  0.00  0.00    +0.000 C 
BRANCH  28  29
ATOM     29  C   UNL     1      -2.146  13.159  22.840  0.00  0.00    +0.000 A 
ATOM     30  C   UNL     1      -3.055  12.291  23.453  0.00  0.00    +0.000 A 
ATOM     31  C   UNL     1      -4.378  12.671  23.635  0.00  0.00    +0.000 A 
ATOM     32  C   UNL     1      -4.816  13.925  23.200  0.00  0.00    +0.000 A 
ATOM     33  C   UNL     1      -3.916  14.792  22.568  0.00  0.00    +0.000 A 
ATOM     34  C   UNL     1      -2.578  14.425  22.393  0.00  0.00    +0.000 A 
BRANCH  32  35
ATOM     35  C   UNL     1      -6.279  14.293  23.313  0.00  0.00    +0.000 C 
BRANCH  35  36
ATOM     36  O   UNL     1      -6.856  13.808  24.517  0.00  0.00    +0.000 OA
ATOM     37  H   UNL     1      -7.282  12.964  24.307  0.00  0.00    +0.000 HD
ENDBRANCH  35  36
ENDBRANCH  32  35
ENDBRANCH  28  29
ENDBRANCH  27  28
ENDBRANCH   5  27
TORSDOF 9
ENDMDL
MODEL 2
REMARK VINA RESULT:      -8.1      3.227      5.898
REMARK  Name = 
REMARK  9 active torsions:
REMARK  status: ('A' for Active; 'I' for Inactive)
REMARK    1  A    between atoms: C_2  and  C_11
REMARK    2  A    between atoms: N_3  and  C_4
REMARK    3  A    between atoms: C_4  and  C_5
REMARK    4  A    between atoms: C_13  and  C_14
REMARK    5  A    between atoms: C_24  and  O_25
REMARK    6  A    between atoms: O_25  and  C_26
REMARK    7  A    between atoms: C_26  and  C_27
REMARK    8  A    between atoms: C_30  and  C_31
REMARK    9  A    between atoms: C_31  and  O_32
REMARK                            x       y       z     vdW  Elec       q    Type
REMARK                         _______ _______ _______ _____ _____    ______ ____
ROOT
ATOM      1  C   UNL     1       1.144   9.925  19.192  0.00  0.00    +0.000 C 
ATOM      2  C   UNL     1       1.781  11.054  19.529  0.00  0.00    +0.000 C 
ATOM      3  C   UNL     1       1.114  12.308  20.062  0.00  0.00    +0.000 C 
ATOM      4  C   UNL     1      -0.206  11.885  20.689  0.00  0.00    +0.000 C 
ATOM      5  C   UNL     1      -0.953  10.834  19.865  0.00  0.00    +0.000 C 
ATOM      6  O   UNL     1      -0.186   9.696  19.454  0.00  0.00    +0.000 OA
ENDROOT
BRANCH   3   7
ATOM      7  C   UNL     1       1.365  13.504  19.092  0.00  0.00    +0.000 A 
ATOM      8  C   UNL     1       2.410  13.384  18.166  0.00  0.00    +0.000 A 
ATOM      9  S   UNL     1       3.424  14.739  18.435  0.00  0.00    +0.000 S 
ATOM     10  C   UNL     1       1.989  15.678  18.495  0.00  0.00    +0.000 A 
ATOM     11  C   UNL     1       1.938  17.051  18.198  0.00  0.00    +0.000 A 
ATOM     12  C   UNL     1       0.692  17.614  17.999  0.00  0.00    +0.000 A 
ATOM     13  C   UNL     1      -0.450  16.871  18.265  0.00  0.00    +0.000 A 
ATOM     14  C   UNL     1      -0.382  15.538  18.757  0.00  0.00    +0.000 A 
ATOM     15  C   UNL     1       0.872  14.867  18.821  0.00  0.00    +0.000 A 
ENDBRANCH   3   7
BRANCH   1  17
ATOM     16  O   UNL     1       2.127   9.039  17.183  0.00  0.00    +0.000 OA
ATOM     17  C   UNL     1       1.917   8.906  18.384  0.00  0.00    +0.000 C 
ATOM     18  N   UNL     1       2.272   7.788  19.099  0.00  0.00    +0.000 N 
ATOM     19  H   UNL     1       2.050   7.762  20.085  0.00  0.00    +0.000 HD
BRANCH  18  20
ATOM     20  C   UNL     1       2.821   6.605  18.474  0.00  0.00    +0.000 C 
BRANCH  20  21
ATOM     21  C   UNL     1       2.186   5.347  19.009  0.00  0.00    +0.000 A 
ATOM     22  C   UNL     1       2.093   5.110  20.388  0.00  0.00    +0.000 A 
ATOM     23  C   UNL     1       1.499   3.939  20.868  0.00  0.00    +0.000 A 
ATOM     24  C   UNL     1       0.988   2.999  19.971  0.00  0.00    +0.000 A 
ATOM     25  C   UNL     1       1.078   3.223  18.599  0.00  0.00    +0.000 A 
ATOM     26  C   UNL     1       1.676   4.390  18.118  0.00  0.00    +0.000 A 
ENDBRANCH  20  21
ENDBRANCH  18  20
ENDBRANCH   1  17
BRANCH   5  27
ATOM     27  O   UNL     1      -1.513  11.511  18.757  0.00  0.00    +0.000 OA
BRANCH  27  28
ATOM     28  C   UNL     1      -2.924  11.402  18.703  0.00  0.00    +0.000 C 
BRANCH  28  29
ATOM     29  C   UNL     1      -3.187  10.877  17.327  0.00  0.00    +0.000 A 
ATOM     30  C   UNL     1      -2.302   9.976  16.730  0.00  0.00    +0.000 A 
ATOM     31  C   UNL     1      -2.457   9.615  15.398  0.00  0.00    +0.000 A 
ATOM     32  C   UNL     1      -3.498  10.157  14.639  0.00  0.00    +0.000 A 
ATOM     33  C   UNL     1      -4.377  11.075  15.225  0.00  0.00    +0.000 A 
ATOM     34  C   UNL     1      -4.239  11.433  16.570  0.00  0.00    +0.000 A 
BRANCH  32  35
ATOM     35  C   UNL     1      -3.602   9.835  13.164  0.00  0.00    +0.000 C 
BRANCH  35  36
ATOM     36  O   UNL     1      -2.331   9.563  12.590  0.00  0.00    +0.000 OA
ATOM     37  H   UNL     1      -2.134  10.292  11.984  0.00  0.00    +0.000 HD
ENDBRANCH  35  36
ENDBRANCH  32  35
ENDBRANCH  28  29
ENDBRANCH  27  28
ENDBRANCH   5  27
TORSDOF 9
ENDMDL
MODEL 3
REMARK VINA RESULT:      -8.0      1.522      2.051
REMARK  Name = 
REMARK  9 active torsions:
REMARK  status: ('A' for Active; 'I' for Inactive)
REMARK    1  A    between atoms: C_2  and  C_11
REMARK    2  A    between atoms: N_3  and  C_4
REMARK    3  A    between atoms: C_4  and  C_5
REMARK    4  A    between atoms: C_13  and  C_14
REMARK    5  A    between atoms: C_24  and  O_25
REMARK    6  A    between atoms: O_25  and  C_26
REMARK    7  A    between atoms: C_26  and  C_27
REMARK    8  A    between atoms: C_30  and  C_31
REMARK    9  A    between atoms: C_31  and  O_32
REMARK                            x       y       z     vdW  Elec       q    Type
REMARK                         _______ _______ _______ _____ _____    ______ ____
ROOT
ATOM      1  C   UNL     1       1.049   9.678  19.941  0.00  0.00    +0.000 C 
ATOM      2  C   UNL     1       0.520   9.953  18.742  0.00  0.00    +0.000 C 
ATOM      3  C   UNL     1      -0.184  11.245  18.372  0.00  0.00    +0.000 C 
ATOM      4  C   UNL     1       0.327  12.322  19.318  0.00  0.00    +0.000 C 
ATOM      5  C   UNL     1       0.468  11.837  20.762  0.00  0.00    +0.000 C 
ATOM      6  O   UNL     1       1.179  10.607  20.946  0.00  0.00    +0.000 OA
ENDROOT
BRANCH   3   7
ATOM      7  C   UNL     1      -1.664  10.956  17.973  0.00  0.00    +0.000 A 
ATOM      8  C   UNL     1      -1.901   9.925  17.054  0.00  0.00    +0.000 A 
ATOM      9  S   UNL     1      -2.786  10.642  15.773  0.00  0.00    +0.000 S 
ATOM     10  C   UNL     1      -3.737  11.399  16.983  0.00  0.00    +0.000 A 
ATOM     11  C   UNL     1      -5.062  11.824  16.788  0.00  0.00    +0.000 A 
ATOM     12  C   UNL     1      -5.802  12.143  17.910  0.00  0.00    +0.000 A 
ATOM     13  C   UNL     1      -5.181  12.206  19.149  0.00  0.00    +0.000 A 
ATOM     14  C   UNL     1      -3.788  11.964  19.305  0.00  0.00    +0.000 A 
ATOM     15  C   UNL     1      -3.023  11.475  18.208  0.00  0.00    +0.000 A 
ENDBRANCH   3   7
BRANCH   1  17
ATOM     16  O   UNL     1       1.203   7.704  21.308  0.00  0.00    +0.000 OA
ATOM     17  C   UNL     1       1.418   8.238  20.224  0.00  0.00    +0.000 C 
ATOM     18  N   UNL     1       2.090   7.627  19.194  0.00  0.00    +0.000 N 
ATOM     19  H   UNL     1       2.228   8.148  18.340  0.00  0.00    +0.000 HD
BRANCH  18  20
ATOM     20  C   UNL     1       2.721   6.333  19.335  0.00  0.00    +0.000 C 
BRANCH  20  21
ATOM     21  C   UNL     1       3.603   6.012  18.156  0.00  0.00    +0.000 A 
ATOM     22  C   UNL     1       3.844   4.686  17.769  0.00  0.00    +0.000 A 
ATOM     23  C   UNL     1       4.663   4.404  16.671  0.00  0.00    +0.000 A 
ATOM     24  C   UNL     1       5.242   5.449  15.949  0.00  0.00    +0.000 A 
ATOM     25  C   UNL     1       5.012   6.771  16.327  0.00  0.00    +0.000 A 
ATOM     26  C   UNL     1       4.199   7.052  17.427  0.00  0.00    +0.000 A 
ENDBRANCH  20  21
ENDBRANCH  18  20
ENDBRANCH   1  17
BRANCH   5  27
ATOM     27  O   UNL     1      -0.841  11.766  21.294  0.00  0.00    +0.000 OA
BRANCH  27  28
ATOM     28  C   UNL     1      -0.853  11.507  22.687  0.00  0.00    +0.000 C 
BRANCH  28  29
ATOM     29  C   UNL     1      -1.779  12.547  23.233  0.00  0.00    +0.000 A 
ATOM     30  C   UNL     1      -3.146  12.286  23.358  0.00  0.00    +0.000 A 
ATOM     31  C   UNL     1      -4.027  13.300  23.711  0.00  0.00    +0.000 A 
ATOM     32  C   UNL     1      -3.554  14.596  23.937  0.00  0.00    +0.000 A 
ATOM     33  C   UNL     1      -2.189  14.869  23.794  0.00  0.00    +0.000 A 
ATOM     34  C   UNL     1      -1.291  13.852  23.455  0.00  0.00    +0.000 A 
BRANCH  32  35
ATOM     35  C   UNL     1      -4.531  15.715  24.223  0.00  0.00    +0.000 C 
BRANCH  35  36
ATOM     36  O   UNL     1      -5.856  15.231  24.397  0.00  0.00    +0.000 OA
ATOM     37  H   UNL     1      -5.826  14.579  25.112  0.00  0.00    +0.000 HD
ENDBRANCH  35  36
ENDBRANCH  32  35
ENDBRANCH  28  29
ENDBRANCH  27  28
ENDBRANCH   5  27
TORSDOF 9
ENDMDL
MODEL 4
REMARK VINA RESULT:      -8.0      0.895      1.490
REMARK  Name = 
REMARK  9 active torsions:
REMARK  status: ('A' for Active; 'I' for Inactive)
REMARK    1  A    between atoms: C_2  and  C_11
REMARK    2  A    between atoms: N_3  and  C_4
REMARK    3  A    between atoms: C_4  and  C_5
REMARK    4  A    between atoms: C_13  and  C_14
REMARK    5  A    between atoms: C_24  and  O_25
REMARK    6  A    between atoms: O_25  and  C_26
REMARK    7  A    between atoms: C_26  and  C_27
REMARK    8  A    between atoms: C_30  and  C_31
REMARK    9  A    between atoms: C_31  and  O_32
REMARK                            x       y       z     vdW  Elec       q    Type
REMARK                         _______ _______ _______ _____ _____    ______ ____
ROOT
ATOM      1  C   UNL     1       0.744  10.878  20.787  0.00  0.00    +0.000 C 
ATOM      2  C   UNL     1       0.353  10.700  19.519  0.00  0.00    +0.000 C 
ATOM      3  C   UNL     1      -0.312  11.754  18.654  0.00  0.00    +0.000 C 
ATOM      4  C   UNL     1       0.083  13.112  19.215  0.00  0.00    +0.000 C 
ATOM      5  C   UNL     1       0.063  13.159  20.744  0.00  0.00    +0.000 C 
ATOM      6  O   UNL     1       0.756  12.100  21.415  0.00  0.00    +0.000 OA
ENDROOT
BRANCH   3   7
ATOM      7  C   UNL     1      -1.737  11.281  18.228  0.00  0.00    +0.000 A 
ATOM      8  C   UNL     1      -1.827  10.167  17.382  0.00  0.00    +0.000 A 
ATOM      9  S   UNL     1      -2.728  10.692  16.022  0.00  0.00    +0.000 S 
ATOM     10  C   UNL     1      -3.801  11.428  17.138  0.00  0.00    +0.000 A 
ATOM     11  C   UNL     1      -5.154  11.694  16.866  0.00  0.00    +0.000 A 
ATOM     12  C   UNL     1      -5.969  12.012  17.936  0.00  0.00    +0.000 A 
ATOM     13  C   UNL     1      -5.410  12.229  19.187  0.00  0.00    +0.000 A 
ATOM     14  C   UNL     1      -4.007  12.150  19.407  0.00  0.00    +0.000 A 
ATOM     15  C   UNL     1      -3.151  11.667  18.377  0.00  0.00    +0.000 A 
ENDBRANCH   3   7
BRANCH   1  17
ATOM     16  O   UNL     1       1.423   9.691  22.767  0.00  0.00    +0.000 OA
ATOM     17  C   UNL     1       1.086   9.640  21.588  0.00  0.00    +0.000 C 
ATOM     18  N   UNL     1       1.072   8.482  20.850  0.00  0.00    +0.000 N 
ATOM     19  H   UNL     1       0.789   8.538  19.881  0.00  0.00    +0.000 HD
BRANCH  18  20
ATOM     20  C   UNL     1       1.575   7.226  21.361  0.00  0.00    +0.000 C 
BRANCH  20  21
ATOM     21  C   UNL     1       1.798   6.225  20.257  0.00  0.00    +0.000 A 
ATOM     22  C   UNL     1       1.439   4.878  20.414  0.00  0.00    +0.000 A 
ATOM     23  C   UNL     1       1.650   3.961  19.380  0.00  0.00    +0.000 A 
ATOM     24  C   UNL     1       2.217   4.388  18.177  0.00  0.00    +0.000 A 
ATOM     25  C   UNL     1       2.580   5.723  18.011  0.00  0.00    +0.000 A 
ATOM     26  C   UNL     1       2.374   6.637  19.046  0.00  0.00    +0.000 A 
ENDBRANCH  20  21
ENDBRANCH  18  20
ENDBRANCH   1  17
BRANCH   5  27
ATOM     27  O   UNL     1      -1.296  13.218  21.129  0.00  0.00    +0.000 OA
BRANCH  27  28
ATOM     28  C   UNL     1      -1.478  13.781  22.416  0.00  0.00    +0.000 C 
BRANCH  28  29
ATOM     29  C   UNL     1      -2.897  13.449  22.752  0.00  0.00    +0.000 A 
ATOM     30  C   UNL     1      -3.948  14.204  22.224  0.00  0.00    +0.000 A 
ATOM     31  C   UNL     1      -5.250  14.000  22.661  0.00  0.00    +0.000 A 
ATOM     32  C   UNL     1      -5.522  13.042  23.640  0.00  0.00    +0.000 A 
ATOM     33  C   UNL     1      -4.472  12.295  24.188  0.00  0.00    +0.000 A 
ATOM     34  C   UNL     1      -3.159  12.481  23.744  0.00  0.00    +0.000 A 
BRANCH  32  35
ATOM     35  C   UNL     1      -6.927  12.894  24.181  0.00  0.00    +0.000 C 
BRANCH  35  36
ATOM     36  O   UNL     1      -7.479  11.619  23.883  0.00  0.00    +0.000 OA
ATOM     37  H   UNL     1      -7.448  11.101  24.701  0.00  0.00    +0.000 HD
ENDBRANCH  35  36
ENDBRANCH  32  35
ENDBRANCH  28  29
ENDBRANCH  27  28
ENDBRANCH   5  27
TORSDOF 9
ENDMDL
MODEL 5
REMARK VINA RESULT:      -8.0      3.207      5.857
REMARK  Name = 
REMARK  9 active torsions:
REMARK  status: ('A' for Active; 'I' for Inactive)
REMARK    1  A    between atoms: C_2  and  C_11
REMARK    2  A    between atoms: N_3  and  C_4
REMARK    3  A    between atoms: C_4  and  C_5
REMARK    4  A    between atoms: C_13  and  C_14
REMARK    5  A    between atoms: C_24  and  O_25
REMARK    6  A    between atoms: O_25  and  C_26
REMARK    7  A    between atoms: C_26  and  C_27
REMARK    8  A    between atoms: C_30  and  C_31
REMARK    9  A    between atoms: C_31  and  O_32
REMARK                            x       y       z     vdW  Elec       q    Type
REMARK                         _______ _______ _______ _____ _____    ______ ____
ROOT
ATOM      1  C   UNL     1       1.158   9.984  19.242  0.00  0.00    +0.000 C 
ATOM      2  C   UNL     1       1.820  11.106  19.550  0.00  0.00    +0.000 C 
ATOM      3  C   UNL     1       1.196  12.355  20.144  0.00  0.00    +0.000 C 
ATOM      4  C   UNL     1      -0.081  11.926  20.853  0.00  0.00    +0.000 C 
ATOM      5  C   UNL     1      -0.885  10.889  20.068  0.00  0.00    +0.000 C 
ATOM      6  O   UNL     1      -0.152   9.754  19.590  0.00  0.00    +0.000 OA
ENDROOT
BRANCH   3   7
ATOM      7  C   UNL     1       1.385  13.563  19.175  0.00  0.00    +0.000 A 
ATOM      8  C   UNL     1       2.417  13.486  18.231  0.00  0.00    +0.000 A 
ATOM      9  S   UNL     1       3.383  14.878  18.489  0.00  0.00    +0.000 S 
ATOM     10  C   UNL     1       1.916  15.761  18.577  0.00  0.00    +0.000 A 
ATOM     11  C   UNL     1       1.807  17.132  18.288  0.00  0.00    +0.000 A 
ATOM     12  C   UNL     1       0.538  17.648  18.113  0.00  0.00    +0.000 A 
ATOM     13  C   UNL     1      -0.570  16.862  18.395  0.00  0.00    +0.000 A 
ATOM     14  C   UNL     1      -0.444  15.531  18.879  0.00  0.00    +0.000 A 
ATOM     15  C   UNL     1       0.836  14.907  18.919  0.00  0.00    +0.000 A 
ENDBRANCH   3   7
BRANCH   1  17
ATOM     16  O   UNL     1       2.103   9.175  17.182  0.00  0.00    +0.000 OA
ATOM     17  C   UNL     1       1.871   8.973  18.370  0.00  0.00    +0.000 C 
ATOM     18  N   UNL     1       2.144   7.788  19.008  0.00  0.00    +0.000 N 
ATOM     19  H   UNL     1       1.909   7.708  19.987  0.00  0.00    +0.000 HD
BRANCH  18  20
ATOM     20  C   UNL     1       2.620   6.616  18.305  0.00  0.00    +0.000 C 
BRANCH  20  21
ATOM     21  C   UNL     1       2.060   5.348  18.894  0.00  0.00    +0.000 A 
ATOM     22  C   UNL     1       1.700   4.265  18.078  0.00  0.00    +0.000 A 
ATOM     23  C   UNL     1       1.184   3.093  18.640  0.00  0.00    +0.000 A 
ATOM     24  C   UNL     1       1.030   2.994  20.024  0.00  0.00    +0.000 A 
ATOM     25  C   UNL     1       1.382   4.065  20.844  0.00  0.00    +0.000 A 
ATOM     26  C   UNL     1       1.892   5.237  20.283  0.00  0.00    +0.000 A 
ENDBRANCH  20  21
ENDBRANCH  18  20
ENDBRANCH   1  17
BRANCH   5  27
ATOM     27  O   UNL     1      -1.516  11.582  19.010  0.00  0.00    +0.000 OA
BRANCH  27  28
ATOM     28  C   UNL     1      -2.873  11.211  18.843  0.00  0.00    +0.000 C 
BRANCH  28  29
ATOM     29  C   UNL     1      -3.000  10.980  17.370  0.00  0.00    +0.000 A 
ATOM     30  C   UNL     1      -4.065  11.533  16.654  0.00  0.00    +0.000 A 
ATOM     31  C   UNL     1      -4.273  11.188  15.325  0.00  0.00    +0.000 A 
ATOM     32  C   UNL     1      -3.424  10.276  14.693  0.00  0.00    +0.000 A 
ATOM     33  C   UNL     1      -2.367   9.703  15.410  0.00  0.00    +0.000 A 
ATOM     34  C   UNL     1      -2.138  10.055  16.744  0.00  0.00    +0.000 A 
BRANCH  32  35
ATOM     35  C   UNL     1      -3.716   9.831  13.277  0.00  0.00    +0.000 C 
BRANCH  35  36
ATOM     36  O   UNL     1      -2.532   9.465  12.581  0.00  0.00    +0.000 OA
ATOM     37  H   UNL     1      -2.265   8.596  12.916  0.00  0.00    +0.000 HD
ENDBRANCH  35  36
ENDBRANCH  32  35
ENDBRANCH  28  29
ENDBRANCH  27  28
ENDBRANCH   5  27
TORSDOF 9
ENDMDL
MODEL 6
REMARK VINA RESULT:      -7.9      5.546      9.334
REMARK  Name = 
REMARK  9 active torsions:
REMARK  status: ('A' for Active; 'I' for Inactive)
REMARK    1  A    between atoms: C_2  and  C_11
REMARK    2  A    between atoms: N_3  and  C_4
REMARK    3  A    between atoms: C_4  and  C_5
REMARK    4  A    between atoms: C_13  and  C_14
REMARK    5  A    between atoms: C_24  and  O_25
REMARK    6  A    between atoms: O_25  and  C_26
REMARK    7  A    between atoms: C_26  and  C_27
REMARK    8  A    between atoms: C_30  and  C_31
REMARK    9  A    between atoms: C_31  and  O_32
REMARK                            x       y       z     vdW  Elec       q    Type
REMARK                         _______ _______ _______ _____ _____    ______ ____
ROOT
ATOM      1  C   UNL     1       6.669   6.630  17.633  0.00  0.00    +0.000 C 
ATOM      2  C   UNL     1       6.390   5.331  17.802  0.00  0.00    +0.000 C 
ATOM      3  C   UNL     1       5.079   4.663  17.431  0.00  0.00    +0.000 C 
ATOM      4  C   UNL     1       4.430   5.515  16.350  0.00  0.00    +0.000 C 
ATOM      5  C   UNL     1       4.551   7.016  16.615  0.00  0.00    +0.000 C 
ATOM      6  O   UNL     1       5.863   7.496  16.934  0.00  0.00    +0.000 OA
ENDROOT
BRANCH   3   7
ATOM      7  C   UNL     1       4.402   4.063  18.702  0.00  0.00    +0.000 A 
ATOM      8  C   UNL     1       5.218   3.377  19.612  0.00  0.00    +0.000 A 
ATOM      9  S   UNL     1       4.519   1.821  19.776  0.00  0.00    +0.000 S 
ATOM     10  C   UNL     1       3.006   2.619  19.902  0.00  0.00    +0.000 A 
ATOM     11  C   UNL     1       1.887   2.080  20.559  0.00  0.00    +0.000 A 
ATOM     12  C   UNL     1       0.840   2.936  20.840  0.00  0.00    +0.000 A 
ATOM     13  C   UNL     1       0.844   4.224  20.323  0.00  0.00    +0.000 A 
ATOM     14  C   UNL     1       1.896   4.695  19.490  0.00  0.00    +0.000 A 
ATOM     15  C   UNL     1       3.068   3.907  19.309  0.00  0.00    +0.000 A 
ENDBRANCH   3   7
BRANCH   1  17
ATOM     16  O   UNL     1       8.555   6.501  19.122  0.00  0.00    +0.000 OA
ATOM     17  C   UNL     1       7.884   7.178  18.349  0.00  0.00    +0.000 C 
ATOM     18  N   UNL     1       8.103   8.515  18.122  0.00  0.00    +0.000 N 
ATOM     19  H   UNL     1       7.493   8.995  17.474  0.00  0.00    +0.000 HD
BRANCH  18  20
ATOM     20  C   UNL     1       9.072   9.284  18.871  0.00  0.00    +0.000 C 
BRANCH  20  21
ATOM     21  C   UNL     1       9.195  10.690  18.343  0.00  0.00    +0.000 A 
ATOM     22  C   UNL     1       8.085  11.372  17.826  0.00  0.00    +0.000 A 
ATOM     23  C   UNL     1       8.214  12.677  17.342  0.00  0.00    +0.000 A 
ATOM     24  C   UNL     1       9.458  13.312  17.378  0.00  0.00    +0.000 A 
ATOM     25  C   UNL     1      10.569  12.643  17.886  0.00  0.00    +0.000 A 
ATOM     26  C   UNL     1      10.440  11.338  18.365  0.00  0.00    +0.000 A 
ENDBRANCH  20  21
ENDBRANCH  18  20
ENDBRANCH   1  17
BRANCH   5  27
ATOM     27  O   UNL     1       3.622   7.322  17.637  0.00  0.00    +0.000 OA
BRANCH  27  28
ATOM     28  C   UNL     1       2.913   8.524  17.392  0.00  0.00    +0.000 C 
BRANCH  28  29
ATOM     29  C   UNL     1       1.984   8.632  18.559  0.00  0.00    +0.000 A 
ATOM     30  C   UNL     1       1.015   9.639  18.604  0.00  0.00    +0.000 A 
ATOM     31  C   UNL     1       0.263   9.841  19.754  0.00  0.00    +0.000 A 
ATOM     32  C   UNL     1       0.475   9.043  20.882  0.00  0.00    +0.000 A 
ATOM     33  C   UNL     1       1.457   8.046  20.851  0.00  0.00    +0.000 A 
ATOM     34  C   UNL     1       2.209   7.824  19.693  0.00  0.00    +0.000 A 
BRANCH  32  35
ATOM     35  C   UNL     1      -0.279   9.333  22.162  0.00  0.00    +0.000 C 
BRANCH  35  36
ATOM     36  O   UNL     1       0.575   9.848  23.174  0.00  0.00    +0.000 OA
ATOM     37  H   UNL     1       0.801  10.754  22.918  0.00  0.00    +0.000 HD
ENDBRANCH  35  36
ENDBRANCH  32  35
ENDBRANCH  28  29
ENDBRANCH  27  28
ENDBRANCH   5  27
TORSDOF 9
ENDMDL
MODEL 7
REMARK VINA RESULT:      -7.9      0.599      1.288
REMARK  Name = 
REMARK  9 active torsions:
REMARK  status: ('A' for Active; 'I' for Inactive)
REMARK    1  A    between atoms: C_2  and  C_11
REMARK    2  A    between atoms: N_3  and  C_4
REMARK    3  A    between atoms: C_4  and  C_5
REMARK    4  A    between atoms: C_13  and  C_14
REMARK    5  A    between atoms: C_24  and  O_25
REMARK    6  A    between atoms: O_25  and  C_26
REMARK    7  A    between atoms: C_26  and  C_27
REMARK    8  A    between atoms: C_30  and  C_31
REMARK    9  A    between atoms: C_31  and  O_32
REMARK                            x       y       z     vdW  Elec       q    Type
REMARK                         _______ _______ _______ _____ _____    ______ ____
ROOT
ATOM      1  C   UNL     1       1.063   9.748  19.980  0.00  0.00    +0.000 C 
ATOM      2  C   UNL     1       0.465   9.893  18.791  0.00  0.00    +0.000 C 
ATOM      3  C   UNL     1      -0.200  11.164  18.296  0.00  0.00    +0.000 C 
ATOM      4  C   UNL     1       0.428  12.325  19.053  0.00  0.00    +0.000 C 
ATOM      5  C   UNL     1       0.647  12.026  20.537  0.00  0.00    +0.000 C 
ATOM      6  O   UNL     1       1.309  10.792  20.840  0.00  0.00    +0.000 OA
ENDROOT
BRANCH   3   7
ATOM      7  C   UNL     1      -1.717  10.910  18.034  0.00  0.00    +0.000 A 
ATOM      8  C   UNL     1      -2.064   9.831  17.211  0.00  0.00    +0.000 A 
ATOM      9  S   UNL     1      -3.023  10.497  15.956  0.00  0.00    +0.000 S 
ATOM     10  C   UNL     1      -3.845  11.371  17.181  0.00  0.00    +0.000 A 
ATOM     11  C   UNL     1      -5.165  11.837  17.059  0.00  0.00    +0.000 A 
ATOM     12  C   UNL     1      -5.801  12.261  18.210  0.00  0.00    +0.000 A 
ATOM     13  C   UNL     1      -5.080  12.380  19.390  0.00  0.00    +0.000 A 
ATOM     14  C   UNL     1      -3.689  12.092  19.454  0.00  0.00    +0.000 A 
ATOM     15  C   UNL     1      -3.033  11.499  18.337  0.00  0.00    +0.000 A 
ENDBRANCH   3   7
BRANCH   1  17
ATOM     16  O   UNL     1       0.880   7.840  21.435  0.00  0.00    +0.000 OA
ATOM     17  C   UNL     1       1.380   8.339  20.432  0.00  0.00    +0.000 C 
ATOM     18  N   UNL     1       2.340   7.718  19.671  0.00  0.00    +0.000 N 
ATOM     19  H   UNL     1       2.702   8.210  18.866  0.00  0.00    +0.000 HD
BRANCH  18  20
ATOM     20  C   UNL     1       2.945   6.461  20.053  0.00  0.00    +0.000 C 
BRANCH  20  21
ATOM     21  C   UNL     1       2.165   5.284  19.526  0.00  0.00    +0.000 A 
ATOM     22  C   UNL     1       1.471   4.426  20.392  0.00  0.00    +0.000 A 
ATOM     23  C   UNL     1       0.750   3.340  19.887  0.00  0.00    +0.000 A 
ATOM     24  C   UNL     1       0.713   3.108  18.511  0.00  0.00    +0.000 A 
ATOM     25  C   UNL     1       1.401   3.952  17.642  0.00  0.00    +0.000 A 
ATOM     26  C   UNL     1       2.126   5.034  18.146  0.00  0.00    +0.000 A 
ENDBRANCH  20  21
ENDBRANCH  18  20
ENDBRANCH   1  17
BRANCH   5  27
ATOM     27  O   UNL     1      -0.622  12.101  21.156  0.00  0.00    +0.000 OA
BRANCH  27  28
ATOM     28  C   UNL     1      -0.649  13.007  22.245  0.00  0.00    +0.000 C 
BRANCH  28  29
ATOM     29  C   UNL     1      -2.108  13.253  22.467  0.00  0.00    +0.000 A 
ATOM     30  C   UNL     1      -2.686  14.472  22.101  0.00  0.00    +0.000 A 
ATOM     31  C   UNL     1      -3.998  14.762  22.453  0.00  0.00    +0.000 A 
ATOM     32  C   UNL     1      -4.751  13.839  23.184  0.00  0.00    +0.000 A 
ATOM     33  C   UNL     1      -4.172  12.625  23.570  0.00  0.00    +0.000 A 
ATOM     34  C   UNL     1      -2.857  12.316  23.208  0.00  0.00    +0.000 A 
BRANCH  32  35
ATOM     35  C   UNL     1      -6.145  14.203  23.647  0.00  0.00    +0.000 C 
BRANCH  35  36
ATOM     36  O   UNL     1      -6.168  15.448  24.331  0.00  0.00    +0.000 OA
ATOM     37  H   UNL     1      -6.114  15.251  25.278  0.00  0.00    +0.000 HD
ENDBRANCH  35  36
ENDBRANCH  32  35
ENDBRANCH  28  29
ENDBRANCH  27  28
ENDBRANCH   5  27
TORSDOF 9
ENDMDL
MODEL 8
REMARK VINA RESULT:      -7.9      1.327      1.958
REMARK  Name = 
REMARK  9 active torsions:
REMARK  status: ('A' for Active; 'I' for Inactive)
REMARK    1  A    between atoms: C_2  and  C_11
REMARK    2  A    between atoms: N_3  and  C_4
REMARK    3  A    between atoms: C_4  and  C_5
REMARK    4  A    between atoms: C_13  and  C_14
REMARK    5  A    between atoms: C_24  and  O_25
REMARK    6  A    between atoms: O_25  and  C_26
REMARK    7  A    between atoms: C_26  and  C_27
REMARK    8  A    between atoms: C_30  and  C_31
REMARK    9  A    between atoms: C_31  and  O_32
REMARK                            x       y       z     vdW  Elec       q    Type
REMARK                         _______ _______ _______ _____ _____    ______ ____
ROOT
ATOM      1  C   UNL     1       0.945  10.053  20.335  0.00  0.00    +0.000 C 
ATOM      2  C   UNL     1       0.456  10.183  19.095  0.00  0.00    +0.000 C 
ATOM      3  C   UNL     1      -0.228  11.422  18.550  0.00  0.00    +0.000 C 
ATOM      4  C   UNL     1       0.258  12.604  19.375  0.00  0.00    +0.000 C 
ATOM      5  C   UNL     1       0.349  12.296  20.871  0.00  0.00    +0.000 C 
ATOM      6  O   UNL     1       1.047  11.096  21.224  0.00  0.00    +0.000 OA
ENDROOT
BRANCH   3   7
ATOM      7  C   UNL     1      -1.696  11.089  18.139  0.00  0.00    +0.000 A 
ATOM      8  C   UNL     1      -1.899  10.020  17.257  0.00  0.00    +0.000 A 
ATOM      9  S   UNL     1      -2.777  10.671  15.937  0.00  0.00    +0.000 S 
ATOM     10  C   UNL     1      -3.761  11.454  17.103  0.00  0.00    +0.000 A 
ATOM     11  C   UNL     1      -5.091  11.846  16.871  0.00  0.00    +0.000 A 
ATOM     12  C   UNL     1      -5.854  12.193  17.969  0.00  0.00    +0.000 A 
ATOM     13  C   UNL     1      -5.254  12.314  19.215  0.00  0.00    +0.000 A 
ATOM     14  C   UNL     1      -3.859  12.105  19.400  0.00  0.00    +0.000 A 
ATOM     15  C   UNL     1      -3.068  11.590  18.334  0.00  0.00    +0.000 A 
ENDBRANCH   3   7
BRANCH   1  17
ATOM     16  O   UNL     1       1.181   8.305  21.972  0.00  0.00    +0.000 OA
ATOM     17  C   UNL     1       1.296   8.657  20.802  0.00  0.00    +0.000 C 
ATOM     18  N   UNL     1       1.835   7.865  19.818  0.00  0.00    +0.000 N 
ATOM     19  H   UNL     1       1.898   8.243  18.883  0.00  0.00    +0.000 HD
BRANCH  18  20
ATOM     20  C   UNL     1       2.436   6.579  20.095  0.00  0.00    +0.000 C 
BRANCH  20  21
ATOM     21  C   UNL     1       3.472   6.214  19.063  0.00  0.00    +0.000 A 
ATOM     22  C   UNL     1       4.370   5.158  19.277  0.00  0.00    +0.000 A 
ATOM     23  C   UNL     1       5.323   4.830  18.309  0.00  0.00    +0.000 A 
ATOM     24  C   UNL     1       5.382   5.554  17.116  0.00  0.00    +0.000 A 
ATOM     25  C   UNL     1       4.496   6.607  16.894  0.00  0.00    +0.000 A 
ATOM     26  C   UNL     1       3.548   6.938  17.864  0.00  0.00    +0.000 A 
ENDBRANCH  20  21
ENDBRANCH  18  20
ENDBRANCH   1  17
BRANCH   5  27
ATOM     27  O   UNL     1      -0.976  12.292  21.364  0.00  0.00    +0.000 OA
BRANCH  27  28
ATOM     28  C   UNL     1      -1.235  13.366  22.251  0.00  0.00    +0.000 C 
BRANCH  28  29
ATOM     29  C   UNL     1      -2.664  13.166  22.644  0.00  0.00    +0.000 A 
ATOM     30  C   UNL     1      -3.663  14.005  22.142  0.00  0.00    +0.000 A 
ATOM     31  C   UNL     1      -4.961  13.924  22.630  0.00  0.00    +0.000 A 
ATOM     32  C   UNL     1      -5.279  13.006  23.635  0.00  0.00    +0.000 A 
ATOM     33  C   UNL     1      -4.279  12.177  24.156  0.00  0.00    +0.000 A 
ATOM     34  C   UNL     1      -2.972  12.239  23.661  0.00  0.00    +0.000 A 
BRANCH  32  35
ATOM     35  C   UNL     1      -6.670  12.992  24.229  0.00  0.00    +0.000 C 
BRANCH  35  36
ATOM     36  O   UNL     1      -7.378  11.807  23.893  0.00  0.00    +0.000 OA
ATOM     37  H   UNL     1      -7.804  11.965  23.038  0.00  0.00    +0.000 HD
ENDBRANCH  35  36
ENDBRANCH  32  35
ENDBRANCH  28  29
ENDBRANCH  27  28
ENDBRANCH   5  27
TORSDOF 9
ENDMDL
MODEL 9
REMARK VINA RESULT:      -7.8      5.554      9.214
REMARK  Name = 
REMARK  9 active torsions:
REMARK  status: ('A' for Active; 'I' for Inactive)
REMARK    1  A    between atoms: C_2  and  C_11
REMARK    2  A    between atoms: N_3  and  C_4
REMARK    3  A    between atoms: C_4  and  C_5
REMARK    4  A    between atoms: C_13  and  C_14
REMARK    5  A    between atoms: C_24  and  O_25
REMARK    6  A    between atoms: O_25  and  C_26
REMARK    7  A    between atoms: C_26  and  C_27
REMARK    8  A    between atoms: C_30  and  C_31
REMARK    9  A    between atoms: C_31  and  O_32
REMARK                            x       y       z     vdW  Elec       q    Type
REMARK                         _______ _______ _______ _____ _____    ______ ____
ROOT
ATOM      1  C   UNL     1       6.625   6.798  17.669  0.00  0.00    +0.000 C 
ATOM      2  C   UNL     1       6.333   5.496  17.786  0.00  0.00    +0.000 C 
ATOM      3  C   UNL     1       4.999   4.864  17.436  0.00  0.00    +0.000 C 
ATOM      4  C   UNL     1       4.322   5.776  16.424  0.00  0.00    +0.000 C 
ATOM      5  C   UNL     1       4.475   7.261  16.755  0.00  0.00    +0.000 C 
ATOM      6  O   UNL     1       5.805   7.707  17.044  0.00  0.00    +0.000 OA
ENDROOT
BRANCH   3   7
ATOM      7  C   UNL     1       4.364   4.213  18.703  0.00  0.00    +0.000 A 
ATOM      8  C   UNL     1       5.205   3.480  19.551  0.00  0.00    +0.000 A 
ATOM      9  S   UNL     1       4.498   1.923  19.670  0.00  0.00    +0.000 S 
ATOM     10  C   UNL     1       2.999   2.727  19.887  0.00  0.00    +0.000 A 
ATOM     11  C   UNL     1       1.900   2.167  20.560  0.00  0.00    +0.000 A 
ATOM     12  C   UNL     1       0.871   3.016  20.918  0.00  0.00    +0.000 A 
ATOM     13  C   UNL     1       0.869   4.326  20.459  0.00  0.00    +0.000 A 
ATOM     14  C   UNL     1       1.894   4.827  19.611  0.00  0.00    +0.000 A 
ATOM     15  C   UNL     1       3.051   4.040  19.351  0.00  0.00    +0.000 A 
ENDBRANCH   3   7
BRANCH   1  17
ATOM     16  O   UNL     1       8.564   6.573  19.075  0.00  0.00    +0.000 OA
ATOM     17  C   UNL     1       7.876   7.295  18.361  0.00  0.00    +0.000 C 
ATOM     18  N   UNL     1       8.107   8.637  18.187  0.00  0.00    +0.000 N 
ATOM     19  H   UNL     1       7.481   9.155  17.585  0.00  0.00    +0.000 HD
BRANCH  18  20
ATOM     20  C   UNL     1       9.117   9.357  18.932  0.00  0.00    +0.000 C 
BRANCH  20  21
ATOM     21  C   UNL     1       9.312  10.754  18.400  0.00  0.00    +0.000 A 
ATOM     22  C   UNL     1      10.580  11.350  18.373  0.00  0.00    +0.000 A 
ATOM     23  C   UNL     1      10.746  12.646  17.875  0.00  0.00    +0.000 A 
ATOM     24  C   UNL     1       9.641  13.352  17.394  0.00  0.00    +0.000 A 
ATOM     25  C   UNL     1       8.376  12.771  17.418  0.00  0.00    +0.000 A 
ATOM     26  C   UNL     1       8.210  11.479  17.921  0.00  0.00    +0.000 A 
ENDBRANCH  20  21
ENDBRANCH  18  20
ENDBRANCH   1  17
BRANCH   5  27
ATOM     27  O   UNL     1       3.592   7.530  17.827  0.00  0.00    +0.000 OA
BRANCH  27  28
ATOM     28  C   UNL     1       2.418   8.207  17.414  0.00  0.00    +0.000 C 
BRANCH  28  29
ATOM     29  C   UNL     1       1.833   8.716  18.694  0.00  0.00    +0.000 A 
ATOM     30  C   UNL     1       1.979   7.989  19.879  0.00  0.00    +0.000 A 
ATOM     31  C   UNL     1       1.302   8.375  21.028  0.00  0.00    +0.000 A 
ATOM     32  C   UNL     1       0.460   9.491  21.008  0.00  0.00    +0.000 A 
ATOM     33  C   UNL     1       0.294  10.211  19.820  0.00  0.00    +0.000 A 
ATOM     34  C   UNL     1       0.984   9.841  18.660  0.00  0.00    +0.000 A 
BRANCH  32  35
ATOM     35  C   UNL     1      -0.349   9.846  22.236  0.00  0.00    +0.000 C 
BRANCH  35  36
ATOM     36  O   UNL     1       0.436   9.804  23.419  0.00  0.00    +0.000 OA
ATOM     37  H   UNL     1      -0.145  10.051  24.153  0.00  0.00    +0.000 HD
ENDBRANCH  35  36
ENDBRANCH  32  35
ENDBRANCH  28  29
ENDBRANCH  27  28
ENDBRANCH   5  27
TORSDOF 9
ENDMDL
