MODEL 1
REMARK VINA RESULT:      -6.5      0.000      0.000
REMARK  Name = 
REMARK  7 active torsions:
REMARK  status: ('A' for Active; 'I' for Inactive)
REMARK    1  A    between atoms: C_1  and  N_2
REMARK    2  A    between atoms: C_3  and  N_4
REMARK    3  A    between atoms: N_4  and  C_5
REMARK    4  A    between atoms: C_5  and  C_6
REMARK    5  A    between atoms: C_6  and  N_7
REMARK    6  A    between atoms: C_14  and  C_15
REMARK    7  A    between atoms: N_19  and  C_20
REMARK                            x       y       z     vdW  Elec       q    Type
REMARK                         _______ _______ _______ _____ _____    ______ ____
ROOT
ATOM      1  C   UNL     1       0.211   9.318  23.387  0.00  0.00    +0.000 C 
ATOM      2  N   UNL     1       0.095   9.998  22.098  0.00  0.00    +0.000 N 
ATOM      3  C   UNL     1       0.821   9.555  20.999  0.00  0.00    +0.000 A 
ATOM      4  C   UNL     1       0.651  10.187  19.811  0.00  0.00    +0.000 A 
ATOM      5  C   UNL     1      -0.258  11.340  19.696  0.00  0.00    +0.000 A 
ATOM      6  O   UNL     1      -0.401  11.901  18.609  0.00  0.00    +0.000 OA
ATOM      7  N   UNL     1      -0.895  11.733  20.854  0.00  0.00    +0.000 N 
ATOM      8  C   UNL     1      -1.774  12.887  20.815  0.00  0.00    +0.000 C 
ATOM      9  C   UNL     1      -0.778  11.086  22.068  0.00  0.00    +0.000 A 
ATOM     10  O   UNL     1      -1.397  11.452  23.064  0.00  0.00    +0.000 OA
ENDROOT
BRANCH   3  11
ATOM     11  N   UNL     1       1.705   8.495  21.195  0.00  0.00    +0.000 N 
ATOM     12  H   UNL     1       2.126   8.461  22.125  0.00  0.00    +0.000 HD
BRANCH  11  13
ATOM     13  C   UNL     1       1.363   7.142  20.738  0.00  0.00    +0.000 C 
BRANCH  13  14
ATOM     14  C   UNL     1       2.522   6.497  19.947  0.00  0.00    +0.000 C 
BRANCH  14  15
ATOM     15  N   UNL     1       2.406   5.051  19.628  0.00  0.00    +0.000 NA
ATOM     16  C   UNL     1       1.177   4.448  20.157  0.00  0.00    +0.000 C 
ATOM     17  C   UNL     1       1.369   2.961  20.466  0.00  0.00    +0.000 C 
ATOM     18  C   UNL     1       1.281   2.027  19.266  0.00  0.00    +0.000 C 
ATOM     19  C   UNL     1       2.258   2.347  18.142  0.00  0.00    +0.000 C 
ATOM     20  C   UNL     1       1.943   3.676  17.473  0.00  0.00    +0.000 C 
ATOM     21  C   UNL     1       2.567   4.892  18.165  0.00  0.00    +0.000 C 
ENDBRANCH  14  15
ENDBRANCH  13  14
ENDBRANCH  11  13
ENDBRANCH   3  11
BRANCH   4  22
ATOM     22  C   UNL     1       1.393   9.732  18.565  0.00  0.00    +0.000 C 
ATOM     23  N   UNL     1       2.010   9.356  17.532  0.00  0.00    +0.000 NA
ENDBRANCH   4  22
TORSDOF 5
ENDMDL
MODEL 2
REMARK VINA RESULT:      -6.4      0.635      1.308
REMARK  Name = 
REMARK  7 active torsions:
REMARK  status: ('A' for Active; 'I' for Inactive)
REMARK    1  A    between atoms: C_1  and  N_2
REMARK    2  A    between atoms: C_3  and  N_4
REMARK    3  A    between atoms: N_4  and  C_5
REMARK    4  A    between atoms: C_5  and  C_6
REMARK    5  A    between atoms: C_6  and  N_7
REMARK    6  A    between atoms: C_14  and  C_15
REMARK    7  A    between atoms: N_19  and  C_20
REMARK                            x       y       z     vdW  Elec       q    Type
REMARK                         _______ _______ _______ _____ _____    ______ ____
ROOT
ATOM      1  C   UNL     1       0.100   9.404  23.415  0.00  0.00    +0.000 C 
ATOM      2  N   UNL     1      -0.023  10.061  22.115  0.00  0.00    +0.000 N 
ATOM      3  C   UNL     1       0.747   9.642  21.036  0.00  0.00    +0.000 A 
ATOM      4  C   UNL     1       0.570  10.250  19.837  0.00  0.00    +0.000 A 
ATOM      5  C   UNL     1      -0.392  11.355  19.689  0.00  0.00    +0.000 A 
ATOM      6  O   UNL     1      -0.540  11.895  18.592  0.00  0.00    +0.000 OA
ATOM      7  N   UNL     1      -1.072  11.729  20.827  0.00  0.00    +0.000 N 
ATOM      8  C   UNL     1      -2.006  12.838  20.756  0.00  0.00    +0.000 C 
ATOM      9  C   UNL     1      -0.948  11.104  22.052  0.00  0.00    +0.000 A 
ATOM     10  O   UNL     1      -1.605  11.450  23.031  0.00  0.00    +0.000 OA
ENDROOT
BRANCH   3  11
ATOM     11  N   UNL     1       1.678   8.630  21.263  0.00  0.00    +0.000 N 
ATOM     12  H   UNL     1       2.141   8.676  22.174  0.00  0.00    +0.000 HD
BRANCH  11  13
ATOM     13  C   UNL     1       1.368   7.237  20.918  0.00  0.00    +0.000 C 
BRANCH  13  14
ATOM     14  C   UNL     1       2.360   6.673  19.876  0.00  0.00    +0.000 C 
BRANCH  14  15
ATOM     15  N   UNL     1       2.230   5.237  19.521  0.00  0.00    +0.000 NA
ATOM     16  C   UNL     1       3.511   4.522  19.565  0.00  0.00    +0.000 C 
ATOM     17  C   UNL     1       3.534   3.350  18.579  0.00  0.00    +0.000 C 
ATOM     18  C   UNL     1       2.838   2.082  19.055  0.00  0.00    +0.000 C 
ATOM     19  C   UNL     1       1.377   2.269  19.444  0.00  0.00    +0.000 C 
ATOM     20  C   UNL     1       1.222   3.142  20.679  0.00  0.00    +0.000 C 
ATOM     21  C   UNL     1       1.186   4.645  20.387  0.00  0.00    +0.000 C 
ENDBRANCH  14  15
ENDBRANCH  13  14
ENDBRANCH  11  13
ENDBRANCH   3  11
BRANCH   4  22
ATOM     22  C   UNL     1       1.360   9.818  18.612  0.00  0.00    +0.000 C 
ATOM     23  N   UNL     1       2.016   9.460  17.597  0.00  0.00    +0.000 NA
ENDBRANCH   4  22
TORSDOF 5
ENDMDL
MODEL 3
REMARK VINA RESULT:      -6.3      3.517      7.425
REMARK  Name = 
REMARK  7 active torsions:
REMARK  status: ('A' for Active; 'I' for Inactive)
REMARK    1  A    between atoms: C_1  and  N_2
REMARK    2  A    between atoms: C_3  and  N_4
REMARK    3  A    between atoms: N_4  and  C_5
REMARK    4  A    between atoms: C_5  and  C_6
REMARK    5  A    between atoms: C_6  and  N_7
REMARK    6  A    between atoms: C_14  and  C_15
REMARK    7  A    between atoms: N_19  and  C_20
REMARK                            x       y       z     vdW  Elec       q    Type
REMARK                         _______ _______ _______ _____ _____    ______ ____
ROOT
ATOM      1  C   UNL     1       1.764   5.347  20.597  0.00  0.00    +0.000 C 
ATOM      2  N   UNL     1       2.589   4.843  19.500  0.00  0.00    +0.000 N 
ATOM      3  C   UNL     1       3.216   5.723  18.625  0.00  0.00    +0.000 A 
ATOM      4  C   UNL     1       4.007   5.214  17.648  0.00  0.00    +0.000 A 
ATOM      5  C   UNL     1       4.170   3.759  17.495  0.00  0.00    +0.000 A 
ATOM      6  O   UNL     1       4.893   3.314  16.602  0.00  0.00    +0.000 OA
ATOM      7  N   UNL     1       3.469   2.969  18.381  0.00  0.00    +0.000 N 
ATOM      8  C   UNL     1       3.557   1.525  18.257  0.00  0.00    +0.000 C 
ATOM      9  C   UNL     1       2.691   3.454  19.413  0.00  0.00    +0.000 A 
ATOM     10  O   UNL     1       2.115   2.708  20.201  0.00  0.00    +0.000 OA
ENDROOT
BRANCH   3  11
ATOM     11  N   UNL     1       2.970   7.084  18.795  0.00  0.00    +0.000 N 
ATOM     12  H   UNL     1       3.810   7.668  18.808  0.00  0.00    +0.000 HD
BRANCH  11  13
ATOM     13  C   UNL     1       1.896   7.750  18.047  0.00  0.00    +0.000 C 
BRANCH  13  14
ATOM     14  C   UNL     1       1.792   9.248  18.410  0.00  0.00    +0.000 C 
BRANCH  14  15
ATOM     15  N   UNL     1       0.875   9.616  19.519  0.00  0.00    +0.000 NA
ATOM     16  C   UNL     1       1.165   8.892  20.761  0.00  0.00    +0.000 C 
ATOM     17  C   UNL     1      -0.096   8.708  21.612  0.00  0.00    +0.000 C 
ATOM     18  C   UNL     1      -0.507   9.917  22.441  0.00  0.00    +0.000 C 
ATOM     19  C   UNL     1      -0.731  11.191  21.636  0.00  0.00    +0.000 C 
ATOM     20  C   UNL     1       0.558  11.711  21.021  0.00  0.00    +0.000 C 
ATOM     21  C   UNL     1       0.905  11.089  19.666  0.00  0.00    +0.000 C 
ENDBRANCH  14  15
ENDBRANCH  13  14
ENDBRANCH  11  13
ENDBRANCH   3  11
BRANCH   4  22
ATOM     22  C   UNL     1       4.743   6.124  16.679  0.00  0.00    +0.000 C 
ATOM     23  N   UNL     1       5.353   6.880  15.875  0.00  0.00    +0.000 NA
ENDBRANCH   4  22
TORSDOF 5
ENDMDL
MODEL 4
REMARK VINA RESULT:      -6.2      3.483      7.516
REMARK  Name = 
REMARK  7 active torsions:
REMARK  status: ('A' for Active; 'I' for Inactive)
REMARK    1  A    between atoms: C_1  and  N_2
REMARK    2  A    between atoms: C_3  and  N_4
REMARK    3  A    between atoms: N_4  and  C_5
REMARK    4  A    between atoms: C_5  and  C_6
REMARK    5  A    between atoms: C_6  and  N_7
REMARK    6  A    between atoms: C_14  and  C_15
REMARK    7  A    between atoms: N_19  and  C_20
REMARK                            x       y       z     vdW  Elec       q    Type
REMARK                         _______ _______ _______ _____ _____    ______ ____
ROOT
ATOM      1  C   UNL     1       1.719   5.685  20.550  0.00  0.00    +0.000 C 
ATOM      2  N   UNL     1       2.522   5.096  19.480  0.00  0.00    +0.000 N 
ATOM      3  C   UNL     1       3.179   5.908  18.562  0.00  0.00    +0.000 A 
ATOM      4  C   UNL     1       3.949   5.323  17.612  0.00  0.00    +0.000 A 
ATOM      5  C   UNL     1       4.060   3.857  17.531  0.00  0.00    +0.000 A 
ATOM      6  O   UNL     1       4.765   3.342  16.662  0.00  0.00    +0.000 OA
ATOM      7  N   UNL     1       3.333   3.138  18.456  0.00  0.00    +0.000 N 
ATOM      8  C   UNL     1       3.368   1.688  18.404  0.00  0.00    +0.000 C 
ATOM      9  C   UNL     1       2.575   3.702  19.462  0.00  0.00    +0.000 A 
ATOM     10  O   UNL     1       1.974   3.018  20.287  0.00  0.00    +0.000 OA
ENDROOT
BRANCH   3  11
ATOM     11  N   UNL     1       2.983   7.284  18.663  0.00  0.00    +0.000 N 
ATOM     12  H   UNL     1       3.840   7.839  18.613  0.00  0.00    +0.000 HD
BRANCH  11  13
ATOM     13  C   UNL     1       1.903   7.943  17.918  0.00  0.00    +0.000 C 
BRANCH  13  14
ATOM     14  C   UNL     1       2.052   9.481  17.937  0.00  0.00    +0.000 C 
BRANCH  14  15
ATOM     15  N   UNL     1       0.994  10.258  18.633  0.00  0.00    +0.000 NA
ATOM     16  C   UNL     1      -0.316  10.143  17.983  0.00  0.00    +0.000 C 
ATOM     17  C   UNL     1      -1.167  11.396  18.209  0.00  0.00    +0.000 C 
ATOM     18  C   UNL     1      -1.869  11.476  19.558  0.00  0.00    +0.000 C 
ATOM     19  C   UNL     1      -0.940  11.381  20.762  0.00  0.00    +0.000 C 
ATOM     20  C   UNL     1      -0.291  10.012  20.876  0.00  0.00    +0.000 C 
ATOM     21  C   UNL     1       0.993   9.854  20.056  0.00  0.00    +0.000 C 
ENDBRANCH  14  15
ENDBRANCH  13  14
ENDBRANCH  11  13
ENDBRANCH   3  11
BRANCH   4  22
ATOM     22  C   UNL     1       4.715   6.157  16.598  0.00  0.00    +0.000 C 
ATOM     23  N   UNL     1       5.351   6.848  15.757  0.00  0.00    +0.000 NA
ENDBRANCH   4  22
TORSDOF 5
ENDMDL
MODEL 5
REMARK VINA RESULT:      -6.1      1.804      3.441
REMARK  Name = 
REMARK  7 active torsions:
REMARK  status: ('A' for Active; 'I' for Inactive)
REMARK    1  A    between atoms: C_1  and  N_2
REMARK    2  A    between atoms: C_3  and  N_4
REMARK    3  A    between atoms: N_4  and  C_5
REMARK    4  A    between atoms: C_5  and  C_6
REMARK    5  A    between atoms: C_6  and  N_7
REMARK    6  A    between atoms: C_14  and  C_15
REMARK    7  A    between atoms: N_19  and  C_20
REMARK                            x       y       z     vdW  Elec       q    Type
REMARK                         _______ _______ _______ _____ _____    ______ ____
ROOT
ATOM      1  C   UNL     1       1.948  10.186  17.906  0.00  0.00    +0.000 C 
ATOM      2  N   UNL     1       1.488  11.027  19.010  0.00  0.00    +0.000 N 
ATOM      3  C   UNL     1       0.844  10.465  20.106  0.00  0.00    +0.000 A 
ATOM      4  C   UNL     1       0.473  11.274  21.128  0.00  0.00    +0.000 A 
ATOM      5  C   UNL     1       0.715  12.726  21.063  0.00  0.00    +0.000 A 
ATOM      6  O   UNL     1       0.373  13.446  22.001  0.00  0.00    +0.000 OA
ATOM      7  N   UNL     1       1.316  13.194  19.914  0.00  0.00    +0.000 N 
ATOM      8  C   UNL     1       1.547  14.620  19.772  0.00  0.00    +0.000 C 
ATOM      9  C   UNL     1       1.746  12.392  18.875  0.00  0.00    +0.000 A 
ATOM     10  O   UNL     1       2.311  12.853  17.887  0.00  0.00    +0.000 OA
ENDROOT
BRANCH   3  11
ATOM     11  N   UNL     1       0.597   9.093  20.073  0.00  0.00    +0.000 N 
ATOM     12  H   UNL     1       0.383   8.723  19.144  0.00  0.00    +0.000 HD
BRANCH  11  13
ATOM     13  C   UNL     1       1.459   8.160  20.810  0.00  0.00    +0.000 C 
BRANCH  13  14
ATOM     14  C   UNL     1       2.293   7.278  19.853  0.00  0.00    +0.000 C 
BRANCH  14  15
ATOM     15  N   UNL     1       1.782   5.912  19.568  0.00  0.00    +0.000 NA
ATOM     16  C   UNL     1       2.518   5.244  18.489  0.00  0.00    +0.000 C 
ATOM     17  C   UNL     1       1.631   4.245  17.740  0.00  0.00    +0.000 C 
ATOM     18  C   UNL     1       1.450   2.894  18.420  0.00  0.00    +0.000 C 
ATOM     19  C   UNL     1       0.889   2.968  19.835  0.00  0.00    +0.000 C 
ATOM     20  C   UNL     1       1.861   3.628  20.800  0.00  0.00    +0.000 C 
ATOM     21  C   UNL     1       1.769   5.156  20.840  0.00  0.00    +0.000 C 
ENDBRANCH  14  15
ENDBRANCH  13  14
ENDBRANCH  11  13
ENDBRANCH   3  11
BRANCH   4  22
ATOM     22  C   UNL     1      -0.208  10.716  22.366  0.00  0.00    +0.000 C 
ATOM     23  N   UNL     1      -0.774  10.253  23.394  0.00  0.00    +0.000 NA
ENDBRANCH   4  22
TORSDOF 5
ENDMDL
MODEL 6
REMARK VINA RESULT:      -6.1      3.477      7.642
REMARK  Name = 
REMARK  7 active torsions:
REMARK  status: ('A' for Active; 'I' for Inactive)
REMARK    1  A    between atoms: C_1  and  N_2
REMARK    2  A    between atoms: C_3  and  N_4
REMARK    3  A    between atoms: N_4  and  C_5
REMARK    4  A    between atoms: C_5  and  C_6
REMARK    5  A    between atoms: C_6  and  N_7
REMARK    6  A    between atoms: C_14  and  C_15
REMARK    7  A    between atoms: N_19  and  C_20
REMARK                            x       y       z     vdW  Elec       q    Type
REMARK                         _______ _______ _______ _____ _____    ______ ____
ROOT
ATOM      1  C   UNL     1       1.719   5.847  20.539  0.00  0.00    +0.000 C 
ATOM      2  N   UNL     1       2.517   5.232  19.480  0.00  0.00    +0.000 N 
ATOM      3  C   UNL     1       3.186   6.021  18.551  0.00  0.00    +0.000 A 
ATOM      4  C   UNL     1       3.951   5.412  17.612  0.00  0.00    +0.000 A 
ATOM      5  C   UNL     1       4.043   3.944  17.554  0.00  0.00    +0.000 A 
ATOM      6  O   UNL     1       4.743   3.407  16.695  0.00  0.00    +0.000 OA
ATOM      7  N   UNL     1       3.305   3.248  18.488  0.00  0.00    +0.000 N 
ATOM      8  C   UNL     1       3.322   1.797  18.459  0.00  0.00    +0.000 C 
ATOM      9  C   UNL     1       2.552   3.837  19.484  0.00  0.00    +0.000 A 
ATOM     10  O   UNL     1       1.940   3.174  20.318  0.00  0.00    +0.000 OA
ENDROOT
BRANCH   3  11
ATOM     11  N   UNL     1       3.007   7.401  18.631  0.00  0.00    +0.000 N 
ATOM     12  H   UNL     1       3.875   7.942  18.632  0.00  0.00    +0.000 HD
BRANCH  11  13
ATOM     13  C   UNL     1       1.988   8.072  17.815  0.00  0.00    +0.000 C 
BRANCH  13  14
ATOM     14  C   UNL     1       2.145   9.609  17.855  0.00  0.00    +0.000 C 
BRANCH  14  15
ATOM     15  N   UNL     1       1.251  10.360  18.773  0.00  0.00    +0.000 NA
ATOM     16  C   UNL     1       1.550  11.796  18.807  0.00  0.00    +0.000 C 
ATOM     17  C   UNL     1       1.187  12.413  20.161  0.00  0.00    +0.000 C 
ATOM     18  C   UNL     1      -0.288  12.740  20.357  0.00  0.00    +0.000 C 
ATOM     19  C   UNL     1      -1.229  11.555  20.173  0.00  0.00    +0.000 C 
ATOM     20  C   UNL     1      -1.250  11.060  18.737  0.00  0.00    +0.000 C 
ATOM     21  C   UNL     1      -0.148  10.050  18.403  0.00  0.00    +0.000 C 
ENDBRANCH  14  15
ENDBRANCH  13  14
ENDBRANCH  11  13
ENDBRANCH   3  11
BRANCH   4  22
ATOM     22  C   UNL     1       4.730   6.220  16.587  0.00  0.00    +0.000 C 
ATOM     23  N   UNL     1       5.377   6.890  15.737  0.00  0.00    +0.000 NA
ENDBRANCH   4  22
TORSDOF 5
ENDMDL
MODEL 7
REMARK VINA RESULT:      -6.1      3.154      7.479
REMARK  Name = 
REMARK  7 active torsions:
REMARK  status: ('A' for Active; 'I' for Inactive)
REMARK    1  A    between atoms: C_1  and  N_2
REMARK    2  A    between atoms: C_3  and  N_4
REMARK    3  A    between atoms: N_4  and  C_5
REMARK    4  A    between atoms: C_5  and  C_6
REMARK    5  A    between atoms: C_6  and  N_7
REMARK    6  A    between atoms: C_14  and  C_15
REMARK    7  A    between atoms: N_19  and  C_20
REMARK                            x       y       z     vdW  Elec       q    Type
REMARK                         _______ _______ _______ _____ _____    ______ ____
ROOT
ATOM      1  C   UNL     1       2.787   4.340  21.028  0.00  0.00    +0.000 C 
ATOM      2  N   UNL     1       3.250   5.043  19.833  0.00  0.00    +0.000 N 
ATOM      3  C   UNL     1       2.649   6.232  19.436  0.00  0.00    +0.000 A 
ATOM      4  C   UNL     1       3.137   6.875  18.347  0.00  0.00    +0.000 A 
ATOM      5  C   UNL     1       4.258   6.308  17.579  0.00  0.00    +0.000 A 
ATOM      6  O   UNL     1       4.690   6.905  16.592  0.00  0.00    +0.000 OA
ATOM      7  N   UNL     1       4.754   5.101  18.023  0.00  0.00    +0.000 N 
ATOM      8  C   UNL     1       5.834   4.469  17.286  0.00  0.00    +0.000 C 
ATOM      9  C   UNL     1       4.310   4.442  19.152  0.00  0.00    +0.000 A 
ATOM     10  O   UNL     1       4.810   3.386  19.530  0.00  0.00    +0.000 OA
ENDROOT
BRANCH   3  11
ATOM     11  N   UNL     1       1.557   6.681  20.177  0.00  0.00    +0.000 N 
ATOM     12  H   UNL     1       1.038   5.942  20.657  0.00  0.00    +0.000 HD
BRANCH  11  13
ATOM     13  C   UNL     1       1.671   7.866  21.036  0.00  0.00    +0.000 C 
BRANCH  13  14
ATOM     14  C   UNL     1       0.287   8.364  21.509  0.00  0.00    +0.000 C 
BRANCH  14  15
ATOM     15  N   UNL     1       0.085   9.833  21.596  0.00  0.00    +0.000 NA
ATOM     16  C   UNL     1      -0.562  10.389  20.403  0.00  0.00    +0.000 C 
ATOM     17  C   UNL     1      -0.145  11.844  20.165  0.00  0.00    +0.000 C 
ATOM     18  C   UNL     1      -0.871  12.880  21.013  0.00  0.00    +0.000 C 
ATOM     19  C   UNL     1      -0.762  12.657  22.516  0.00  0.00    +0.000 C 
ATOM     20  C   UNL     1      -1.481  11.393  22.959  0.00  0.00    +0.000 C 
ATOM     21  C   UNL     1      -0.637  10.119  22.856  0.00  0.00    +0.000 C 
ENDBRANCH  14  15
ENDBRANCH  13  14
ENDBRANCH  11  13
ENDBRANCH   3  11
BRANCH   4  22
ATOM     22  C   UNL     1       2.543   8.194  17.879  0.00  0.00    +0.000 C 
ATOM     23  N   UNL     1       2.050   9.287  17.491  0.00  0.00    +0.000 NA
ENDBRANCH   4  22
TORSDOF 5
ENDMDL
MODEL 8
REMARK VINA RESULT:      -6.0      1.732      3.179
REMARK  Name = 
REMARK  7 active torsions:
REMARK  status: ('A' for Active; 'I' for Inactive)
REMARK    1  A    between atoms: C_1  and  N_2
REMARK    2  A    between atoms: C_3  and  N_4
REMARK    3  A    between atoms: N_4  and  C_5
REMARK    4  A    between atoms: C_5  and  C_6
REMARK    5  A    between atoms: C_6  and  N_7
REMARK    6  A    between atoms: C_14  and  C_15
REMARK    7  A    between atoms: N_19  and  C_20
REMARK                            x       y       z     vdW  Elec       q    Type
REMARK                         _______ _______ _______ _____ _____    ______ ____
ROOT
ATOM      1  C   UNL     1       1.894   9.643  17.886  0.00  0.00    +0.000 C 
ATOM      2  N   UNL     1       1.526  10.583  18.943  0.00  0.00    +0.000 N 
ATOM      3  C   UNL     1       0.856  10.142  20.078  0.00  0.00    +0.000 A 
ATOM      4  C   UNL     1       0.573  11.039  21.054  0.00  0.00    +0.000 A 
ATOM      5  C   UNL     1       0.935  12.458  20.900  0.00  0.00    +0.000 A 
ATOM      6  O   UNL     1       0.670  13.259  21.798  0.00  0.00    +0.000 OA
ATOM      7  N   UNL     1       1.553  12.805  19.718  0.00  0.00    +0.000 N 
ATOM      8  C   UNL     1       1.900  14.196  19.488  0.00  0.00    +0.000 C 
ATOM      9  C   UNL     1       1.896  11.911  18.724  0.00  0.00    +0.000 A 
ATOM     10  O   UNL     1       2.480  12.263  17.703  0.00  0.00    +0.000 OA
ENDROOT
BRANCH   3  11
ATOM     11  N   UNL     1       0.494   8.797  20.131  0.00  0.00    +0.000 N 
ATOM     12  H   UNL     1       0.211   8.399  19.233  0.00  0.00    +0.000 HD
BRANCH  11  13
ATOM     13  C   UNL     1       1.305   7.833  20.885  0.00  0.00    +0.000 C 
BRANCH  13  14
ATOM     14  C   UNL     1       2.377   7.169  19.993  0.00  0.00    +0.000 C 
BRANCH  14  15
ATOM     15  N   UNL     1       2.247   5.710  19.744  0.00  0.00    +0.000 NA
ATOM     16  C   UNL     1       1.080   5.122  20.411  0.00  0.00    +0.000 C 
ATOM     17  C   UNL     1       1.316   3.649  20.758  0.00  0.00    +0.000 C 
ATOM     18  C   UNL     1       1.124   2.667  19.610  0.00  0.00    +0.000 C 
ATOM     19  C   UNL     1       1.987   2.948  18.386  0.00  0.00    +0.000 C 
ATOM     20  C   UNL     1       1.597   4.247  17.699  0.00  0.00    +0.000 C 
ATOM     21  C   UNL     1       2.270   5.493  18.280  0.00  0.00    +0.000 C 
ENDBRANCH  14  15
ENDBRANCH  13  14
ENDBRANCH  11  13
ENDBRANCH   3  11
BRANCH   4  22
ATOM     22  C   UNL     1      -0.132  10.614  22.332  0.00  0.00    +0.000 C 
ATOM     23  N   UNL     1      -0.716  10.262  23.393  0.00  0.00    +0.000 NA
ENDBRANCH   4  22
TORSDOF 5
ENDMDL
MODEL 9
REMARK VINA RESULT:      -6.0      3.221      7.888
REMARK  Name = 
REMARK  7 active torsions:
REMARK  status: ('A' for Active; 'I' for Inactive)
REMARK    1  A    between atoms: C_1  and  N_2
REMARK    2  A    between atoms: C_3  and  N_4
REMARK    3  A    between atoms: N_4  and  C_5
REMARK    4  A    between atoms: C_5  and  C_6
REMARK    5  A    between atoms: C_6  and  N_7
REMARK    6  A    between atoms: C_14  and  C_15
REMARK    7  A    between atoms: N_19  and  C_20
REMARK                            x       y       z     vdW  Elec       q    Type
REMARK                         _______ _______ _______ _____ _____    ______ ____
ROOT
ATOM      1  C   UNL     1       2.557   7.953  18.081  0.00  0.00    +0.000 C 
ATOM      2  N   UNL     1       3.160   6.702  18.538  0.00  0.00    +0.000 N 
ATOM      3  C   UNL     1       2.610   6.001  19.604  0.00  0.00    +0.000 A 
ATOM      4  C   UNL     1       3.174   4.823  19.967  0.00  0.00    +0.000 A 
ATOM      5  C   UNL     1       4.367   4.314  19.269  0.00  0.00    +0.000 A 
ATOM      6  O   UNL     1       4.867   3.242  19.612  0.00  0.00    +0.000 OA
ATOM      7  N   UNL     1       4.867   5.106  18.257  0.00  0.00    +0.000 N 
ATOM      8  C   UNL     1       6.064   4.679  17.556  0.00  0.00    +0.000 C 
ATOM      9  C   UNL     1       4.291   6.287  17.834  0.00  0.00    +0.000 A 
ATOM     10  O   UNL     1       4.753   6.940  16.901  0.00  0.00    +0.000 OA
ENDROOT
BRANCH   3  11
ATOM     11  N   UNL     1       1.516   6.570  20.254  0.00  0.00    +0.000 N 
ATOM     12  H   UNL     1       0.982   5.920  20.834  0.00  0.00    +0.000 HD
BRANCH  11  13
ATOM     13  C   UNL     1       1.639   7.871  20.925  0.00  0.00    +0.000 C 
BRANCH  13  14
ATOM     14  C   UNL     1       0.290   8.335  21.520  0.00  0.00    +0.000 C 
BRANCH  14  15
ATOM     15  N   UNL     1       0.074   9.798  21.654  0.00  0.00    +0.000 NA
ATOM     16  C   UNL     1      -0.548  10.392  20.465  0.00  0.00    +0.000 C 
ATOM     17  C   UNL     1      -0.137  11.857  20.289  0.00  0.00    +0.000 C 
ATOM     18  C   UNL     1      -0.893  12.857  21.154  0.00  0.00    +0.000 C 
ATOM     19  C   UNL     1      -0.820  12.581  22.651  0.00  0.00    +0.000 C 
ATOM     20  C   UNL     1      -1.540  11.297  23.031  0.00  0.00    +0.000 C 
ATOM     21  C   UNL     1      -0.682  10.035  22.904  0.00  0.00    +0.000 C 
ENDBRANCH  14  15
ENDBRANCH  13  14
ENDBRANCH  11  13
ENDBRANCH   3  11
BRANCH   4  22
ATOM     22  C   UNL     1       2.602   3.994  21.106  0.00  0.00    +0.000 C 
ATOM     23  N   UNL     1       2.128   3.307  22.050  0.00  0.00    +0.000 NA
ENDBRANCH   4  22
TORSDOF 5
ENDMDL
