MODEL 1
REMARK VINA RESULT:      -6.3      0.000      0.000
REMARK  Name = 
REMARK  7 active torsions:
REMARK  status: ('A' for Active; 'I' for Inactive)
REMARK    1  A    between atoms: C_1  and  O_2
REMARK    2  A    between atoms: O_2  and  C_3
REMARK    3  A    between atoms: C_7  and  O_8
REMARK    4  A    between atoms: O_8  and  C_9
REMARK    5  A    between atoms: C_10  and  C_11
REMARK    6  A    between atoms: C_11  and  C_13
REMARK    7  A    between atoms: C_14  and  C_15
REMARK                            x       y       z     vdW  Elec       q    Type
REMARK                         _______ _______ _______ _____ _____    ______ ____
ROOT
ATOM      1  C   UNL     1       2.405   4.989  20.451  0.00  0.00    +0.000 C 
ATOM      2  O   UNL     1       2.666   4.451  21.526  0.00  0.00    +0.000 OA
ENDROOT
BRANCH   1   8
ATOM      3  C   UNL     1       2.196   3.774  18.266  0.00  0.00    +0.000 A 
ATOM      4  C   UNL     1       2.725   3.374  17.030  0.00  0.00    +0.000 A 
ATOM      5  C   UNL     1       4.040   3.665  16.696  0.00  0.00    +0.000 A 
ATOM      6  C   UNL     1       4.847   4.347  17.600  0.00  0.00    +0.000 A 
ATOM      7  C   UNL     1       4.354   4.763  18.848  0.00  0.00    +0.000 A 
ATOM      8  C   UNL     1       3.019   4.453  19.200  0.00  0.00    +0.000 A 
BRANCH   3  10
ATOM      9  C   UNL     1       0.650   2.099  18.938  0.00  0.00    +0.000 C 
ATOM     10  O   UNL     1       0.907   3.473  18.624  0.00  0.00    +0.000 OA
ENDBRANCH   3  10
BRANCH   7  11
ATOM     11  O   UNL     1       5.119   5.463  19.746  0.00  0.00    +0.000 OA
ATOM     12  C   UNL     1       6.519   5.529  19.461  0.00  0.00    +0.000 C 
ENDBRANCH   7  11
ENDBRANCH   1   8
BRANCH   1  13
ATOM     13  C   UNL     1       1.497   6.187  20.390  0.00  0.00    +0.000 C 
ATOM     14  C   UNL     1       2.063   7.406  20.270  0.00  0.00    +0.000 C 
BRANCH  14  15
ATOM     15  C   UNL     1       1.426   8.739  20.071  0.00  0.00    +0.000 A 
ATOM     16  C   UNL     1       1.394   9.318  18.779  0.00  0.00    +0.000 A 
ATOM     17 CL   UNL     1       2.242   8.628  17.428  0.00  0.00    +0.000 Cl
ATOM     18  C   UNL     1       0.662  10.488  18.508  0.00  0.00    +0.000 A 
ATOM     19  C   UNL     1      -0.062  11.112  19.514  0.00  0.00    +0.000 A 
ATOM     20  C   UNL     1      -0.046  10.570  20.795  0.00  0.00    +0.000 A 
ATOM     21  C   UNL     1       0.682   9.396  21.072  0.00  0.00    +0.000 A 
ATOM     22 CL   UNL     1       0.533   8.793  22.689  0.00  0.00    +0.000 Cl
ENDBRANCH  14  15
ENDBRANCH   1  13
TORSDOF 5
ENDMDL
MODEL 2
REMARK VINA RESULT:      -6.1      0.148      2.720
REMARK  Name = 
REMARK  7 active torsions:
REMARK  status: ('A' for Active; 'I' for Inactive)
REMARK    1  A    between atoms: C_1  and  O_2
REMARK    2  A    between atoms: O_2  and  C_3
REMARK    3  A    between atoms: C_7  and  O_8
REMARK    4  A    between atoms: O_8  and  C_9
REMARK    5  A    between atoms: C_10  and  C_11
REMARK    6  A    between atoms: C_11  and  C_13
REMARK    7  A    between atoms: C_14  and  C_15
REMARK                            x       y       z     vdW  Elec       q    Type
REMARK                         _______ _______ _______ _____ _____    ______ ____
ROOT
ATOM      1  C   UNL     1       2.423   5.052  20.365  0.00  0.00    +0.000 C 
ATOM      2  O   UNL     1       2.717   4.453  21.398  0.00  0.00    +0.000 OA
ENDROOT
BRANCH   1   8
ATOM      3  C   UNL     1       4.369   4.789  18.804  0.00  0.00    +0.000 A 
ATOM      4  C   UNL     1       4.947   4.250  17.645  0.00  0.00    +0.000 A 
ATOM      5  C   UNL     1       4.191   3.489  16.765  0.00  0.00    +0.000 A 
ATOM      6  C   UNL     1       2.842   3.271  17.025  0.00  0.00    +0.000 A 
ATOM      7  C   UNL     1       2.227   3.796  18.173  0.00  0.00    +0.000 A 
ATOM      8  C   UNL     1       2.990   4.586  19.064  0.00  0.00    +0.000 A 
BRANCH   3  10
ATOM      9  C   UNL     1       6.512   5.569  19.470  0.00  0.00    +0.000 C 
ATOM     10  O   UNL     1       5.094   5.565  19.672  0.00  0.00    +0.000 OA
ENDBRANCH   3  10
BRANCH   7  11
ATOM     11  O   UNL     1       0.906   3.571  18.469  0.00  0.00    +0.000 OA
ATOM     12  C   UNL     1       0.582   2.258  18.934  0.00  0.00    +0.000 C 
ENDBRANCH   7  11
ENDBRANCH   1   8
BRANCH   1  13
ATOM     13  C   UNL     1       1.523   6.257  20.404  0.00  0.00    +0.000 C 
ATOM     14  C   UNL     1       2.079   7.471  20.209  0.00  0.00    +0.000 C 
BRANCH  14  15
ATOM     15  C   UNL     1       1.431   8.807  20.077  0.00  0.00    +0.000 A 
ATOM     16  C   UNL     1       1.313   9.411  18.801  0.00  0.00    +0.000 A 
ATOM     17 CL   UNL     1       2.068   8.745  17.384  0.00  0.00    +0.000 Cl
ATOM     18  C   UNL     1       0.567  10.586  18.602  0.00  0.00    +0.000 A 
ATOM     19  C   UNL     1      -0.087  11.191  19.665  0.00  0.00    +0.000 A 
ATOM     20  C   UNL     1       0.014  10.625  20.932  0.00  0.00    +0.000 A 
ATOM     21  C   UNL     1       0.758   9.447  21.138  0.00  0.00    +0.000 A 
ATOM     22 CL   UNL     1       0.717   8.813  22.751  0.00  0.00    +0.000 Cl
ENDBRANCH  14  15
ENDBRANCH   1  13
TORSDOF 5
ENDMDL
MODEL 3
REMARK VINA RESULT:      -6.0      2.521      4.780
REMARK  Name = 
REMARK  7 active torsions:
REMARK  status: ('A' for Active; 'I' for Inactive)
REMARK    1  A    between atoms: C_1  and  O_2
REMARK    2  A    between atoms: O_2  and  C_3
REMARK    3  A    between atoms: C_7  and  O_8
REMARK    4  A    between atoms: O_8  and  C_9
REMARK    5  A    between atoms: C_10  and  C_11
REMARK    6  A    between atoms: C_11  and  C_13
REMARK    7  A    between atoms: C_14  and  C_15
REMARK                            x       y       z     vdW  Elec       q    Type
REMARK                         _______ _______ _______ _____ _____    ______ ____
ROOT
ATOM      1  C   UNL     1       4.870   6.794  16.378  0.00  0.00    +0.000 C 
ATOM      2  O   UNL     1       5.085   6.892  15.171  0.00  0.00    +0.000 OA
ENDROOT
BRANCH   1   8
ATOM      3  C   UNL     1       6.992   7.042  17.692  0.00  0.00    +0.000 A 
ATOM      4  C   UNL     1       7.924   6.556  18.621  0.00  0.00    +0.000 A 
ATOM      5  C   UNL     1       7.793   5.280  19.152  0.00  0.00    +0.000 A 
ATOM      6  C   UNL     1       6.737   4.469  18.748  0.00  0.00    +0.000 A 
ATOM      7  C   UNL     1       5.786   4.921  17.819  0.00  0.00    +0.000 A 
ATOM      8  C   UNL     1       5.924   6.214  17.263  0.00  0.00    +0.000 A 
BRANCH   3  10
ATOM      9  C   UNL     1       8.033   9.176  17.795  0.00  0.00    +0.000 C 
ATOM     10  O   UNL     1       7.119   8.290  17.138  0.00  0.00    +0.000 OA
ENDBRANCH   3  10
BRANCH   7  11
ATOM     11  O   UNL     1       4.718   4.154  17.427  0.00  0.00    +0.000 OA
ATOM     12  C   UNL     1       4.247   3.198  18.381  0.00  0.00    +0.000 C 
ENDBRANCH   7  11
ENDBRANCH   1   8
BRANCH   1  13
ATOM     13  C   UNL     1       3.553   7.227  16.963  0.00  0.00    +0.000 C 
ATOM     14  C   UNL     1       3.427   7.237  18.306  0.00  0.00    +0.000 C 
BRANCH  14  15
ATOM     15  C   UNL     1       2.303   7.722  19.157  0.00  0.00    +0.000 A 
ATOM     16  C   UNL     1       1.887   6.960  20.276  0.00  0.00    +0.000 A 
ATOM     17 CL   UNL     1       2.507   5.369  20.601  0.00  0.00    +0.000 Cl
ATOM     18  C   UNL     1       0.950   7.452  21.202  0.00  0.00    +0.000 A 
ATOM     19  C   UNL     1       0.403   8.717  21.042  0.00  0.00    +0.000 A 
ATOM     20  C   UNL     1       0.788   9.487  19.949  0.00  0.00    +0.000 A 
ATOM     21  C   UNL     1       1.728   9.002  19.021  0.00  0.00    +0.000 A 
ATOM     22 CL   UNL     1       2.173  10.110  17.765  0.00  0.00    +0.000 Cl
ENDBRANCH  14  15
ENDBRANCH   1  13
TORSDOF 5
ENDMDL
MODEL 4
REMARK VINA RESULT:      -6.0      1.382      2.689
REMARK  Name = 
REMARK  7 active torsions:
REMARK  status: ('A' for Active; 'I' for Inactive)
REMARK    1  A    between atoms: C_1  and  O_2
REMARK    2  A    between atoms: O_2  and  C_3
REMARK    3  A    between atoms: C_7  and  O_8
REMARK    4  A    between atoms: O_8  and  C_9
REMARK    5  A    between atoms: C_10  and  C_11
REMARK    6  A    between atoms: C_11  and  C_13
REMARK    7  A    between atoms: C_14  and  C_15
REMARK                            x       y       z     vdW  Elec       q    Type
REMARK                         _______ _______ _______ _____ _____    ______ ____
ROOT
ATOM      1  C   UNL     1       1.921   5.635  20.523  0.00  0.00    +0.000 C 
ATOM      2  O   UNL     1       2.665   5.508  21.494  0.00  0.00    +0.000 OA
ENDROOT
BRANCH   1   8
ATOM      3  C   UNL     1       2.711   4.917  18.253  0.00  0.00    +0.000 A 
ATOM      4  C   UNL     1       2.876   3.934  17.266  0.00  0.00    +0.000 A 
ATOM      5  C   UNL     1       2.351   2.661  17.440  0.00  0.00    +0.000 A 
ATOM      6  C   UNL     1       1.640   2.361  18.598  0.00  0.00    +0.000 A 
ATOM      7  C   UNL     1       1.453   3.319  19.607  0.00  0.00    +0.000 A 
ATOM      8  C   UNL     1       1.972   4.622  19.427  0.00  0.00    +0.000 A 
BRANCH   3  10
ATOM      9  C   UNL     1       4.554   6.280  17.624  0.00  0.00    +0.000 C 
ATOM     10  O   UNL     1       3.201   6.187  18.087  0.00  0.00    +0.000 OA
ENDBRANCH   3  10
BRANCH   7  11
ATOM     11  O   UNL     1       0.782   3.040  20.772  0.00  0.00    +0.000 OA
ATOM     12  C   UNL     1       1.535   2.365  21.783  0.00  0.00    +0.000 C 
ENDBRANCH   7  11
ENDBRANCH   1   8
BRANCH   1  13
ATOM     13  C   UNL     1       0.983   6.807  20.420  0.00  0.00    +0.000 C 
ATOM     14  C   UNL     1       1.474   8.037  20.678  0.00  0.00    +0.000 C 
BRANCH  14  15
ATOM     15  C   UNL     1       0.825   9.372  20.543  0.00  0.00    +0.000 A 
ATOM     16  C   UNL     1       0.709   9.974  19.266  0.00  0.00    +0.000 A 
ATOM     17 CL   UNL     1       1.468   9.309  17.851  0.00  0.00    +0.000 Cl
ATOM     18  C   UNL     1      -0.039  11.147  19.064  0.00  0.00    +0.000 A 
ATOM     19  C   UNL     1      -0.697  11.752  20.125  0.00  0.00    +0.000 A 
ATOM     20  C   UNL     1      -0.598  11.187  21.393  0.00  0.00    +0.000 A 
ATOM     21  C   UNL     1       0.147  10.011  21.601  0.00  0.00    +0.000 A 
ATOM     22 CL   UNL     1       0.104   9.379  23.215  0.00  0.00    +0.000 Cl
ENDBRANCH  14  15
ENDBRANCH   1  13
TORSDOF 5
ENDMDL
MODEL 5
REMARK VINA RESULT:      -5.9      0.764      2.116
REMARK  Name = 
REMARK  7 active torsions:
REMARK  status: ('A' for Active; 'I' for Inactive)
REMARK    1  A    between atoms: C_1  and  O_2
REMARK    2  A    between atoms: O_2  and  C_3
REMARK    3  A    between atoms: C_7  and  O_8
REMARK    4  A    between atoms: O_8  and  C_9
REMARK    5  A    between atoms: C_10  and  C_11
REMARK    6  A    between atoms: C_11  and  C_13
REMARK    7  A    between atoms: C_14  and  C_15
REMARK                            x       y       z     vdW  Elec       q    Type
REMARK                         _______ _______ _______ _____ _____    ______ ____
ROOT
ATOM      1  C   UNL     1       2.595   5.754  19.901  0.00  0.00    +0.000 C 
ATOM      2  O   UNL     1       2.389   5.349  21.044  0.00  0.00    +0.000 OA
ENDROOT
BRANCH   1   8
ATOM      3  C   UNL     1       2.453   4.014  18.100  0.00  0.00    +0.000 A 
ATOM      4  C   UNL     1       3.045   3.249  17.084  0.00  0.00    +0.000 A 
ATOM      5  C   UNL     1       4.410   3.327  16.843  0.00  0.00    +0.000 A 
ATOM      6  C   UNL     1       5.202   4.159  17.628  0.00  0.00    +0.000 A 
ATOM      7  C   UNL     1       4.646   4.938  18.655  0.00  0.00    +0.000 A 
ATOM      8  C   UNL     1       3.258   4.849  18.915  0.00  0.00    +0.000 A 
BRANCH   3  10
ATOM      9  C   UNL     1       0.639   2.651  18.806  0.00  0.00    +0.000 C 
ATOM     10  O   UNL     1       1.111   3.931  18.368  0.00  0.00    +0.000 OA
ENDBRANCH   3  10
BRANCH   7  11
ATOM     11  O   UNL     1       5.399   5.789  19.424  0.00  0.00    +0.000 OA
ATOM     12  C   UNL     1       6.816   5.612  19.352  0.00  0.00    +0.000 C 
ENDBRANCH   7  11
ENDBRANCH   1   8
BRANCH   1  13
ATOM     13  C   UNL     1       2.210   7.152  19.498  0.00  0.00    +0.000 C 
ATOM     14  C   UNL     1       1.453   7.872  20.351  0.00  0.00    +0.000 C 
BRANCH  14  15
ATOM     15  C   UNL     1       1.024   9.298  20.277  0.00  0.00    +0.000 A 
ATOM     16  C   UNL     1       0.583   9.963  21.447  0.00  0.00    +0.000 A 
ATOM     17 CL   UNL     1       0.333   9.131  22.953  0.00  0.00    +0.000 Cl
ATOM     18  C   UNL     1       0.329  11.346  21.464  0.00  0.00    +0.000 A 
ATOM     19  C   UNL     1       0.510  12.107  20.317  0.00  0.00    +0.000 A 
ATOM     20  C   UNL     1       0.938  11.481  19.151  0.00  0.00    +0.000 A 
ATOM     21  C   UNL     1       1.197  10.097  19.129  0.00  0.00    +0.000 A 
ATOM     22 CL   UNL     1       1.808   9.479  17.629  0.00  0.00    +0.000 Cl
ENDBRANCH  14  15
ENDBRANCH   1  13
TORSDOF 5
ENDMDL
MODEL 6
REMARK VINA RESULT:      -5.9      3.031      7.132
REMARK  Name = 
REMARK  7 active torsions:
REMARK  status: ('A' for Active; 'I' for Inactive)
REMARK    1  A    between atoms: C_1  and  O_2
REMARK    2  A    between atoms: O_2  and  C_3
REMARK    3  A    between atoms: C_7  and  O_8
REMARK    4  A    between atoms: O_8  and  C_9
REMARK    5  A    between atoms: C_10  and  C_11
REMARK    6  A    between atoms: C_11  and  C_13
REMARK    7  A    between atoms: C_14  and  C_15
REMARK                            x       y       z     vdW  Elec       q    Type
REMARK                         _______ _______ _______ _____ _____    ______ ____
ROOT
ATOM      1  C   UNL     1       1.248   9.596  18.177  0.00  0.00    +0.000 C 
ATOM      2  O   UNL     1       2.047  10.324  17.589  0.00  0.00    +0.000 OA
ENDROOT
BRANCH   1   8
ATOM      3  C   UNL     1       0.208  10.685  20.183  0.00  0.00    +0.000 A 
ATOM      4  C   UNL     1      -0.850  11.374  20.794  0.00  0.00    +0.000 A 
ATOM      5  C   UNL     1      -2.026  11.624  20.100  0.00  0.00    +0.000 A 
ATOM      6  C   UNL     1      -2.164  11.174  18.791  0.00  0.00    +0.000 A 
ATOM      7  C   UNL     1      -1.127  10.479  18.147  0.00  0.00    +0.000 A 
ATOM      8  C   UNL     1       0.067  10.208  18.855  0.00  0.00    +0.000 A 
BRANCH   3  10
ATOM      9  C   UNL     1       1.270   9.406  21.881  0.00  0.00    +0.000 C 
ATOM     10  O   UNL     1       1.368  10.407  20.861  0.00  0.00    +0.000 OA
ENDBRANCH   3  10
BRANCH   7  11
ATOM     11  O   UNL     1      -1.224  10.051  16.847  0.00  0.00    +0.000 OA
ATOM     12  C   UNL     1      -2.544  10.008  16.298  0.00  0.00    +0.000 C 
ENDBRANCH   7  11
ENDBRANCH   1   8
BRANCH   1  13
ATOM     13  C   UNL     1       1.463   8.108  18.237  0.00  0.00    +0.000 C 
ATOM     14  C   UNL     1       2.730   7.648  18.189  0.00  0.00    +0.000 C 
BRANCH  14  15
ATOM     15  C   UNL     1       3.248   6.259  18.345  0.00  0.00    +0.000 A 
ATOM     16  C   UNL     1       4.277   5.790  17.491  0.00  0.00    +0.000 A 
ATOM     17 CL   UNL     1       4.841   6.704  16.124  0.00  0.00    +0.000 Cl
ATOM     18  C   UNL     1       4.912   4.554  17.703  0.00  0.00    +0.000 A 
ATOM     19  C   UNL     1       4.546   3.751  18.775  0.00  0.00    +0.000 A 
ATOM     20  C   UNL     1       3.536   4.183  19.628  0.00  0.00    +0.000 A 
ATOM     21  C   UNL     1       2.898   5.421  19.422  0.00  0.00    +0.000 A 
ATOM     22 CL   UNL     1       1.723   5.860  20.619  0.00  0.00    +0.000 Cl
ENDBRANCH  14  15
ENDBRANCH   1  13
TORSDOF 5
ENDMDL
MODEL 7
REMARK VINA RESULT:      -5.9      2.995      7.333
REMARK  Name = 
REMARK  7 active torsions:
REMARK  status: ('A' for Active; 'I' for Inactive)
REMARK    1  A    between atoms: C_1  and  O_2
REMARK    2  A    between atoms: O_2  and  C_3
REMARK    3  A    between atoms: C_7  and  O_8
REMARK    4  A    between atoms: O_8  and  C_9
REMARK    5  A    between atoms: C_10  and  C_11
REMARK    6  A    between atoms: C_11  and  C_13
REMARK    7  A    between atoms: C_14  and  C_15
REMARK                            x       y       z     vdW  Elec       q    Type
REMARK                         _______ _______ _______ _____ _____    ______ ____
ROOT
ATOM      1  C   UNL     1       1.333   9.645  18.186  0.00  0.00    +0.000 C 
ATOM      2  O   UNL     1       2.142  10.427  17.690  0.00  0.00    +0.000 OA
ENDROOT
BRANCH   1   8
ATOM      3  C   UNL     1       0.287  10.577  20.267  0.00  0.00    +0.000 A 
ATOM      4  C   UNL     1      -0.779  11.203  20.929  0.00  0.00    +0.000 A 
ATOM      5  C   UNL     1      -1.965  11.474  20.261  0.00  0.00    +0.000 A 
ATOM      6  C   UNL     1      -2.104  11.109  18.926  0.00  0.00    +0.000 A 
ATOM      7  C   UNL     1      -1.059  10.480  18.230  0.00  0.00    +0.000 A 
ATOM      8  C   UNL     1       0.145  10.186  18.911  0.00  0.00    +0.000 A 
BRANCH   3  10
ATOM      9  C   UNL     1       1.364   9.285  21.946  0.00  0.00    +0.000 C 
ATOM     10  O   UNL     1       1.457  10.278  20.918  0.00  0.00    +0.000 OA
ENDBRANCH   3  10
BRANCH   7  11
ATOM     11  O   UNL     1      -1.158  10.137  16.905  0.00  0.00    +0.000 OA
ATOM     12  C   UNL     1      -2.485   9.976  16.396  0.00  0.00    +0.000 C 
ENDBRANCH   7  11
ENDBRANCH   1   8
BRANCH   1  13
ATOM     13  C   UNL     1       1.542   8.158  18.090  0.00  0.00    +0.000 C 
ATOM     14  C   UNL     1       2.785   7.677  18.295  0.00  0.00    +0.000 C 
BRANCH  14  15
ATOM     15  C   UNL     1       3.262   6.267  18.379  0.00  0.00    +0.000 A 
ATOM     16  C   UNL     1       2.714   5.394  19.351  0.00  0.00    +0.000 A 
ATOM     17 CL   UNL     1       1.632   5.948  20.594  0.00  0.00    +0.000 Cl
ATOM     18  C   UNL     1       3.006   4.019  19.363  0.00  0.00    +0.000 A 
ATOM     19  C   UNL     1       3.849   3.472  18.406  0.00  0.00    +0.000 A 
ATOM     20  C   UNL     1       4.407   4.305  17.441  0.00  0.00    +0.000 A 
ATOM     21  C   UNL     1       4.116   5.683  17.422  0.00  0.00    +0.000 A 
ATOM     22 CL   UNL     1       4.814   6.572  16.108  0.00  0.00    +0.000 Cl
ENDBRANCH  14  15
ENDBRANCH   1  13
TORSDOF 5
ENDMDL
MODEL 8
REMARK VINA RESULT:      -5.9      4.411      7.199
REMARK  Name = 
REMARK  7 active torsions:
REMARK  status: ('A' for Active; 'I' for Inactive)
REMARK    1  A    between atoms: C_1  and  O_2
REMARK    2  A    between atoms: O_2  and  C_3
REMARK    3  A    between atoms: C_7  and  O_8
REMARK    4  A    between atoms: O_8  and  C_9
REMARK    5  A    between atoms: C_10  and  C_11
REMARK    6  A    between atoms: C_11  and  C_13
REMARK    7  A    between atoms: C_14  and  C_15
REMARK                            x       y       z     vdW  Elec       q    Type
REMARK                         _______ _______ _______ _____ _____    ______ ____
ROOT
ATOM      1  C   UNL     1       0.587  12.164  19.434  0.00  0.00    +0.000 C 
ATOM      2  O   UNL     1       1.526  12.952  19.327  0.00  0.00    +0.000 OA
ENDROOT
BRANCH   1   8
ATOM      3  C   UNL     1       0.357  10.842  21.553  0.00  0.00    +0.000 A 
ATOM      4  C   UNL     1       0.416   9.628  22.254  0.00  0.00    +0.000 A 
ATOM      5  C   UNL     1       0.854   8.470  21.628  0.00  0.00    +0.000 A 
ATOM      6  C   UNL     1       1.254   8.515  20.296  0.00  0.00    +0.000 A 
ATOM      7  C   UNL     1       1.212   9.712  19.563  0.00  0.00    +0.000 A 
ATOM      8  C   UNL     1       0.782  10.898  20.201  0.00  0.00    +0.000 A 
BRANCH   3  10
ATOM      9  C   UNL     1      -1.195  11.892  23.014  0.00  0.00    +0.000 C 
ATOM     10  O   UNL     1      -0.049  12.002  22.163  0.00  0.00    +0.000 OA
ENDBRANCH   3  10
BRANCH   7  11
ATOM     11  O   UNL     1       1.572   9.778  18.240  0.00  0.00    +0.000 OA
ATOM     12  C   UNL     1       2.239   8.628  17.713  0.00  0.00    +0.000 C 
ENDBRANCH   7  11
ENDBRANCH   1   8
BRANCH   1  13
ATOM     13  C   UNL     1      -0.738  12.452  18.781  0.00  0.00    +0.000 C 
ATOM     14  C   UNL     1      -1.688  11.497  18.827  0.00  0.00    +0.000 C 
BRANCH  14  15
ATOM     15  C   UNL     1      -3.110  11.541  18.380  0.00  0.00    +0.000 A 
ATOM     16  C   UNL     1      -4.084  12.175  19.190  0.00  0.00    +0.000 A 
ATOM     17 CL   UNL     1      -3.733  12.745  20.794  0.00  0.00    +0.000 Cl
ATOM     18  C   UNL     1      -5.398  12.391  18.739  0.00  0.00    +0.000 A 
ATOM     19  C   UNL     1      -5.779  11.985  17.467  0.00  0.00    +0.000 A 
ATOM     20  C   UNL     1      -4.846  11.355  16.650  0.00  0.00    +0.000 A 
ATOM     21  C   UNL     1      -3.528  11.140  17.095  0.00  0.00    +0.000 A 
ATOM     22 CL   UNL     1      -2.459  10.425  15.933  0.00  0.00    +0.000 Cl
ENDBRANCH  14  15
ENDBRANCH   1  13
TORSDOF 5
ENDMDL
MODEL 9
REMARK VINA RESULT:      -5.9      1.374      3.337
REMARK  Name = 
REMARK  7 active torsions:
REMARK  status: ('A' for Active; 'I' for Inactive)
REMARK    1  A    between atoms: C_1  and  O_2
REMARK    2  A    between atoms: O_2  and  C_3
REMARK    3  A    between atoms: C_7  and  O_8
REMARK    4  A    between atoms: O_8  and  C_9
REMARK    5  A    between atoms: C_10  and  C_11
REMARK    6  A    between atoms: C_11  and  C_13
REMARK    7  A    between atoms: C_14  and  C_15
REMARK                            x       y       z     vdW  Elec       q    Type
REMARK                         _______ _______ _______ _____ _____    ______ ____
ROOT
ATOM      1  C   UNL     1       1.941   5.665  20.516  0.00  0.00    +0.000 C 
ATOM      2  O   UNL     1       2.612   5.492  21.533  0.00  0.00    +0.000 OA
ENDROOT
BRANCH   1   8
ATOM      3  C   UNL     1       2.931   5.041  18.297  0.00  0.00    +0.000 A 
ATOM      4  C   UNL     1       3.171   4.104  17.281  0.00  0.00    +0.000 A 
ATOM      5  C   UNL     1       2.608   2.837  17.340  0.00  0.00    +0.000 A 
ATOM      6  C   UNL     1       1.785   2.496  18.409  0.00  0.00    +0.000 A 
ATOM      7  C   UNL     1       1.520   3.408  19.444  0.00  0.00    +0.000 A 
ATOM      8  C   UNL     1       2.078   4.706  19.379  0.00  0.00    +0.000 A 
BRANCH   3  10
ATOM      9  C   UNL     1       4.410   6.542  17.199  0.00  0.00    +0.000 C 
ATOM     10  O   UNL     1       3.458   6.306  18.243  0.00  0.00    +0.000 OA
ENDBRANCH   3  10
BRANCH   7  11
ATOM     11  O   UNL     1       0.737   3.089  20.524  0.00  0.00    +0.000 OA
ATOM     12  C   UNL     1       1.400   2.430  21.607  0.00  0.00    +0.000 C 
ENDBRANCH   7  11
ENDBRANCH   1   8
BRANCH   1  13
ATOM     13  C   UNL     1       1.009   6.841  20.400  0.00  0.00    +0.000 C 
ATOM     14  C   UNL     1       1.507   8.071  20.641  0.00  0.00    +0.000 C 
BRANCH  14  15
ATOM     15  C   UNL     1       0.864   9.408  20.491  0.00  0.00    +0.000 A 
ATOM     16  C   UNL     1       0.357  10.078  21.631  0.00  0.00    +0.000 A 
ATOM     17 CL   UNL     1       0.274   9.322  23.195  0.00  0.00    +0.000 Cl
ATOM     18  C   UNL     1      -0.105  11.404  21.569  0.00  0.00    +0.000 A 
ATOM     19  C   UNL     1      -0.070  12.104  20.370  0.00  0.00    +0.000 A 
ATOM     20  C   UNL     1       0.418  11.471  19.232  0.00  0.00    +0.000 A 
ATOM     21  C   UNL     1       0.885  10.143  19.289  0.00  0.00    +0.000 A 
ATOM     22 CL   UNL     1       1.545   9.523  17.811  0.00  0.00    +0.000 Cl
ENDBRANCH  14  15
ENDBRANCH   1  13
TORSDOF 5
ENDMDL
