MODEL 1
REMARK VINA RESULT:      -8.2      0.000      0.000
REMARK  Name = 
REMARK  6 active torsions:
REMARK  status: ('A' for Active; 'I' for Inactive)
REMARK    1  A    between atoms: C_1  and  O_2
REMARK    2  A    between atoms: O_2  and  C_3
REMARK    3  A    between atoms: C_6  and  O_7
REMARK    4  A    between atoms: O_7  and  C_8
REMARK    5  A    between atoms: C_9  and  N_10
REMARK    6  A    between atoms: N_10  and  C_11
REMARK                            x       y       z     vdW  Elec       q    Type
REMARK                         _______ _______ _______ _____ _____    ______ ____
ROOT
ATOM      1  N   UNL     1       6.424   7.126  16.493  0.00  0.00    +0.000 N 
ATOM      2  H   UNL     1       6.393   7.387  15.552  0.00  0.00    +0.000 HD
ENDROOT
BRANCH   1   3
ATOM      3  C   UNL     1       7.932   8.239  17.425  0.00  0.00    +0.000 A 
ATOM      4  N   UNL     1       7.563   8.323  17.942  0.00  0.00    +0.000 NA
ATOM      5  C   UNL     1       8.443   9.381  18.342  0.00  0.00    +0.000 A 
ATOM      6  N   UNL     1       9.164  10.276  18.943  0.00  0.00    +0.000 NA
ATOM      7  C   UNL     1      10.169  11.303  18.917  0.00  0.00    +0.000 A 
ATOM      8  C   UNL     1      10.426  11.938  17.786  0.00  0.00    +0.000 A 
ATOM      9  C   UNL     1      11.484  12.670  17.639  0.00  0.00    +0.000 A 
ATOM     10  C   UNL     1      12.070  13.010  18.817  0.00  0.00    +0.000 A 
ATOM     11  C   UNL     1      11.797  12.038  19.834  0.00  0.00    +0.000 A 
ATOM     12  C   UNL     1      10.589  10.913  18.884  0.00  0.00    +0.000 A 
ENDBRANCH   1   3
BRANCH   1  17
ATOM     13  C   UNL     1       3.328   5.429  17.839  0.00  0.00    +0.000 A 
ATOM     14  C   UNL     1       3.248   4.291  17.300  0.00  0.00    +0.000 A 
ATOM     15  C   UNL     1       4.391   3.873  16.699  0.00  0.00    +0.000 A 
ATOM     16  C   UNL     1       5.377   4.714  16.252  0.00  0.00    +0.000 A 
ATOM     17  C   UNL     1       5.291   6.061  16.684  0.00  0.00    +0.000 A 
ATOM     18  C   UNL     1       4.238   6.434  17.406  0.00  0.00    +0.000 A 
BRANCH  13  20
ATOM     19  C   UNL     1       2.331   7.096  19.674  0.00  0.00    +0.000 C 
ATOM     20  O   UNL     1       2.478   5.583  19.046  0.00  0.00    +0.000 OA
ENDBRANCH  13  20
BRANCH  16  21
ATOM     21  O   UNL     1       6.366   4.259  15.405  0.00  0.00    +0.000 OA
ATOM     22  C   UNL     1       6.102   3.826  14.105  0.00  0.00    +0.000 C 
ENDBRANCH  16  21
ENDBRANCH   1  17
TORSDOF 4
ENDMDL
MODEL 2
REMARK VINA RESULT:      -8.0      1.313      1.511
REMARK  Name = 
REMARK  6 active torsions:
REMARK  status: ('A' for Active; 'I' for Inactive)
REMARK    1  A    between atoms: C_1  and  O_2
REMARK    2  A    between atoms: O_2  and  C_3
REMARK    3  A    between atoms: C_6  and  O_7
REMARK    4  A    between atoms: O_7  and  C_8
REMARK    5  A    between atoms: C_9  and  N_10
REMARK    6  A    between atoms: N_10  and  C_11
REMARK                            x       y       z     vdW  Elec       q    Type
REMARK                         _______ _______ _______ _____ _____    ______ ____
ROOT
ATOM      1  N   UNL     1       7.422   6.662  16.833  0.00  0.00    +0.000 N 
ATOM      2  H   UNL     1       8.021   6.464  16.087  0.00  0.00    +0.000 HD
ENDROOT
BRANCH   1   3
ATOM      3  C   UNL     1       8.246   8.248  17.923  0.00  0.00    +0.000 A 
ATOM      4  N   UNL     1       7.732   8.611  17.801  0.00  0.00    +0.000 NA
ATOM      5  C   UNL     1       8.500   9.753  18.197  0.00  0.00    +0.000 A 
ATOM      6  N   UNL     1       8.966  10.887  18.621  0.00  0.00    +0.000 NA
ATOM      7  C   UNL     1      10.070  11.744  18.958  0.00  0.00    +0.000 A 
ATOM      8  C   UNL     1      11.259  11.520  18.421  0.00  0.00    +0.000 A 
ATOM      9  C   UNL     1      12.332  12.080  18.882  0.00  0.00    +0.000 A 
ATOM     10  C   UNL     1      12.079  13.152  19.678  0.00  0.00    +0.000 A 
ATOM     11  C   UNL     1      10.796  13.044  20.304  0.00  0.00    +0.000 A 
ATOM     12  C   UNL     1      10.155  11.466  19.452  0.00  0.00    +0.000 A 
ENDBRANCH   1   3
BRANCH   1  17
ATOM     13  C   UNL     1       4.414   4.569  17.755  0.00  0.00    +0.000 A 
ATOM     14  C   UNL     1       4.106   3.873  16.749  0.00  0.00    +0.000 A 
ATOM     15  C   UNL     1       5.072   3.804  15.797  0.00  0.00    +0.000 A 
ATOM     16  C   UNL     1       6.064   4.738  15.639  0.00  0.00    +0.000 A 
ATOM     17  C   UNL     1       6.217   5.671  16.695  0.00  0.00    +0.000 A 
ATOM     18  C   UNL     1       5.354   5.637  17.706  0.00  0.00    +0.000 A 
BRANCH  13  20
ATOM     19  C   UNL     1       4.504   2.793  19.750  0.00  0.00    +0.000 C 
ATOM     20  O   UNL     1       3.805   4.093  19.023  0.00  0.00    +0.000 OA
ENDBRANCH  13  20
BRANCH  16  21
ATOM     21  O   UNL     1       6.832   4.767  14.494  0.00  0.00    +0.000 OA
ATOM     22  C   UNL     1       6.522   4.016  13.360  0.00  0.00    +0.000 C 
ENDBRANCH  16  21
ENDBRANCH   1  17
TORSDOF 4
ENDMDL
MODEL 3
REMARK VINA RESULT:      -7.9      1.334      1.701
REMARK  Name = 
REMARK  6 active torsions:
REMARK  status: ('A' for Active; 'I' for Inactive)
REMARK    1  A    between atoms: C_1  and  O_2
REMARK    2  A    between atoms: O_2  and  C_3
REMARK    3  A    between atoms: C_6  and  O_7
REMARK    4  A    between atoms: O_7  and  C_8
REMARK    5  A    between atoms: C_9  and  N_10
REMARK    6  A    between atoms: N_10  and  C_11
REMARK                            x       y       z     vdW  Elec       q    Type
REMARK                         _______ _______ _______ _____ _____    ______ ____
ROOT
ATOM      1  N   UNL     1       6.400   6.499  17.180  0.00  0.00    +0.000 N 
ATOM      2  H   UNL     1       7.055   5.968  16.687  0.00  0.00    +0.000 HD
ENDROOT
BRANCH   1   3
ATOM      3  C   UNL     1       7.295   8.322  17.687  0.00  0.00    +0.000 A 
ATOM      4  N   UNL     1       7.806   8.182  17.328  0.00  0.00    +0.000 NA
ATOM      5  C   UNL     1       8.517   9.220  18.013  0.00  0.00    +0.000 A 
ATOM      6  N   UNL     1       9.297  10.177  18.414  0.00  0.00    +0.000 NA
ATOM      7  C   UNL     1       9.669  11.168  19.384  0.00  0.00    +0.000 A 
ATOM      8  C   UNL     1       9.291  11.025  20.644  0.00  0.00    +0.000 A 
ATOM      9  C   UNL     1       9.365  12.001  21.494  0.00  0.00    +0.000 A 
ATOM     10  C   UNL     1      10.179  13.009  21.085  0.00  0.00    +0.000 A 
ATOM     11  C   UNL     1      10.255  13.070  19.656  0.00  0.00    +0.000 A 
ATOM     12  C   UNL     1       9.246  11.516  19.215  0.00  0.00    +0.000 A 
ENDBRANCH   1   3
BRANCH   1  17
ATOM     13  C   UNL     1       2.989   5.272  18.247  0.00  0.00    +0.000 A 
ATOM     14  C   UNL     1       2.748   4.207  17.615  0.00  0.00    +0.000 A 
ATOM     15  C   UNL     1       3.836   3.641  17.033  0.00  0.00    +0.000 A 
ATOM     16  C   UNL     1       4.975   4.329  16.699  0.00  0.00    +0.000 A 
ATOM     17  C   UNL     1       5.094   5.636  17.235  0.00  0.00    +0.000 A 
ATOM     18  C   UNL     1       4.080   6.132  17.937  0.00  0.00    +0.000 A 
BRANCH  13  20
ATOM     19  C   UNL     1       1.299   4.173  20.001  0.00  0.00    +0.000 C 
ATOM     20  O   UNL     1       2.110   5.483  19.425  0.00  0.00    +0.000 OA
ENDBRANCH  13  20
BRANCH  16  21
ATOM     21  O   UNL     1       5.919   3.772  15.862  0.00  0.00    +0.000 OA
ATOM     22  C   UNL     1       5.985   4.067  14.500  0.00  0.00    +0.000 C 
ENDBRANCH  16  21
ENDBRANCH   1  17
TORSDOF 4
ENDMDL
MODEL 4
REMARK VINA RESULT:      -7.8      1.047      1.276
REMARK  Name = 
REMARK  6 active torsions:
REMARK  status: ('A' for Active; 'I' for Inactive)
REMARK    1  A    between atoms: C_1  and  O_2
REMARK    2  A    between atoms: O_2  and  C_3
REMARK    3  A    between atoms: C_6  and  O_7
REMARK    4  A    between atoms: O_7  and  C_8
REMARK    5  A    between atoms: C_9  and  N_10
REMARK    6  A    between atoms: N_10  and  C_11
REMARK                            x       y       z     vdW  Elec       q    Type
REMARK                         _______ _______ _______ _____ _____    ______ ____
ROOT
ATOM      1  N   UNL     1       6.227   7.451  16.849  0.00  0.00    +0.000 N 
ATOM      2  H   UNL     1       5.791   8.005  16.173  0.00  0.00    +0.000 HD
ENDROOT
BRANCH   1   3
ATOM      3  C   UNL     1       7.903   8.486  17.556  0.00  0.00    +0.000 A 
ATOM      4  N   UNL     1       7.640   8.534  18.138  0.00  0.00    +0.000 NA
ATOM      5  C   UNL     1       8.598   9.556  18.438  0.00  0.00    +0.000 A 
ATOM      6  N   UNL     1       9.436  10.402  18.954  0.00  0.00    +0.000 NA
ATOM      7  C   UNL     1      10.436  11.423  18.811  0.00  0.00    +0.000 A 
ATOM      8  C   UNL     1      10.486  12.139  17.699  0.00  0.00    +0.000 A 
ATOM      9  C   UNL     1      11.511  12.875  17.407  0.00  0.00    +0.000 A 
ATOM     10  C   UNL     1      12.314  13.126  18.474  0.00  0.00    +0.000 A 
ATOM     11  C   UNL     1      12.221  12.083  19.452  0.00  0.00    +0.000 A 
ATOM     12  C   UNL     1      10.835  11.036  18.672  0.00  0.00    +0.000 A 
ENDBRANCH   1   3
BRANCH   1  17
ATOM     13  C   UNL     1       4.179   4.681  18.404  0.00  0.00    +0.000 A 
ATOM     14  C   UNL     1       3.895   3.855  17.493  0.00  0.00    +0.000 A 
ATOM     15  C   UNL     1       4.637   3.986  16.365  0.00  0.00    +0.000 A 
ATOM     16  C   UNL     1       5.271   5.144  15.991  0.00  0.00    +0.000 A 
ATOM     17  C   UNL     1       5.352   6.158  16.978  0.00  0.00    +0.000 A 
ATOM     18  C   UNL     1       4.747   5.960  18.146  0.00  0.00    +0.000 A 
BRANCH  13  20
ATOM     19  C   UNL     1       3.300   2.662  19.919  0.00  0.00    +0.000 C 
ATOM     20  O   UNL     1       3.988   4.150  19.777  0.00  0.00    +0.000 OA
ENDBRANCH  13  20
BRANCH  16  21
ATOM     21  O   UNL     1       5.763   5.300  14.712  0.00  0.00    +0.000 OA
ATOM     22  C   UNL     1       6.925   4.665  14.270  0.00  0.00    +0.000 C 
ENDBRANCH  16  21
ENDBRANCH   1  17
TORSDOF 4
ENDMDL
MODEL 5
REMARK VINA RESULT:      -7.8      2.026      2.670
REMARK  Name = 
REMARK  6 active torsions:
REMARK  status: ('A' for Active; 'I' for Inactive)
REMARK    1  A    between atoms: C_1  and  O_2
REMARK    2  A    between atoms: O_2  and  C_3
REMARK    3  A    between atoms: C_6  and  O_7
REMARK    4  A    between atoms: O_7  and  C_8
REMARK    5  A    between atoms: C_9  and  N_10
REMARK    6  A    between atoms: N_10  and  C_11
REMARK                            x       y       z     vdW  Elec       q    Type
REMARK                         _______ _______ _______ _____ _____    ______ ____
ROOT
ATOM      1  N   UNL     1       5.934   6.783  17.198  0.00  0.00    +0.000 N 
ATOM      2  H   UNL     1       5.628   6.856  16.273  0.00  0.00    +0.000 HD
ENDROOT
BRANCH   1   3
ATOM      3  C   UNL     1       7.066   8.486  17.644  0.00  0.00    +0.000 A 
ATOM      4  N   UNL     1       7.565   8.250  17.320  0.00  0.00    +0.000 NA
ATOM      5  C   UNL     1       8.392   9.217  17.978  0.00  0.00    +0.000 A 
ATOM      6  N   UNL     1       9.287  10.075  18.363  0.00  0.00    +0.000 NA
ATOM      7  C   UNL     1       9.760  11.063  19.291  0.00  0.00    +0.000 A 
ATOM      8  C   UNL     1       9.312  11.059  20.536  0.00  0.00    +0.000 A 
ATOM      9  C   UNL     1       9.493  12.066  21.330  0.00  0.00    +0.000 A 
ATOM     10  C   UNL     1      10.463  12.917  20.906  0.00  0.00    +0.000 A 
ATOM     11  C   UNL     1      10.608  12.873  19.482  0.00  0.00    +0.000 A 
ATOM     12  C   UNL     1       9.400  11.457  19.081  0.00  0.00    +0.000 A 
ENDBRANCH   1   3
BRANCH   1  17
ATOM     13  C   UNL     1       3.636   3.809  17.593  0.00  0.00    +0.000 A 
ATOM     14  C   UNL     1       4.023   3.154  18.599  0.00  0.00    +0.000 A 
ATOM     15  C   UNL     1       4.874   3.829  19.414  0.00  0.00    +0.000 A 
ATOM     16  C   UNL     1       5.651   4.884  19.011  0.00  0.00    +0.000 A 
ATOM     17  C   UNL     1       5.340   5.441  17.745  0.00  0.00    +0.000 A 
ATOM     18  C   UNL     1       4.394   4.863  17.010  0.00  0.00    +0.000 A 
BRANCH  13  20
ATOM     19  C   UNL     1       1.196   2.981  18.303  0.00  0.00    +0.000 C 
ATOM     20  O   UNL     1       2.261   3.468  17.147  0.00  0.00    +0.000 OA
ENDBRANCH  13  20
BRANCH  16  21
ATOM     21  O   UNL     1       6.691   5.337  19.795  0.00  0.00    +0.000 OA
ATOM     22  C   UNL     1       8.014   5.359  19.352  0.00  0.00    +0.000 C 
ENDBRANCH  16  21
ENDBRANCH   1  17
TORSDOF 4
ENDMDL
MODEL 6
REMARK VINA RESULT:      -7.7      1.135      1.217
REMARK  Name = 
REMARK  6 active torsions:
REMARK  status: ('A' for Active; 'I' for Inactive)
REMARK    1  A    between atoms: C_1  and  O_2
REMARK    2  A    between atoms: O_2  and  C_3
REMARK    3  A    between atoms: C_6  and  O_7
REMARK    4  A    between atoms: O_7  and  C_8
REMARK    5  A    between atoms: C_9  and  N_10
REMARK    6  A    between atoms: N_10  and  C_11
REMARK                            x       y       z     vdW  Elec       q    Type
REMARK                         _______ _______ _______ _____ _____    ______ ____
ROOT
ATOM      1  N   UNL     1       6.703   6.148  16.990  0.00  0.00    +0.000 N 
ATOM      2  H   UNL     1       7.183   5.563  16.372  0.00  0.00    +0.000 HD
ENDROOT
BRANCH   1   3
ATOM      3  C   UNL     1       7.962   7.747  17.479  0.00  0.00    +0.000 A 
ATOM      4  N   UNL     1       7.918   7.603  18.102  0.00  0.00    +0.000 NA
ATOM      5  C   UNL     1       8.431   8.909  18.394  0.00  0.00    +0.000 A 
ATOM      6  N   UNL     1       8.986   9.979  18.873  0.00  0.00    +0.000 NA
ATOM      7  C   UNL     1       9.383  11.353  18.741  0.00  0.00    +0.000 A 
ATOM      8  C   UNL     1       8.762  12.133  17.871  0.00  0.00    +0.000 A 
ATOM      9  C   UNL     1       9.243  13.284  17.521  0.00  0.00    +0.000 A 
ATOM     10  C   UNL     1      10.193  13.751  18.373  0.00  0.00    +0.000 A 
ATOM     11  C   UNL     1      10.861  12.678  19.047  0.00  0.00    +0.000 A 
ATOM     12  C   UNL     1       9.829  11.209  18.410  0.00  0.00    +0.000 A 
ENDBRANCH   1   3
BRANCH   1  17
ATOM     13  C   UNL     1       3.303   5.404  18.463  0.00  0.00    +0.000 A 
ATOM     14  C   UNL     1       2.799   4.453  17.806  0.00  0.00    +0.000 A 
ATOM     15  C   UNL     1       3.685   3.771  17.036  0.00  0.00    +0.000 A 
ATOM     16  C   UNL     1       4.871   4.290  16.585  0.00  0.00    +0.000 A 
ATOM     17  C   UNL     1       5.286   5.508  17.180  0.00  0.00    +0.000 A 
ATOM     18  C   UNL     1       4.476   6.099  18.054  0.00  0.00    +0.000 A 
BRANCH  13  20
ATOM     19  C   UNL     1       1.533   4.543  20.270  0.00  0.00    +0.000 C 
ATOM     20  O   UNL     1       2.639   5.652  19.768  0.00  0.00    +0.000 OA
ENDBRANCH  13  20
BRANCH  16  21
ATOM     21  O   UNL     1       5.584   3.662  15.585  0.00  0.00    +0.000 OA
ATOM     22  C   UNL     1       5.631   4.146  14.277  0.00  0.00    +0.000 C 
ENDBRANCH  16  21
ENDBRANCH   1  17
TORSDOF 4
ENDMDL
MODEL 7
REMARK VINA RESULT:      -7.7      4.968      8.921
REMARK  Name = 
REMARK  6 active torsions:
REMARK  status: ('A' for Active; 'I' for Inactive)
REMARK    1  A    between atoms: C_1  and  O_2
REMARK    2  A    between atoms: O_2  and  C_3
REMARK    3  A    between atoms: C_6  and  O_7
REMARK    4  A    between atoms: O_7  and  C_8
REMARK    5  A    between atoms: C_9  and  N_10
REMARK    6  A    between atoms: N_10  and  C_11
REMARK                            x       y       z     vdW  Elec       q    Type
REMARK                         _______ _______ _______ _____ _____    ______ ____
ROOT
ATOM      1  N   UNL     1       3.532   7.989  17.698  0.00  0.00    +0.000 N 
ATOM      2  H   UNL     1       4.263   8.531  18.055  0.00  0.00    +0.000 HD
ENDROOT
BRANCH   1   3
ATOM      3  C   UNL     1       1.791   9.151  17.724  0.00  0.00    +0.000 A 
ATOM      4  N   UNL     1       1.704   9.024  18.345  0.00  0.00    +0.000 NA
ATOM      5  C   UNL     1       0.352   9.478  18.203  0.00  0.00    +0.000 A 
ATOM      6  N   UNL     1      -0.850   9.949  18.325  0.00  0.00    +0.000 NA
ATOM      7  C   UNL     1      -2.107  10.345  17.752  0.00  0.00    +0.000 A 
ATOM      8  C   UNL     1      -2.484   9.840  16.589  0.00  0.00    +0.000 A 
ATOM      9  C   UNL     1      -3.459  10.351  15.906  0.00  0.00    +0.000 A 
ATOM     10  C   UNL     1      -4.257  11.170  16.640  0.00  0.00    +0.000 A 
ATOM     11  C   UNL     1      -3.539  11.752  17.734  0.00  0.00    +0.000 A 
ATOM     12  C   UNL     1      -1.880  10.834  17.554  0.00  0.00    +0.000 A 
ENDBRANCH   1   3
BRANCH   1  17
ATOM     13  C   UNL     1       5.669   5.429  15.922  0.00  0.00    +0.000 A 
ATOM     14  C   UNL     1       5.348   4.290  16.359  0.00  0.00    +0.000 A 
ATOM     15  C   UNL     1       4.171   4.259  17.035  0.00  0.00    +0.000 A 
ATOM     16  C   UNL     1       3.605   5.350  17.643  0.00  0.00    +0.000 A 
ATOM     17  C   UNL     1       4.165   6.610  17.312  0.00  0.00    +0.000 A 
ATOM     18  C   UNL     1       5.234   6.645  16.521  0.00  0.00    +0.000 A 
BRANCH  13  20
ATOM     19  C   UNL     1       6.324   4.022  13.747  0.00  0.00    +0.000 C 
ATOM     20  O   UNL     1       6.438   5.390  14.652  0.00  0.00    +0.000 OA
ENDBRANCH  13  20
BRANCH  16  21
ATOM     21  O   UNL     1       2.572   5.202  18.545  0.00  0.00    +0.000 OA
ATOM     22  C   UNL     1       2.758   5.306  19.924  0.00  0.00    +0.000 C 
ENDBRANCH  16  21
ENDBRANCH   1  17
TORSDOF 4
ENDMDL
MODEL 8
REMARK VINA RESULT:      -7.7      1.081      1.131
REMARK  Name = 
REMARK  6 active torsions:
REMARK  status: ('A' for Active; 'I' for Inactive)
REMARK    1  A    between atoms: C_1  and  O_2
REMARK    2  A    between atoms: O_2  and  C_3
REMARK    3  A    between atoms: C_6  and  O_7
REMARK    4  A    between atoms: O_7  and  C_8
REMARK    5  A    between atoms: C_9  and  N_10
REMARK    6  A    between atoms: N_10  and  C_11
REMARK                            x       y       z     vdW  Elec       q    Type
REMARK                         _______ _______ _______ _____ _____    ______ ____
ROOT
ATOM      1  N   UNL     1       6.350   7.414  16.834  0.00  0.00    +0.000 N 
ATOM      2  H   UNL     1       6.207   7.646  15.896  0.00  0.00    +0.000 HD
ENDROOT
BRANCH   1   3
ATOM      3  C   UNL     1       7.996   8.504  17.529  0.00  0.00    +0.000 A 
ATOM      4  N   UNL     1       7.733   8.547  18.112  0.00  0.00    +0.000 NA
ATOM      5  C   UNL     1       8.660   9.600  18.403  0.00  0.00    +0.000 A 
ATOM      6  N   UNL     1       9.472  10.474  18.912  0.00  0.00    +0.000 NA
ATOM      7  C   UNL     1      10.440  11.525  18.760  0.00  0.00    +0.000 A 
ATOM      8  C   UNL     1      10.466  12.235  17.644  0.00  0.00    +0.000 A 
ATOM      9  C   UNL     1      11.467  13.001  17.345  0.00  0.00    +0.000 A 
ATOM     10  C   UNL     1      12.265  13.282  18.408  0.00  0.00    +0.000 A 
ATOM     11  C   UNL     1      12.206  12.243  19.392  0.00  0.00    +0.000 A 
ATOM     12  C   UNL     1      10.851  11.149  18.622  0.00  0.00    +0.000 A 
ENDBRANCH   1   3
BRANCH   1  17
ATOM     13  C   UNL     1       3.102   6.041  18.193  0.00  0.00    +0.000 A 
ATOM     14  C   UNL     1       3.133   4.786  18.070  0.00  0.00    +0.000 A 
ATOM     15  C   UNL     1       4.368   4.276  17.829  0.00  0.00    +0.000 A 
ATOM     16  C   UNL     1       5.401   4.990  17.277  0.00  0.00    +0.000 A 
ATOM     17  C   UNL     1       5.220   6.394  17.204  0.00  0.00    +0.000 A 
ATOM     18  C   UNL     1       4.054   6.908  17.587  0.00  0.00    +0.000 A 
BRANCH  13  20
ATOM     19  C   UNL     1       1.821   5.655  20.507  0.00  0.00    +0.000 C 
ATOM     20  O   UNL     1       2.059   6.527  19.132  0.00  0.00    +0.000 OA
ENDBRANCH  13  20
BRANCH  16  21
ATOM     21  O   UNL     1       6.525   4.352  16.796  0.00  0.00    +0.000 OA
ATOM     22  C   UNL     1       7.765   4.433  17.431  0.00  0.00    +0.000 C 
ENDBRANCH  16  21
ENDBRANCH   1  17
TORSDOF 4
ENDMDL
MODEL 9
REMARK VINA RESULT:      -7.7      4.682      7.730
REMARK  Name = 
REMARK  6 active torsions:
REMARK  status: ('A' for Active; 'I' for Inactive)
REMARK    1  A    between atoms: C_1  and  O_2
REMARK    2  A    between atoms: O_2  and  C_3
REMARK    3  A    between atoms: C_6  and  O_7
REMARK    4  A    between atoms: O_7  and  C_8
REMARK    5  A    between atoms: C_9  and  N_10
REMARK    6  A    between atoms: N_10  and  C_11
REMARK                            x       y       z     vdW  Elec       q    Type
REMARK                         _______ _______ _______ _____ _____    ______ ____
ROOT
ATOM      1  N   UNL     1       4.035   5.301  18.333  0.00  0.00    +0.000 N 
ATOM      2  H   UNL     1       4.042   4.506  18.900  0.00  0.00    +0.000 HD
ENDROOT
BRANCH   1   3
ATOM      3  C   UNL     1       2.568   6.605  19.064  0.00  0.00    +0.000 A 
ATOM      4  N   UNL     1       2.774   7.069  18.673  0.00  0.00    +0.000 NA
ATOM      5  C   UNL     1       2.043   8.005  19.475  0.00  0.00    +0.000 A 
ATOM      6  N   UNL     1       1.367   8.989  19.983  0.00  0.00    +0.000 NA
ATOM      7  C   UNL     1       0.642   9.584  21.071  0.00  0.00    +0.000 A 
ATOM      8  C   UNL     1       0.868   9.175  22.309  0.00  0.00    +0.000 A 
ATOM      9  C   UNL     1       0.069   9.476  23.284  0.00  0.00    +0.000 A 
ATOM     10  C   UNL     1      -0.763  10.511  22.996  0.00  0.00    +0.000 A 
ATOM     11  C   UNL     1      -1.007  10.607  21.588  0.00  0.00    +0.000 A 
ATOM     12  C   UNL     1       0.183   9.257  20.965  0.00  0.00    +0.000 A 
ENDBRANCH   1   3
BRANCH   1  17
ATOM     13  C   UNL     1       5.701   4.675  15.000  0.00  0.00    +0.000 A 
ATOM     14  C   UNL     1       6.939   4.552  15.206  0.00  0.00    +0.000 A 
ATOM     15  C   UNL     1       7.275   4.343  16.504  0.00  0.00    +0.000 A 
ATOM     16  C   UNL     1       6.491   4.706  17.570  0.00  0.00    +0.000 A 
ATOM     17  C   UNL     1       5.159   5.081  17.265  0.00  0.00    +0.000 A 
ATOM     18  C   UNL     1       4.788   5.139  15.989  0.00  0.00    +0.000 A 
BRANCH  13  20
ATOM     19  C   UNL     1       6.428   3.638  12.646  0.00  0.00    +0.000 C 
ATOM     20  O   UNL     1       5.259   4.169  13.675  0.00  0.00    +0.000 OA
ENDBRANCH  13  20
BRANCH  16  21
ATOM     21  O   UNL     1       7.003   4.729  18.850  0.00  0.00    +0.000 OA
ATOM     22  C   UNL     1       7.711   5.819  19.357  0.00  0.00    +0.000 C 
ENDBRANCH  16  21
ENDBRANCH   1  17
TORSDOF 4
ENDMDL
