MODEL 1
REMARK VINA RESULT:      -6.9      0.000      0.000
REMARK  Name = 
REMARK  3 active torsions:
REMARK  status: ('A' for Active; 'I' for Inactive)
REMARK    1  A    between atoms: N_2  and  C_4
REMARK    2  A    between atoms: C_10  and  C_11
REMARK    3  A    between atoms: C_11  and  N_12
REMARK                            x       y       z     vdW  Elec       q    Type
REMARK                         _______ _______ _______ _____ _____    ______ ____
ROOT
ATOM      1  C   UNL     1       6.552   5.183  17.638  0.00  0.00    +0.000 A 
ATOM      2  C   UNL     1       6.952   4.895  16.331  0.00  0.00    +0.000 A 
ATOM      3  C   UNL     1       6.004   4.428  15.432  0.00  0.00    +0.000 A 
ATOM      4 BR   UNL     1       6.495   4.030  13.651  0.00  0.00    +0.000 Br
ATOM      5  C   UNL     1       4.674   4.259  15.825  0.00  0.00    +0.000 A 
ATOM      6  C   UNL     1       4.284   4.530  17.141  0.00  0.00    +0.000 A 
ATOM      7  C   UNL     1       5.221   4.999  18.077  0.00  0.00    +0.000 A 
ENDROOT
BRANCH   1   9
ATOM      8  O   UNL     1       8.139   4.932  19.254  0.00  0.00    +0.000 OA
ATOM      9  N   UNL     1       7.516   5.752  18.569  0.00  0.00    +0.000 N 
ATOM     10  O   UNL     1       7.857   6.920  18.349  0.00  0.00    +0.000 OA
ENDBRANCH   1   9
BRANCH   7  11
ATOM     11  C   UNL     1       4.768   5.319  19.486  0.00  0.00    +0.000 C 
BRANCH  11  12
ATOM     12  N   UNL     1       3.515   4.614  19.862  0.00  0.00    +0.000 N 
ATOM     13  C   UNL     1       3.522   3.271  20.052  0.00  0.00    +0.000 A 
ATOM     14  C   UNL     1       2.368   2.592  20.418  0.00  0.00    +0.000 A 
ATOM     15  C   UNL     1       1.194   3.303  20.610  0.00  0.00    +0.000 A 
ATOM     16  C   UNL     1       1.201   4.682  20.441  0.00  0.00    +0.000 A 
ATOM     17  C   UNL     1       2.377   5.323  20.061  0.00  0.00    +0.000 A 
ENDBRANCH  11  12
ENDBRANCH   7  11
TORSDOF 3
ENDMDL
MODEL 2
REMARK VINA RESULT:      -6.9      0.079      1.153
REMARK  Name = 
REMARK  3 active torsions:
REMARK  status: ('A' for Active; 'I' for Inactive)
REMARK    1  A    between atoms: N_2  and  C_4
REMARK    2  A    between atoms: C_10  and  C_11
REMARK    3  A    between atoms: C_11  and  N_12
REMARK                            x       y       z     vdW  Elec       q    Type
REMARK                         _______ _______ _______ _____ _____    ______ ____
ROOT
ATOM      1  C   UNL     1       6.539   5.137  17.585  0.00  0.00    +0.000 A 
ATOM      2  C   UNL     1       6.920   4.834  16.276  0.00  0.00    +0.000 A 
ATOM      3  C   UNL     1       5.954   4.383  15.388  0.00  0.00    +0.000 A 
ATOM      4 BR   UNL     1       6.419   3.966  13.605  0.00  0.00    +0.000 Br
ATOM      5  C   UNL     1       4.625   4.242  15.795  0.00  0.00    +0.000 A 
ATOM      6  C   UNL     1       4.254   4.526  17.113  0.00  0.00    +0.000 A 
ATOM      7  C   UNL     1       5.209   4.981  18.038  0.00  0.00    +0.000 A 
ENDROOT
BRANCH   1   9
ATOM      8  O   UNL     1       8.206   4.859  19.114  0.00  0.00    +0.000 OA
ATOM      9  N   UNL     1       7.523   5.690  18.504  0.00  0.00    +0.000 N 
ATOM     10  O   UNL     1       7.812   6.881  18.335  0.00  0.00    +0.000 OA
ENDBRANCH   1   9
BRANCH   7  11
ATOM     11  C   UNL     1       4.777   5.317  19.450  0.00  0.00    +0.000 C 
BRANCH  11  12
ATOM     12  N   UNL     1       3.541   4.599  19.860  0.00  0.00    +0.000 N 
ATOM     13  C   UNL     1       2.391   5.288  20.062  0.00  0.00    +0.000 A 
ATOM     14  C   UNL     1       1.220   4.637  20.430  0.00  0.00    +0.000 A 
ATOM     15  C   UNL     1       1.227   3.259  20.574  0.00  0.00    +0.000 A 
ATOM     16  C   UNL     1       2.402   2.557  20.339  0.00  0.00    +0.000 A 
ATOM     17  C   UNL     1       3.557   3.249  19.984  0.00  0.00    +0.000 A 
ENDBRANCH  11  12
ENDBRANCH   7  11
TORSDOF 3
ENDMDL
MODEL 3
REMARK VINA RESULT:      -6.9      1.634      1.820
REMARK  Name = 
REMARK  3 active torsions:
REMARK  status: ('A' for Active; 'I' for Inactive)
REMARK    1  A    between atoms: N_2  and  C_4
REMARK    2  A    between atoms: C_10  and  C_11
REMARK    3  A    between atoms: C_11  and  N_12
REMARK                            x       y       z     vdW  Elec       q    Type
REMARK                         _______ _______ _______ _____ _____    ______ ____
ROOT
ATOM      1  C   UNL     1       5.557   5.065  17.922  0.00  0.00    +0.000 A 
ATOM      2  C   UNL     1       6.406   4.736  16.863  0.00  0.00    +0.000 A 
ATOM      3  C   UNL     1       6.198   5.342  15.631  0.00  0.00    +0.000 A 
ATOM      4 BR   UNL     1       7.323   4.936  14.169  0.00  0.00    +0.000 Br
ATOM      5  C   UNL     1       5.165   6.267  15.459  0.00  0.00    +0.000 A 
ATOM      6  C   UNL     1       4.306   6.575  16.519  0.00  0.00    +0.000 A 
ATOM      7  C   UNL     1       4.486   5.976  17.777  0.00  0.00    +0.000 A 
ENDROOT
BRANCH   1   9
ATOM      8  O   UNL     1       5.354   3.370  19.433  0.00  0.00    +0.000 OA
ATOM      9  N   UNL     1       5.812   4.502  19.241  0.00  0.00    +0.000 N 
ATOM     10  O   UNL     1       6.721   5.035  19.890  0.00  0.00    +0.000 OA
ENDBRANCH   1   9
BRANCH   7  11
ATOM     11  C   UNL     1       3.565   6.352  18.919  0.00  0.00    +0.000 C 
BRANCH  11  12
ATOM     12  N   UNL     1       2.604   5.271  19.263  0.00  0.00    +0.000 N 
ATOM     13  C   UNL     1       2.023   4.541  18.279  0.00  0.00    +0.000 A 
ATOM     14  C   UNL     1       1.134   3.516  18.575  0.00  0.00    +0.000 A 
ATOM     15  C   UNL     1       0.853   3.225  19.901  0.00  0.00    +0.000 A 
ATOM     16  C   UNL     1       1.473   3.959  20.904  0.00  0.00    +0.000 A 
ATOM     17  C   UNL     1       2.348   4.987  20.563  0.00  0.00    +0.000 A 
ENDBRANCH  11  12
ENDBRANCH   7  11
TORSDOF 3
ENDMDL
MODEL 4
REMARK VINA RESULT:      -6.8      1.616      1.840
REMARK  Name = 
REMARK  3 active torsions:
REMARK  status: ('A' for Active; 'I' for Inactive)
REMARK    1  A    between atoms: N_2  and  C_4
REMARK    2  A    between atoms: C_10  and  C_11
REMARK    3  A    between atoms: C_11  and  N_12
REMARK                            x       y       z     vdW  Elec       q    Type
REMARK                         _______ _______ _______ _____ _____    ______ ____
ROOT
ATOM      1  C   UNL     1       5.594   5.084  17.923  0.00  0.00    +0.000 A 
ATOM      2  C   UNL     1       6.446   4.767  16.863  0.00  0.00    +0.000 A 
ATOM      3  C   UNL     1       6.224   5.362  15.629  0.00  0.00    +0.000 A 
ATOM      4 BR   UNL     1       7.353   4.971  14.166  0.00  0.00    +0.000 Br
ATOM      5  C   UNL     1       5.173   6.266  15.455  0.00  0.00    +0.000 A 
ATOM      6  C   UNL     1       4.310   6.562  16.515  0.00  0.00    +0.000 A 
ATOM      7  C   UNL     1       4.505   5.974  17.776  0.00  0.00    +0.000 A 
ENDROOT
BRANCH   1   9
ATOM      8  O   UNL     1       5.412   3.400  19.449  0.00  0.00    +0.000 OA
ATOM      9  N   UNL     1       5.863   4.533  19.244  0.00  0.00    +0.000 N 
ATOM     10  O   UNL     1       6.774   5.075  19.881  0.00  0.00    +0.000 OA
ENDBRANCH   1   9
BRANCH   7  11
ATOM     11  C   UNL     1       3.580   6.337  18.919  0.00  0.00    +0.000 C 
BRANCH  11  12
ATOM     12  N   UNL     1       2.639   5.241  19.268  0.00  0.00    +0.000 N 
ATOM     13  C   UNL     1       2.338   4.992  20.567  0.00  0.00    +0.000 A 
ATOM     14  C   UNL     1       1.451   3.983  20.917  0.00  0.00    +0.000 A 
ATOM     15  C   UNL     1       0.849   3.232  19.920  0.00  0.00    +0.000 A 
ATOM     16  C   UNL     1       1.140   3.511  18.590  0.00  0.00    +0.000 A 
ATOM     17  C   UNL     1       2.046   4.523  18.283  0.00  0.00    +0.000 A 
ENDBRANCH  11  12
ENDBRANCH   7  11
TORSDOF 3
ENDMDL
MODEL 5
REMARK VINA RESULT:      -6.7      3.704      5.914
REMARK  Name = 
REMARK  3 active torsions:
REMARK  status: ('A' for Active; 'I' for Inactive)
REMARK    1  A    between atoms: N_2  and  C_4
REMARK    2  A    between atoms: C_10  and  C_11
REMARK    3  A    between atoms: C_11  and  N_12
REMARK                            x       y       z     vdW  Elec       q    Type
REMARK                         _______ _______ _______ _____ _____    ______ ____
ROOT
ATOM      1  C   UNL     1       2.190   4.906  19.758  0.00  0.00    +0.000 A 
ATOM      2  C   UNL     1       1.716   5.887  20.632  0.00  0.00    +0.000 A 
ATOM      3  C   UNL     1       1.792   7.218  20.244  0.00  0.00    +0.000 A 
ATOM      4 BR   UNL     1       1.159   8.581  21.388  0.00  0.00    +0.000 Br
ATOM      5  C   UNL     1       2.324   7.566  19.000  0.00  0.00    +0.000 A 
ATOM      6  C   UNL     1       2.816   6.580  18.139  0.00  0.00    +0.000 A 
ATOM      7  C   UNL     1       2.758   5.224  18.503  0.00  0.00    +0.000 A 
ENDROOT
BRANCH   1   9
ATOM      8  O   UNL     1       2.948   3.033  20.811  0.00  0.00    +0.000 OA
ATOM      9  N   UNL     1       2.041   3.502  20.114  0.00  0.00    +0.000 N 
ATOM     10  O   UNL     1       0.905   3.030  19.990  0.00  0.00    +0.000 OA
ENDBRANCH   1   9
BRANCH   7  11
ATOM     11  C   UNL     1       3.264   4.172  17.539  0.00  0.00    +0.000 C 
BRANCH  11  12
ATOM     12  N   UNL     1       4.706   4.333  17.216  0.00  0.00    +0.000 N 
ATOM     13  C   UNL     1       5.611   4.499  18.213  0.00  0.00    +0.000 A 
ATOM     14  C   UNL     1       6.965   4.636  17.938  0.00  0.00    +0.000 A 
ATOM     15  C   UNL     1       7.398   4.584  16.623  0.00  0.00    +0.000 A 
ATOM     16  C   UNL     1       6.469   4.386  15.609  0.00  0.00    +0.000 A 
ATOM     17  C   UNL     1       5.119   4.266  15.927  0.00  0.00    +0.000 A 
ENDBRANCH  11  12
ENDBRANCH   7  11
TORSDOF 3
ENDMDL
MODEL 6
REMARK VINA RESULT:      -6.6      3.713      5.905
REMARK  Name = 
REMARK  3 active torsions:
REMARK  status: ('A' for Active; 'I' for Inactive)
REMARK    1  A    between atoms: N_2  and  C_4
REMARK    2  A    between atoms: C_10  and  C_11
REMARK    3  A    between atoms: C_11  and  N_12
REMARK                            x       y       z     vdW  Elec       q    Type
REMARK                         _______ _______ _______ _____ _____    ______ ____
ROOT
ATOM      1  C   UNL     1       2.163   4.974  19.800  0.00  0.00    +0.000 A 
ATOM      2  C   UNL     1       1.708   5.961  20.679  0.00  0.00    +0.000 A 
ATOM      3  C   UNL     1       1.775   7.288  20.280  0.00  0.00    +0.000 A 
ATOM      4 BR   UNL     1       1.167   8.659  21.430  0.00  0.00    +0.000 Br
ATOM      5  C   UNL     1       2.281   7.629  19.023  0.00  0.00    +0.000 A 
ATOM      6  C   UNL     1       2.755   6.638  18.158  0.00  0.00    +0.000 A 
ATOM      7  C   UNL     1       2.705   5.285  18.532  0.00  0.00    +0.000 A 
ENDROOT
BRANCH   1   9
ATOM      8  O   UNL     1       2.967   3.094  20.807  0.00  0.00    +0.000 OA
ATOM      9  N   UNL     1       2.022   3.572  20.168  0.00  0.00    +0.000 N 
ATOM     10  O   UNL     1       0.875   3.112  20.117  0.00  0.00    +0.000 OA
ENDBRANCH   1   9
BRANCH   7  11
ATOM     11  C   UNL     1       3.191   4.226  17.564  0.00  0.00    +0.000 C 
BRANCH  11  12
ATOM     12  N   UNL     1       4.646   4.331  17.279  0.00  0.00    +0.000 N 
ATOM     13  C   UNL     1       5.097   4.234  16.004  0.00  0.00    +0.000 A 
ATOM     14  C   UNL     1       6.451   4.344  15.712  0.00  0.00    +0.000 A 
ATOM     15  C   UNL     1       7.350   4.576  16.740  0.00  0.00    +0.000 A 
ATOM     16  C   UNL     1       6.877   4.703  18.040  0.00  0.00    +0.000 A 
ATOM     17  C   UNL     1       5.514   4.573  18.292  0.00  0.00    +0.000 A 
ENDBRANCH  11  12
ENDBRANCH   7  11
TORSDOF 3
ENDMDL
MODEL 7
REMARK VINA RESULT:      -6.4      1.417      1.908
REMARK  Name = 
REMARK  3 active torsions:
REMARK  status: ('A' for Active; 'I' for Inactive)
REMARK    1  A    between atoms: N_2  and  C_4
REMARK    2  A    between atoms: C_10  and  C_11
REMARK    3  A    between atoms: C_11  and  N_12
REMARK                            x       y       z     vdW  Elec       q    Type
REMARK                         _______ _______ _______ _____ _____    ______ ____
ROOT
ATOM      1  C   UNL     1       6.746   4.942  16.555  0.00  0.00    +0.000 A 
ATOM      2  C   UNL     1       7.335   4.783  15.298  0.00  0.00    +0.000 A 
ATOM      3  C   UNL     1       6.523   4.468  14.218  0.00  0.00    +0.000 A 
ATOM      4 BR   UNL     1       7.270   4.249  12.497  0.00  0.00    +0.000 Br
ATOM      5  C   UNL     1       5.143   4.321  14.384  0.00  0.00    +0.000 A 
ATOM      6  C   UNL     1       4.564   4.461  15.649  0.00  0.00    +0.000 A 
ATOM      7  C   UNL     1       5.358   4.775  16.765  0.00  0.00    +0.000 A 
ENDROOT
BRANCH   1   9
ATOM      8  O   UNL     1       8.125   4.435  18.298  0.00  0.00    +0.000 OA
ATOM      9  N   UNL     1       7.572   5.353  17.682  0.00  0.00    +0.000 N 
ATOM     10  O   UNL     1       7.909   6.543  17.699  0.00  0.00    +0.000 OA
ENDBRANCH   1   9
BRANCH   7  11
ATOM     11  C   UNL     1       4.703   4.956  18.118  0.00  0.00    +0.000 C 
BRANCH  11  12
ATOM     12  N   UNL     1       3.567   4.023  18.337  0.00  0.00    +0.000 N 
ATOM     13  C   UNL     1       2.292   4.475  18.258  0.00  0.00    +0.000 A 
ATOM     14  C   UNL     1       1.214   3.620  18.443  0.00  0.00    +0.000 A 
ATOM     15  C   UNL     1       1.449   2.277  18.695  0.00  0.00    +0.000 A 
ATOM     16  C   UNL     1       2.758   1.815  18.748  0.00  0.00    +0.000 A 
ATOM     17  C   UNL     1       3.810   2.709  18.569  0.00  0.00    +0.000 A 
ENDBRANCH  11  12
ENDBRANCH   7  11
TORSDOF 3
ENDMDL
MODEL 8
REMARK VINA RESULT:      -6.4      1.379      1.666
REMARK  Name = 
REMARK  3 active torsions:
REMARK  status: ('A' for Active; 'I' for Inactive)
REMARK    1  A    between atoms: N_2  and  C_4
REMARK    2  A    between atoms: C_10  and  C_11
REMARK    3  A    between atoms: C_11  and  N_12
REMARK                            x       y       z     vdW  Elec       q    Type
REMARK                         _______ _______ _______ _____ _____    ______ ____
ROOT
ATOM      1  C   UNL     1       6.857   5.042  16.675  0.00  0.00    +0.000 A 
ATOM      2  C   UNL     1       7.453   4.964  15.414  0.00  0.00    +0.000 A 
ATOM      3  C   UNL     1       6.659   4.646  14.321  0.00  0.00    +0.000 A 
ATOM      4 BR   UNL     1       7.417   4.534  12.594  0.00  0.00    +0.000 Br
ATOM      5  C   UNL     1       5.290   4.418  14.479  0.00  0.00    +0.000 A 
ATOM      6  C   UNL     1       4.704   4.477  15.748  0.00  0.00    +0.000 A 
ATOM      7  C   UNL     1       5.481   4.791  16.876  0.00  0.00    +0.000 A 
ENDROOT
BRANCH   1   9
ATOM      8  O   UNL     1       7.646   6.667  18.066  0.00  0.00    +0.000 OA
ATOM      9  N   UNL     1       7.660   5.455  17.817  0.00  0.00    +0.000 N 
ATOM     10  O   UNL     1       7.980   4.558  18.606  0.00  0.00    +0.000 OA
ENDBRANCH   1   9
BRANCH   7  11
ATOM     11  C   UNL     1       4.818   4.885  18.234  0.00  0.00    +0.000 C 
BRANCH  11  12
ATOM     12  N   UNL     1       3.633   3.995  18.358  0.00  0.00    +0.000 N 
ATOM     13  C   UNL     1       3.800   2.671  18.598  0.00  0.00    +0.000 A 
ATOM     14  C   UNL     1       2.708   1.823  18.732  0.00  0.00    +0.000 A 
ATOM     15  C   UNL     1       1.428   2.345  18.638  0.00  0.00    +0.000 A 
ATOM     16  C   UNL     1       1.264   3.708  18.420  0.00  0.00    +0.000 A 
ATOM     17  C   UNL     1       2.385   4.521  18.277  0.00  0.00    +0.000 A 
ENDBRANCH  11  12
ENDBRANCH   7  11
TORSDOF 3
ENDMDL
MODEL 9
REMARK VINA RESULT:      -6.4      3.403      4.419
REMARK  Name = 
REMARK  3 active torsions:
REMARK  status: ('A' for Active; 'I' for Inactive)
REMARK    1  A    between atoms: N_2  and  C_4
REMARK    2  A    between atoms: C_10  and  C_11
REMARK    3  A    between atoms: C_11  and  N_12
REMARK                            x       y       z     vdW  Elec       q    Type
REMARK                         _______ _______ _______ _____ _____    ______ ____
ROOT
ATOM      1  C   UNL     1       3.297   4.475  17.587  0.00  0.00    +0.000 A 
ATOM      2  C   UNL     1       4.005   4.016  16.474  0.00  0.00    +0.000 A 
ATOM      3  C   UNL     1       5.205   4.633  16.149  0.00  0.00    +0.000 A 
ATOM      4 BR   UNL     1       6.204   4.044  14.657  0.00  0.00    +0.000 Br
ATOM      5  C   UNL     1       5.697   5.686  16.924  0.00  0.00    +0.000 A 
ATOM      6  C   UNL     1       4.971   6.154  18.024  0.00  0.00    +0.000 A 
ATOM      7  C   UNL     1       3.750   5.555  18.377  0.00  0.00    +0.000 A 
ENDROOT
BRANCH   1   9
ATOM      8  O   UNL     1       1.073   4.048  17.321  0.00  0.00    +0.000 OA
ATOM      9  N   UNL     1       2.079   3.785  17.990  0.00  0.00    +0.000 N 
ATOM     10  O   UNL     1       2.234   2.786  18.702  0.00  0.00    +0.000 OA
ENDBRANCH   1   9
BRANCH   7  11
ATOM     11  C   UNL     1       3.000   6.056  19.594  0.00  0.00    +0.000 C 
BRANCH  11  12
ATOM     12  N   UNL     1       2.316   7.354  19.353  0.00  0.00    +0.000 N 
ATOM     13  C   UNL     1       2.294   7.889  18.108  0.00  0.00    +0.000 A 
ATOM     14  C   UNL     1       1.649   9.093  17.855  0.00  0.00    +0.000 A 
ATOM     15  C   UNL     1       1.001   9.745  18.892  0.00  0.00    +0.000 A 
ATOM     16  C   UNL     1       1.003   9.177  20.159  0.00  0.00    +0.000 A 
ATOM     17  C   UNL     1       1.674   7.976  20.373  0.00  0.00    +0.000 A 
ENDBRANCH  11  12
ENDBRANCH   7  11
TORSDOF 3
ENDMDL
