MODEL 1
REMARK VINA RESULT:      -8.0      0.000      0.000
REMARK  Name = 
REMARK  5 active torsions:
REMARK  status: ('A' for Active; 'I' for Inactive)
REMARK    1  A    between atoms: C_1  and  O_2
REMARK    2  A    between atoms: O_2  and  C_3
REMARK    3  A    between atoms: N_10  and  N_11
REMARK    4  A    between atoms: N_11  and  C_12
REMARK    5  A    between atoms: N_20  and  C_21
REMARK                            x       y       z     vdW  Elec       q    Type
REMARK                         _______ _______ _______ _____ _____    ______ ____
ROOT
ATOM      1  C   UNL     1      -3.063  10.550  15.951  0.00  0.00    +0.000 A 
ATOM      2  C   UNL     1      -4.349  11.029  16.273  0.00  0.00    +0.000 A 
ATOM      3  C   UNL     1      -4.611  11.655  17.504  0.00  0.00    +0.000 A 
ATOM      4  C   UNL     1      -3.567  11.796  18.395  0.00  0.00    +0.000 A 
ATOM      5  C   UNL     1      -2.265  11.326  18.060  0.00  0.00    +0.000 A 
ATOM      6  C   UNL     1      -2.008  10.700  16.854  0.00  0.00    +0.000 A 
ATOM      7  C   UNL     1      -1.353  11.624  19.205  0.00  0.00    +0.000 C 
ATOM      8  N   UNL     1      -0.097  11.423  19.434  0.00  0.00    +0.000 NA
ATOM      9  C   UNL     1      -2.188  12.268  20.189  0.00  0.00    +0.000 A 
ATOM     10  C   UNL     1      -3.475  12.364  19.719  0.00  0.00    +0.000 A 
ATOM     11  N   UNL     1      -4.239  12.955  20.675  0.00  0.00    +0.000 N 
ATOM     12  C   UNL     1      -5.655  13.230  20.636  0.00  0.00    +0.000 C 
ATOM     13  C   UNL     1      -3.419  13.272  21.764  0.00  0.00    +0.000 A 
ATOM     14  C   UNL     1      -3.709  13.896  22.989  0.00  0.00    +0.000 A 
ATOM     15  C   UNL     1      -2.660  14.091  23.897  0.00  0.00    +0.000 A 
ATOM     16  C   UNL     1      -1.363  13.680  23.601  0.00  0.00    +0.000 A 
ATOM     17  C   UNL     1      -1.078  13.052  22.387  0.00  0.00    +0.000 A 
ATOM     18  C   UNL     1      -2.114  12.844  21.459  0.00  0.00    +0.000 A 
ENDROOT
BRANCH   1  20
ATOM     19  C   UNL     1      -3.650   9.943  13.721  0.00  0.00    +0.000 C 
ATOM     20  O   UNL     1      -2.709   9.925  14.785  0.00  0.00    +0.000 OA
ENDBRANCH   1  20
BRANCH   8  21
ATOM     21  N   UNL     1       0.642  10.868  18.435  0.00  0.00    +0.000 N 
ATOM     22  H   UNL     1       1.377  11.487  18.090  0.00  0.00    +0.000 HD
BRANCH  21  23
ATOM     23  C   UNL     1       1.198   9.594  18.730  0.00  0.00    +0.000 A 
ATOM     24  C   UNL     1       1.959   8.888  17.788  0.00  0.00    +0.000 A 
ATOM     25  C   UNL     1       2.553   7.667  18.115  0.00  0.00    +0.000 A 
ATOM     26  C   UNL     1       2.409   7.146  19.398  0.00  0.00    +0.000 A 
ATOM     27  C   UNL     1       1.687   7.854  20.357  0.00  0.00    +0.000 A 
ATOM     28  C   UNL     1       1.101   9.080  20.029  0.00  0.00    +0.000 A 
ENDBRANCH  21  23
ENDBRANCH   8  21
TORSDOF 3
ENDMDL
MODEL 2
REMARK VINA RESULT:      -7.4      4.697      7.450
REMARK  Name = 
REMARK  5 active torsions:
REMARK  status: ('A' for Active; 'I' for Inactive)
REMARK    1  A    between atoms: C_1  and  O_2
REMARK    2  A    between atoms: O_2  and  C_3
REMARK    3  A    between atoms: N_10  and  N_11
REMARK    4  A    between atoms: N_11  and  C_12
REMARK    5  A    between atoms: N_20  and  C_21
REMARK                            x       y       z     vdW  Elec       q    Type
REMARK                         _______ _______ _______ _____ _____    ______ ____
ROOT
ATOM      1  C   UNL     1       2.889   3.511  19.685  0.00  0.00    +0.000 A 
ATOM      2  C   UNL     1       1.970   3.779  20.719  0.00  0.00    +0.000 A 
ATOM      3  C   UNL     1       1.445   5.067  20.919  0.00  0.00    +0.000 A 
ATOM      4  C   UNL     1       1.850   6.072  20.065  0.00  0.00    +0.000 A 
ATOM      5  C   UNL     1       2.766   5.795  19.010  0.00  0.00    +0.000 A 
ATOM      6  C   UNL     1       3.292   4.532  18.819  0.00  0.00    +0.000 A 
ATOM      7  C   UNL     1       3.006   7.063  18.257  0.00  0.00    +0.000 C 
ATOM      8  N   UNL     1       3.727   7.382  17.233  0.00  0.00    +0.000 NA
ATOM      9  C   UNL     1       2.201   8.054  18.929  0.00  0.00    +0.000 A 
ATOM     10  C   UNL     1       1.533   7.478  19.982  0.00  0.00    +0.000 A 
ATOM     11  N   UNL     1       0.802   8.439  20.604  0.00  0.00    +0.000 N 
ATOM     12  C   UNL     1      -0.029   8.303  21.776  0.00  0.00    +0.000 C 
ATOM     13  C   UNL     1       0.981   9.646  19.918  0.00  0.00    +0.000 A 
ATOM     14  C   UNL     1       0.445  10.925  20.143  0.00  0.00    +0.000 A 
ATOM     15  C   UNL     1       0.805  11.957  19.266  0.00  0.00    +0.000 A 
ATOM     16  C   UNL     1       1.670  11.729  18.200  0.00  0.00    +0.000 A 
ATOM     17  C   UNL     1       2.209  10.459  17.982  0.00  0.00    +0.000 A 
ATOM     18  C   UNL     1       1.863   9.407  18.849  0.00  0.00    +0.000 A 
ENDROOT
BRANCH   1  20
ATOM     19  C   UNL     1       3.333   1.797  18.088  0.00  0.00    +0.000 C 
ATOM     20  O   UNL     1       3.459   2.297  19.412  0.00  0.00    +0.000 OA
ENDBRANCH   1  20
BRANCH   8  21
ATOM     21  N   UNL     1       4.411   6.382  16.612  0.00  0.00    +0.000 N 
ATOM     22  H   UNL     1       4.469   6.506  15.600  0.00  0.00    +0.000 HD
BRANCH  21  23
ATOM     23  C   UNL     1       5.708   6.124  17.130  0.00  0.00    +0.000 A 
ATOM     24  C   UNL     1       6.517   7.152  17.634  0.00  0.00    +0.000 A 
ATOM     25  C   UNL     1       7.763   6.874  18.199  0.00  0.00    +0.000 A 
ATOM     26  C   UNL     1       8.208   5.557  18.285  0.00  0.00    +0.000 A 
ATOM     27  C   UNL     1       7.401   4.520  17.824  0.00  0.00    +0.000 A 
ATOM     28  C   UNL     1       6.150   4.801  17.267  0.00  0.00    +0.000 A 
ENDBRANCH  21  23
ENDBRANCH   8  21
TORSDOF 3
ENDMDL
MODEL 3
REMARK VINA RESULT:      -7.3      0.844      1.334
REMARK  Name = 
REMARK  5 active torsions:
REMARK  status: ('A' for Active; 'I' for Inactive)
REMARK    1  A    between atoms: C_1  and  O_2
REMARK    2  A    between atoms: O_2  and  C_3
REMARK    3  A    between atoms: N_10  and  N_11
REMARK    4  A    between atoms: N_11  and  C_12
REMARK    5  A    between atoms: N_20  and  C_21
REMARK                            x       y       z     vdW  Elec       q    Type
REMARK                         _______ _______ _______ _____ _____    ______ ____
ROOT
ATOM      1  C   UNL     1      -3.099  10.806  16.776  0.00  0.00    +0.000 A 
ATOM      2  C   UNL     1      -4.442  11.048  17.132  0.00  0.00    +0.000 A 
ATOM      3  C   UNL     1      -4.780  11.646  18.358  0.00  0.00    +0.000 A 
ATOM      4  C   UNL     1      -3.754  12.001  19.210  0.00  0.00    +0.000 A 
ATOM      5  C   UNL     1      -2.398  11.772  18.841  0.00  0.00    +0.000 A 
ATOM      6  C   UNL     1      -2.065  11.173  17.641  0.00  0.00    +0.000 A 
ATOM      7  C   UNL     1      -1.525  12.263  19.949  0.00  0.00    +0.000 C 
ATOM      8  N   UNL     1      -0.247  12.305  20.139  0.00  0.00    +0.000 NA
ATOM      9  C   UNL     1      -2.436  12.767  20.947  0.00  0.00    +0.000 A 
ATOM     10  C   UNL     1      -3.731  12.611  20.519  0.00  0.00    +0.000 A 
ATOM     11  N   UNL     1      -4.563  13.075  21.487  0.00  0.00    +0.000 N 
ATOM     12  C   UNL     1      -6.006  13.082  21.490  0.00  0.00    +0.000 C 
ATOM     13  C   UNL     1      -3.785  13.567  22.542  0.00  0.00    +0.000 A 
ATOM     14  C   UNL     1      -4.150  14.158  23.763  0.00  0.00    +0.000 A 
ATOM     15  C   UNL     1      -3.129  14.569  24.631  0.00  0.00    +0.000 A 
ATOM     16  C   UNL     1      -1.788  14.397  24.300  0.00  0.00    +0.000 A 
ATOM     17  C   UNL     1      -1.426  13.801  23.090  0.00  0.00    +0.000 A 
ATOM     18  C   UNL     1      -2.432  13.380  22.202  0.00  0.00    +0.000 A 
ENDROOT
BRANCH   1  20
ATOM     19  C   UNL     1      -3.534  10.299  14.488  0.00  0.00    +0.000 C 
ATOM     20  O   UNL     1      -2.669  10.227  15.612  0.00  0.00    +0.000 OA
ENDBRANCH   1  20
BRANCH   8  21
ATOM     21  N   UNL     1       0.553  11.870  19.127  0.00  0.00    +0.000 N 
ATOM     22  H   UNL     1       1.331  12.502  18.934  0.00  0.00    +0.000 HD
BRANCH  21  23
ATOM     23  C   UNL     1       1.046  10.546  19.273  0.00  0.00    +0.000 A 
ATOM     24  C   UNL     1       0.852   9.815  20.453  0.00  0.00    +0.000 A 
ATOM     25  C   UNL     1       1.286   8.491  20.557  0.00  0.00    +0.000 A 
ATOM     26  C   UNL     1       1.903   7.875  19.472  0.00  0.00    +0.000 A 
ATOM     27  C   UNL     1       2.069   8.575  18.279  0.00  0.00    +0.000 A 
ATOM     28  C   UNL     1       1.626   9.897  18.175  0.00  0.00    +0.000 A 
ENDBRANCH  21  23
ENDBRANCH   8  21
TORSDOF 3
ENDMDL
MODEL 4
REMARK VINA RESULT:      -7.1      4.188      7.175
REMARK  Name = 
REMARK  5 active torsions:
REMARK  status: ('A' for Active; 'I' for Inactive)
REMARK    1  A    between atoms: C_1  and  O_2
REMARK    2  A    between atoms: O_2  and  C_3
REMARK    3  A    between atoms: N_10  and  N_11
REMARK    4  A    between atoms: N_11  and  C_12
REMARK    5  A    between atoms: N_20  and  C_21
REMARK                            x       y       z     vdW  Elec       q    Type
REMARK                         _______ _______ _______ _____ _____    ______ ____
ROOT
ATOM      1  C   UNL     1       4.601   5.512  17.390  0.00  0.00    +0.000 A 
ATOM      2  C   UNL     1       4.489   6.712  16.659  0.00  0.00    +0.000 A 
ATOM      3  C   UNL     1       3.683   7.772  17.108  0.00  0.00    +0.000 A 
ATOM      4  C   UNL     1       3.002   7.610  18.297  0.00  0.00    +0.000 A 
ATOM      5  C   UNL     1       3.131   6.404  19.043  0.00  0.00    +0.000 A 
ATOM      6  C   UNL     1       3.914   5.356  18.597  0.00  0.00    +0.000 A 
ATOM      7  C   UNL     1       2.294   6.526  20.274  0.00  0.00    +0.000 C 
ATOM      8  N   UNL     1       2.047   5.751  21.278  0.00  0.00    +0.000 NA
ATOM      9  C   UNL     1       1.692   7.834  20.187  0.00  0.00    +0.000 A 
ATOM     10  C   UNL     1       2.101   8.462  19.036  0.00  0.00    +0.000 A 
ATOM     11  N   UNL     1       1.502   9.680  18.975  0.00  0.00    +0.000 N 
ATOM     12  C   UNL     1       1.609  10.670  17.931  0.00  0.00    +0.000 C 
ATOM     13  C   UNL     1       0.720   9.847  20.124  0.00  0.00    +0.000 A 
ATOM     14  C   UNL     1      -0.083  10.920  20.546  0.00  0.00    +0.000 A 
ATOM     15  C   UNL     1      -0.753  10.802  21.772  0.00  0.00    +0.000 A 
ATOM     16  C   UNL     1      -0.632   9.656  22.553  0.00  0.00    +0.000 A 
ATOM     17  C   UNL     1       0.159   8.588  22.127  0.00  0.00    +0.000 A 
ATOM     18  C   UNL     1       0.841   8.681  20.901  0.00  0.00    +0.000 A 
ENDROOT
BRANCH   1  20
ATOM     19  C   UNL     1       6.747   4.624  16.853  0.00  0.00    +0.000 C 
ATOM     20  O   UNL     1       5.353   4.424  17.037  0.00  0.00    +0.000 OA
ENDBRANCH   1  20
BRANCH   8  21
ATOM     21  N   UNL     1       2.700   4.557  21.324  0.00  0.00    +0.000 N 
ATOM     22  H   UNL     1       2.744   4.162  22.265  0.00  0.00    +0.000 HD
BRANCH  21  23
ATOM     23  C   UNL     1       2.222   3.571  20.420  0.00  0.00    +0.000 A 
ATOM     24  C   UNL     1       0.894   3.566  19.972  0.00  0.00    +0.000 A 
ATOM     25  C   UNL     1       0.456   2.629  19.034  0.00  0.00    +0.000 A 
ATOM     26  C   UNL     1       1.349   1.695  18.516  0.00  0.00    +0.000 A 
ATOM     27  C   UNL     1       2.682   1.710  18.921  0.00  0.00    +0.000 A 
ATOM     28  C   UNL     1       3.119   2.655  19.854  0.00  0.00    +0.000 A 
ENDBRANCH  21  23
ENDBRANCH   8  21
TORSDOF 3
ENDMDL
MODEL 5
REMARK VINA RESULT:      -7.1      1.820      2.884
REMARK  Name = 
REMARK  5 active torsions:
REMARK  status: ('A' for Active; 'I' for Inactive)
REMARK    1  A    between atoms: C_1  and  O_2
REMARK    2  A    between atoms: O_2  and  C_3
REMARK    3  A    between atoms: N_10  and  N_11
REMARK    4  A    between atoms: N_11  and  C_12
REMARK    5  A    between atoms: N_20  and  C_21
REMARK                            x       y       z     vdW  Elec       q    Type
REMARK                         _______ _______ _______ _____ _____    ______ ____
ROOT
ATOM      1  C   UNL     1      -3.242  10.990  16.913  0.00  0.00    +0.000 A 
ATOM      2  C   UNL     1      -4.611  11.224  16.670  0.00  0.00    +0.000 A 
ATOM      3  C   UNL     1      -5.416  11.900  17.604  0.00  0.00    +0.000 A 
ATOM      4  C   UNL     1      -4.826  12.337  18.772  0.00  0.00    +0.000 A 
ATOM      5  C   UNL     1      -3.439  12.115  19.006  0.00  0.00    +0.000 A 
ATOM      6  C   UNL     1      -2.648  11.441  18.095  0.00  0.00    +0.000 A 
ATOM      7  C   UNL     1      -3.091  12.703  20.335  0.00  0.00    +0.000 C 
ATOM      8  N   UNL     1      -2.003  12.788  21.027  0.00  0.00    +0.000 NA
ATOM      9  C   UNL     1      -4.327  13.255  20.833  0.00  0.00    +0.000 A 
ATOM     10  C   UNL     1      -5.335  13.038  19.926  0.00  0.00    +0.000 A 
ATOM     11  N   UNL     1      -6.487  13.550  20.434  0.00  0.00    +0.000 N 
ATOM     12  C   UNL     1      -7.805  13.523  19.847  0.00  0.00    +0.000 C 
ATOM     13  C   UNL     1      -6.205  14.133  21.675  0.00  0.00    +0.000 A 
ATOM     14  C   UNL     1      -7.033  14.800  22.593  0.00  0.00    +0.000 A 
ATOM     15  C   UNL     1      -6.454  15.294  23.769  0.00  0.00    +0.000 A 
ATOM     16  C   UNL     1      -5.096  15.131  24.029  0.00  0.00    +0.000 A 
ATOM     17  C   UNL     1      -4.275  14.461  23.119  0.00  0.00    +0.000 A 
ATOM     18  C   UNL     1      -4.833  13.954  21.932  0.00  0.00    +0.000 A 
ENDROOT
BRANCH   1  20
ATOM     19  C   UNL     1      -2.849  10.018  14.772  0.00  0.00    +0.000 C 
ATOM     20  O   UNL     1      -2.378  10.341  16.072  0.00  0.00    +0.000 OA
ENDBRANCH   1  20
BRANCH   8  21
ATOM     21  N   UNL     1      -0.863  12.302  20.465  0.00  0.00    +0.000 N 
ATOM     22  H   UNL     1      -0.121  13.002  20.396  0.00  0.00    +0.000 HD
BRANCH  21  23
ATOM     23  C   UNL     1      -0.346  11.124  21.068  0.00  0.00    +0.000 A 
ATOM     24  C   UNL     1      -0.557  10.839  22.424  0.00  0.00    +0.000 A 
ATOM     25  C   UNL     1      -0.098   9.646  22.987  0.00  0.00    +0.000 A 
ATOM     26  C   UNL     1       0.562   8.713  22.193  0.00  0.00    +0.000 A 
ATOM     27  C   UNL     1       0.747   8.964  20.835  0.00  0.00    +0.000 A 
ATOM     28  C   UNL     1       0.279  10.155  20.273  0.00  0.00    +0.000 A 
ENDBRANCH  21  23
ENDBRANCH   8  21
TORSDOF 3
ENDMDL
MODEL 6
REMARK VINA RESULT:      -7.0      2.437      3.160
REMARK  Name = 
REMARK  5 active torsions:
REMARK  status: ('A' for Active; 'I' for Inactive)
REMARK    1  A    between atoms: C_1  and  O_2
REMARK    2  A    between atoms: O_2  and  C_3
REMARK    3  A    between atoms: N_10  and  N_11
REMARK    4  A    between atoms: N_11  and  C_12
REMARK    5  A    between atoms: N_20  and  C_21
REMARK                            x       y       z     vdW  Elec       q    Type
REMARK                         _______ _______ _______ _____ _____    ______ ____
ROOT
ATOM      1  C   UNL     1      -3.112  11.043  16.219  0.00  0.00    +0.000 A 
ATOM      2  C   UNL     1      -4.495  11.117  16.479  0.00  0.00    +0.000 A 
ATOM      3  C   UNL     1      -4.986  11.536  17.727  0.00  0.00    +0.000 A 
ATOM      4  C   UNL     1      -4.071  11.883  18.700  0.00  0.00    +0.000 A 
ATOM      5  C   UNL     1      -2.674  11.823  18.430  0.00  0.00    +0.000 A 
ATOM      6  C   UNL     1      -2.190  11.401  17.207  0.00  0.00    +0.000 A 
ATOM      7  C   UNL     1      -1.944  12.262  19.657  0.00  0.00    +0.000 C 
ATOM      8  N   UNL     1      -0.696  12.398  19.963  0.00  0.00    +0.000 NA
ATOM      9  C   UNL     1      -2.976  12.561  20.619  0.00  0.00    +0.000 A 
ATOM     10  C   UNL     1      -4.212  12.337  20.063  0.00  0.00    +0.000 A 
ATOM     11  N   UNL     1      -5.159  12.608  20.999  0.00  0.00    +0.000 N 
ATOM     12  C   UNL     1      -6.591  12.481  20.875  0.00  0.00    +0.000 C 
ATOM     13  C   UNL     1      -4.519  13.043  22.165  0.00  0.00    +0.000 A 
ATOM     14  C   UNL     1      -5.036  13.453  23.405  0.00  0.00    +0.000 A 
ATOM     15  C   UNL     1      -4.132  13.853  24.400  0.00  0.00    +0.000 A 
ATOM     16  C   UNL     1      -2.759  13.844  24.172  0.00  0.00    +0.000 A 
ATOM     17  C   UNL     1      -2.246  13.429  22.942  0.00  0.00    +0.000 A 
ATOM     18  C   UNL     1      -3.132  13.022  21.928  0.00  0.00    +0.000 A 
ENDROOT
BRANCH   1  20
ATOM     19  C   UNL     1      -3.381  10.041  14.073  0.00  0.00    +0.000 C 
ATOM     20  O   UNL     1      -2.536  10.644  15.043  0.00  0.00    +0.000 OA
ENDBRANCH   1  20
BRANCH   8  21
ATOM     21  N   UNL     1       0.220  12.158  18.985  0.00  0.00    +0.000 N 
ATOM     22  H   UNL     1      -0.202  11.834  18.114  0.00  0.00    +0.000 HD
BRANCH  21  23
ATOM     23  C   UNL     1       1.105  13.235  18.708  0.00  0.00    +0.000 A 
ATOM     24  C   UNL     1       0.725  14.569  18.907  0.00  0.00    +0.000 A 
ATOM     25  C   UNL     1       1.628  15.612  18.692  0.00  0.00    +0.000 A 
ATOM     26  C   UNL     1       2.932  15.331  18.294  0.00  0.00    +0.000 A 
ATOM     27  C   UNL     1       3.337  14.009  18.128  0.00  0.00    +0.000 A 
ATOM     28  C   UNL     1       2.434  12.966  18.353  0.00  0.00    +0.000 A 
ENDBRANCH  21  23
ENDBRANCH   8  21
TORSDOF 3
ENDMDL
MODEL 7
REMARK VINA RESULT:      -7.0      3.893      7.685
REMARK  Name = 
REMARK  5 active torsions:
REMARK  status: ('A' for Active; 'I' for Inactive)
REMARK    1  A    between atoms: C_1  and  O_2
REMARK    2  A    between atoms: O_2  and  C_3
REMARK    3  A    between atoms: N_10  and  N_11
REMARK    4  A    between atoms: N_11  and  C_12
REMARK    5  A    between atoms: N_20  and  C_21
REMARK                            x       y       z     vdW  Elec       q    Type
REMARK                         _______ _______ _______ _____ _____    ______ ____
ROOT
ATOM      1  C   UNL     1      -0.711  10.524  22.061  0.00  0.00    +0.000 A 
ATOM      2  C   UNL     1      -0.615   9.274  22.705  0.00  0.00    +0.000 A 
ATOM      3  C   UNL     1       0.152   8.228  22.163  0.00  0.00    +0.000 A 
ATOM      4  C   UNL     1       0.819   8.459  20.978  0.00  0.00    +0.000 A 
ATOM      5  C   UNL     1       0.733   9.729  20.338  0.00  0.00    +0.000 A 
ATOM      6  C   UNL     1      -0.029  10.755  20.864  0.00  0.00    +0.000 A 
ATOM      7  C   UNL     1       1.558   9.681  19.094  0.00  0.00    +0.000 C 
ATOM      8  N   UNL     1       1.832  10.530  18.160  0.00  0.00    +0.000 NA
ATOM      9  C   UNL     1       2.101   8.345  19.058  0.00  0.00    +0.000 A 
ATOM     10  C   UNL     1       1.667   7.634  20.151  0.00  0.00    +0.000 A 
ATOM     11  N   UNL     1       2.178   6.377  20.077  0.00  0.00    +0.000 N 
ATOM     12  C   UNL     1       1.963   5.277  20.985  0.00  0.00    +0.000 C 
ATOM     13  C   UNL     1       2.979   6.291  18.931  0.00  0.00    +0.000 A 
ATOM     14  C   UNL     1       3.733   5.227  18.409  0.00  0.00    +0.000 A 
ATOM     15  C   UNL     1       4.456   5.445  17.228  0.00  0.00    +0.000 A 
ATOM     16  C   UNL     1       4.431   6.679  16.585  0.00  0.00    +0.000 A 
ATOM     17  C   UNL     1       3.674   7.733  17.100  0.00  0.00    +0.000 A 
ATOM     18  C   UNL     1       2.939   7.539  18.283  0.00  0.00    +0.000 A 
ENDROOT
BRANCH   1  20
ATOM     19  C   UNL     1      -0.782  12.864  22.517  0.00  0.00    +0.000 C 
ATOM     20  O   UNL     1      -1.433  11.601  22.504  0.00  0.00    +0.000 OA
ENDBRANCH   1  20
BRANCH   8  21
ATOM     21  N   UNL     1       1.336  11.791  18.293  0.00  0.00    +0.000 N 
ATOM     22  H   UNL     1       0.497  11.831  18.875  0.00  0.00    +0.000 HD
BRANCH  21  23
ATOM     23  C   UNL     1       2.269  12.763  18.742  0.00  0.00    +0.000 A 
ATOM     24  C   UNL     1       3.129  13.423  17.854  0.00  0.00    +0.000 A 
ATOM     25  C   UNL     1       3.995  14.423  18.302  0.00  0.00    +0.000 A 
ATOM     26  C   UNL     1       3.998  14.789  19.645  0.00  0.00    +0.000 A 
ATOM     27  C   UNL     1       3.123  14.169  20.535  0.00  0.00    +0.000 A 
ATOM     28  C   UNL     1       2.251  13.175  20.081  0.00  0.00    +0.000 A 
ENDBRANCH  21  23
ENDBRANCH   8  21
TORSDOF 3
ENDMDL
MODEL 8
REMARK VINA RESULT:      -6.9      1.141      1.536
REMARK  Name = 
REMARK  5 active torsions:
REMARK  status: ('A' for Active; 'I' for Inactive)
REMARK    1  A    between atoms: C_1  and  O_2
REMARK    2  A    between atoms: O_2  and  C_3
REMARK    3  A    between atoms: N_10  and  N_11
REMARK    4  A    between atoms: N_11  and  C_12
REMARK    5  A    between atoms: N_20  and  C_21
REMARK                            x       y       z     vdW  Elec       q    Type
REMARK                         _______ _______ _______ _____ _____    ______ ____
ROOT
ATOM      1  C   UNL     1      -4.209  11.107  17.315  0.00  0.00    +0.000 A 
ATOM      2  C   UNL     1      -5.416  11.679  17.766  0.00  0.00    +0.000 A 
ATOM      3  C   UNL     1      -5.480  12.403  18.969  0.00  0.00    +0.000 A 
ATOM      4  C   UNL     1      -4.320  12.547  19.701  0.00  0.00    +0.000 A 
ATOM      5  C   UNL     1      -3.098  11.982  19.235  0.00  0.00    +0.000 A 
ATOM      6  C   UNL     1      -3.036  11.260  18.058  0.00  0.00    +0.000 A 
ATOM      7  C   UNL     1      -2.027  12.308  20.224  0.00  0.00    +0.000 C 
ATOM      8  N   UNL     1      -0.763  12.053  20.301  0.00  0.00    +0.000 NA
ATOM      9  C   UNL     1      -2.691  13.065  21.256  0.00  0.00    +0.000 A 
ATOM     10  C   UNL     1      -4.024  13.201  20.954  0.00  0.00    +0.000 A 
ATOM     11  N   UNL     1      -4.623  13.899  21.953  0.00  0.00    +0.000 N 
ATOM     12  C   UNL     1      -6.017  14.250  22.080  0.00  0.00    +0.000 C 
ATOM     13  C   UNL     1      -3.649  14.245  22.898  0.00  0.00    +0.000 A 
ATOM     14  C   UNL     1      -3.742  14.969  24.099  0.00  0.00    +0.000 A 
ATOM     15  C   UNL     1      -2.571  15.168  24.843  0.00  0.00    +0.000 A 
ATOM     16  C   UNL     1      -1.347  14.664  24.412  0.00  0.00    +0.000 A 
ATOM     17  C   UNL     1      -1.258  13.938  23.223  0.00  0.00    +0.000 A 
ATOM     18  C   UNL     1      -2.418  13.724  22.458  0.00  0.00    +0.000 A 
ENDROOT
BRANCH   1  20
ATOM     19  C   UNL     1      -3.142  10.891  15.194  0.00  0.00    +0.000 C 
ATOM     20  O   UNL     1      -4.045  10.382  16.165  0.00  0.00    +0.000 OA
ENDBRANCH   1  20
BRANCH   8  21
ATOM     21  N   UNL     1      -0.192  11.388  19.259  0.00  0.00    +0.000 N 
ATOM     22  H   UNL     1       0.462  11.965  18.727  0.00  0.00    +0.000 HD
BRANCH  21  23
ATOM     23  C   UNL     1       0.431  10.157  19.596  0.00  0.00    +0.000 A 
ATOM     24  C   UNL     1       1.251   9.475  18.687  0.00  0.00    +0.000 A 
ATOM     25  C   UNL     1       1.908   8.299  19.055  0.00  0.00    +0.000 A 
ATOM     26  C   UNL     1       1.768   7.801  20.347  0.00  0.00    +0.000 A 
ATOM     27  C   UNL     1       0.987   8.486  21.275  0.00  0.00    +0.000 A 
ATOM     28  C   UNL     1       0.338   9.668  20.906  0.00  0.00    +0.000 A 
ENDBRANCH  21  23
ENDBRANCH   8  21
TORSDOF 3
ENDMDL
MODEL 9
REMARK VINA RESULT:      -6.8      2.310      6.133
REMARK  Name = 
REMARK  5 active torsions:
REMARK  status: ('A' for Active; 'I' for Inactive)
REMARK    1  A    between atoms: C_1  and  O_2
REMARK    2  A    between atoms: O_2  and  C_3
REMARK    3  A    between atoms: N_10  and  N_11
REMARK    4  A    between atoms: N_11  and  C_12
REMARK    5  A    between atoms: N_20  and  C_21
REMARK                            x       y       z     vdW  Elec       q    Type
REMARK                         _______ _______ _______ _____ _____    ______ ____
ROOT
ATOM      1  C   UNL     1      -3.514  10.453  16.091  0.00  0.00    +0.000 A 
ATOM      2  C   UNL     1      -2.216  10.068  16.482  0.00  0.00    +0.000 A 
ATOM      3  C   UNL     1      -1.669  10.478  17.710  0.00  0.00    +0.000 A 
ATOM      4  C   UNL     1      -2.444  11.269  18.534  0.00  0.00    +0.000 A 
ATOM      5  C   UNL     1      -3.761  11.642  18.143  0.00  0.00    +0.000 A 
ATOM      6  C   UNL     1      -4.297  11.249  16.931  0.00  0.00    +0.000 A 
ATOM      7  C   UNL     1      -4.349  12.481  19.230  0.00  0.00    +0.000 C 
ATOM      8  N   UNL     1      -5.486  13.071  19.400  0.00  0.00    +0.000 NA
ATOM      9  C   UNL     1      -3.317  12.568  20.234  0.00  0.00    +0.000 A 
ATOM     10  C   UNL     1      -2.209  11.866  19.827  0.00  0.00    +0.000 A 
ATOM     11  N   UNL     1      -1.250  11.984  20.783  0.00  0.00    +0.000 N 
ATOM     12  C   UNL     1       0.088  11.444  20.769  0.00  0.00    +0.000 C 
ATOM     13  C   UNL     1      -1.766  12.749  21.836  0.00  0.00    +0.000 A 
ATOM     14  C   UNL     1      -1.193  13.149  23.054  0.00  0.00    +0.000 A 
ATOM     15  C   UNL     1      -1.971  13.917  23.931  0.00  0.00    +0.000 A 
ATOM     16  C   UNL     1      -3.276  14.279  23.609  0.00  0.00    +0.000 A 
ATOM     17  C   UNL     1      -3.842  13.888  22.394  0.00  0.00    +0.000 A 
ATOM     18  C   UNL     1      -3.081  13.118  21.496  0.00  0.00    +0.000 A 
ENDROOT
BRANCH   1  20
ATOM     19  C   UNL     1      -3.314   9.955  13.768  0.00  0.00    +0.000 C 
ATOM     20  O   UNL     1      -4.133  10.112  14.918  0.00  0.00    +0.000 OA
ENDBRANCH   1  20
BRANCH   8  21
ATOM     21  N   UNL     1      -6.435  12.893  18.439  0.00  0.00    +0.000 N 
ATOM     22  H   UNL     1      -7.289  12.463  18.797  0.00  0.00    +0.000 HD
BRANCH  21  23
ATOM     23  C   UNL     1      -6.768  14.056  17.695  0.00  0.00    +0.000 A 
ATOM     24  C   UNL     1      -7.375  13.974  16.434  0.00  0.00    +0.000 A 
ATOM     25  C   UNL     1      -7.755  15.127  15.744  0.00  0.00    +0.000 A 
ATOM     26  C   UNL     1      -7.551  16.379  16.317  0.00  0.00    +0.000 A 
ATOM     27  C   UNL     1      -6.983  16.477  17.586  0.00  0.00    +0.000 A 
ATOM     28  C   UNL     1      -6.612  15.321  18.278  0.00  0.00    +0.000 A 
ENDBRANCH  21  23
ENDBRANCH   8  21
TORSDOF 3
ENDMDL
