MODEL 1
REMARK VINA RESULT:      -8.3      0.000      0.000
REMARK  Name = 
REMARK  4 active torsions:
REMARK  status: ('A' for Active; 'I' for Inactive)
REMARK    1  A    between atoms: C_2  and  C_3
REMARK    2  A    between atoms: C_2  and  C_12
REMARK    3  A    between atoms: C_4  and  C_5
REMARK    4  A    between atoms: C_15  and  N_16
REMARK                            x       y       z     vdW  Elec       q    Type
REMARK                         _______ _______ _______ _____ _____    ______ ____
ROOT
ATOM      1  C   UNL     1       1.088   9.441  19.850  0.00  0.00    +0.000 A 
ATOM      2  C   UNL     1       1.436   8.347  20.651  0.00  0.00    +0.000 A 
ATOM      3  C   UNL     1       2.061   7.237  20.086  0.00  0.00    +0.000 A 
ATOM      4  C   UNL     1       2.365   7.205  18.721  0.00  0.00    +0.000 A 
ATOM      5  C   UNL     1       2.012   8.303  17.925  0.00  0.00    +0.000 A 
ATOM      6  C   UNL     1       1.358   9.404  18.480  0.00  0.00    +0.000 A 
ENDROOT
BRANCH   4   7
ATOM      7  N   UNL     1       2.918   6.051  18.124  0.00  0.00    +0.000 N 
ATOM      8  C   UNL     1       4.040   6.040  17.347  0.00  0.00    +0.000 C 
ATOM      9  O   UNL     1       4.677   6.976  16.884  0.00  0.00    +0.000 OA
ATOM     10  C   UNL     1       4.435   4.633  17.185  0.00  0.00    +0.000 C 
ATOM     11 BR   UNL     1       6.036   4.140  16.430  0.00  0.00    +0.000 Br
ATOM     12  C   UNL     1       3.488   3.875  17.733  0.00  0.00    +0.000 C 
ATOM     13 BR   UNL     1       3.403   2.048  17.895  0.00  0.00    +0.000 Br
ATOM     14  C   UNL     1       2.470   4.775  18.304  0.00  0.00    +0.000 C 
ATOM     15  O   UNL     1       1.425   4.387  18.804  0.00  0.00    +0.000 OA
ENDBRANCH   4   7
BRANCH   1  17
ATOM     16  O   UNL     1       1.152  11.393  21.186  0.00  0.00    +0.000 OA
ATOM     17  C   UNL     1       0.489  10.666  20.438  0.00  0.00    +0.000 C 
BRANCH  17  18
ATOM     18  C   UNL     1      -0.930  10.941  20.107  0.00  0.00    +0.000 C 
ATOM     19  C   UNL     1      -1.340  11.051  18.834  0.00  0.00    +0.000 C 
BRANCH  19  20
ATOM     20  C   UNL     1      -2.722  11.386  18.460  0.00  0.00    +0.000 A 
ATOM     21  C   UNL     1      -3.268  11.042  17.213  0.00  0.00    +0.000 A 
ATOM     22  C   UNL     1      -4.595  11.354  16.902  0.00  0.00    +0.000 A 
ATOM     23  C   UNL     1      -5.390  12.005  17.841  0.00  0.00    +0.000 A 
ATOM     24 CL   UNL     1      -7.023  12.388  17.462  0.00  0.00    +0.000 Cl
ATOM     25  C   UNL     1      -4.870  12.341  19.088  0.00  0.00    +0.000 A 
ATOM     26  C   UNL     1      -3.543  12.026  19.398  0.00  0.00    +0.000 A 
ENDBRANCH  19  20
ENDBRANCH  17  18
ENDBRANCH   1  17
TORSDOF 4
ENDMDL
MODEL 2
REMARK VINA RESULT:      -8.2      0.463      2.066
REMARK  Name = 
REMARK  4 active torsions:
REMARK  status: ('A' for Active; 'I' for Inactive)
REMARK    1  A    between atoms: C_2  and  C_3
REMARK    2  A    between atoms: C_2  and  C_12
REMARK    3  A    between atoms: C_4  and  C_5
REMARK    4  A    between atoms: C_15  and  N_16
REMARK                            x       y       z     vdW  Elec       q    Type
REMARK                         _______ _______ _______ _____ _____    ______ ____
ROOT
ATOM      1  C   UNL     1       1.011   9.703  19.961  0.00  0.00    +0.000 A 
ATOM      2  C   UNL     1       1.281   8.652  20.845  0.00  0.00    +0.000 A 
ATOM      3  C   UNL     1       1.935   7.508  20.392  0.00  0.00    +0.000 A 
ATOM      4  C   UNL     1       2.345   7.398  19.059  0.00  0.00    +0.000 A 
ATOM      5  C   UNL     1       2.069   8.454  18.180  0.00  0.00    +0.000 A 
ATOM      6  C   UNL     1       1.387   9.589  18.621  0.00  0.00    +0.000 A 
ENDROOT
BRANCH   4   7
ATOM      7  N   UNL     1       2.928   6.209  18.571  0.00  0.00    +0.000 N 
ATOM      8  C   UNL     1       2.444   4.953  18.802  0.00  0.00    +0.000 C 
ATOM      9  O   UNL     1       1.561   4.587  19.565  0.00  0.00    +0.000 OA
ATOM     10  C   UNL     1       3.150   4.046  17.886  0.00  0.00    +0.000 C 
ATOM     11 BR   UNL     1       2.649   2.295  17.654  0.00  0.00    +0.000 Br
ATOM     12  C   UNL     1       4.097   4.746  17.265  0.00  0.00    +0.000 C 
ATOM     13 BR   UNL     1       5.291   4.208  15.978  0.00  0.00    +0.000 Br
ATOM     14  C   UNL     1       4.003   6.140  17.733  0.00  0.00    +0.000 C 
ATOM     15  O   UNL     1       4.790   7.018  17.414  0.00  0.00    +0.000 OA
ENDBRANCH   4   7
BRANCH   1  17
ATOM     16  O   UNL     1       1.049  11.806  21.047  0.00  0.00    +0.000 OA
ATOM     17  C   UNL     1       0.384  10.964  20.433  0.00  0.00    +0.000 C 
BRANCH  17  18
ATOM     18  C   UNL     1      -1.064  11.133  20.158  0.00  0.00    +0.000 C 
ATOM     19  C   UNL     1      -1.506  11.468  18.937  0.00  0.00    +0.000 C 
BRANCH  19  20
ATOM     20  C   UNL     1      -2.925  11.710  18.633  0.00  0.00    +0.000 A 
ATOM     21  C   UNL     1      -3.809  12.270  19.568  0.00  0.00    +0.000 A 
ATOM     22  C   UNL     1      -5.146  12.510  19.234  0.00  0.00    +0.000 A 
ATOM     23  C   UNL     1      -5.605  12.201  17.957  0.00  0.00    +0.000 A 
ATOM     24 CL   UNL     1      -7.248  12.498  17.544  0.00  0.00    +0.000 Cl
ATOM     25  C   UNL     1      -4.739  11.658  17.012  0.00  0.00    +0.000 A 
ATOM     26  C   UNL     1      -3.402  11.420  17.347  0.00  0.00    +0.000 A 
ENDBRANCH  19  20
ENDBRANCH  17  18
ENDBRANCH   1  17
TORSDOF 4
ENDMDL
MODEL 3
REMARK VINA RESULT:      -8.1      0.451      2.063
REMARK  Name = 
REMARK  4 active torsions:
REMARK  status: ('A' for Active; 'I' for Inactive)
REMARK    1  A    between atoms: C_2  and  C_3
REMARK    2  A    between atoms: C_2  and  C_12
REMARK    3  A    between atoms: C_4  and  C_5
REMARK    4  A    between atoms: C_15  and  N_16
REMARK                            x       y       z     vdW  Elec       q    Type
REMARK                         _______ _______ _______ _____ _____    ______ ____
ROOT
ATOM      1  C   UNL     1       1.121   9.850  19.944  0.00  0.00    +0.000 A 
ATOM      2  C   UNL     1       1.439   9.706  18.588  0.00  0.00    +0.000 A 
ATOM      3  C   UNL     1       1.976   8.508  18.120  0.00  0.00    +0.000 A 
ATOM      4  C   UNL     1       2.188   7.431  18.987  0.00  0.00    +0.000 A 
ATOM      5  C   UNL     1       1.868   7.584  20.343  0.00  0.00    +0.000 A 
ATOM      6  C   UNL     1       1.360   8.792  20.823  0.00  0.00    +0.000 A 
ENDROOT
BRANCH   4   7
ATOM      7  N   UNL     1       2.811   6.246  18.540  0.00  0.00    +0.000 N 
ATOM      8  C   UNL     1       2.346   4.985  18.778  0.00  0.00    +0.000 C 
ATOM      9  O   UNL     1       1.448   4.613  19.520  0.00  0.00    +0.000 OA
ATOM     10  C   UNL     1       3.100   4.077  17.902  0.00  0.00    +0.000 C 
ATOM     11 BR   UNL     1       2.643   2.311  17.686  0.00  0.00    +0.000 Br
ATOM     12  C   UNL     1       4.051   4.785  17.297  0.00  0.00    +0.000 C 
ATOM     13 BR   UNL     1       5.296   4.251  16.058  0.00  0.00    +0.000 Br
ATOM     14  C   UNL     1       3.913   6.186  17.736  0.00  0.00    +0.000 C 
ATOM     15  O   UNL     1       4.691   7.074  17.426  0.00  0.00    +0.000 OA
ENDBRANCH   4   7
BRANCH   1  17
ATOM     16  O   UNL     1       1.124  11.893  21.139  0.00  0.00    +0.000 OA
ATOM     17  C   UNL     1       0.480  11.088  20.456  0.00  0.00    +0.000 C 
BRANCH  17  18
ATOM     18  C   UNL     1      -0.955  11.278  20.134  0.00  0.00    +0.000 C 
ATOM     19  C   UNL     1      -1.378  11.368  18.865  0.00  0.00    +0.000 C 
BRANCH  19  20
ATOM     20  C   UNL     1      -2.780  11.622  18.499  0.00  0.00    +0.000 A 
ATOM     21  C   UNL     1      -3.284  11.351  17.217  0.00  0.00    +0.000 A 
ATOM     22  C   UNL     1      -4.629  11.580  16.914  0.00  0.00    +0.000 A 
ATOM     23  C   UNL     1      -5.484  12.073  17.895  0.00  0.00    +0.000 A 
ATOM     24 CL   UNL     1      -7.140  12.353  17.525  0.00  0.00    +0.000 Cl
ATOM     25  C   UNL     1      -5.006  12.333  19.177  0.00  0.00    +0.000 A 
ATOM     26  C   UNL     1      -3.660  12.102  19.479  0.00  0.00    +0.000 A 
ENDBRANCH  19  20
ENDBRANCH  17  18
ENDBRANCH   1  17
TORSDOF 4
ENDMDL
MODEL 4
REMARK VINA RESULT:      -8.1      5.401      9.510
REMARK  Name = 
REMARK  4 active torsions:
REMARK  status: ('A' for Active; 'I' for Inactive)
REMARK    1  A    between atoms: C_2  and  C_3
REMARK    2  A    between atoms: C_2  and  C_12
REMARK    3  A    between atoms: C_4  and  C_5
REMARK    4  A    between atoms: C_15  and  N_16
REMARK                            x       y       z     vdW  Elec       q    Type
REMARK                         _______ _______ _______ _____ _____    ______ ____
ROOT
ATOM      1  C   UNL     1       2.385   7.031  19.352  0.00  0.00    +0.000 A 
ATOM      2  C   UNL     1       2.334   7.988  18.332  0.00  0.00    +0.000 A 
ATOM      3  C   UNL     1       1.633   9.178  18.525  0.00  0.00    +0.000 A 
ATOM      4  C   UNL     1       0.988   9.440  19.738  0.00  0.00    +0.000 A 
ATOM      5  C   UNL     1       1.043   8.475  20.754  0.00  0.00    +0.000 A 
ATOM      6  C   UNL     1       1.717   7.269  20.555  0.00  0.00    +0.000 A 
ENDROOT
BRANCH   4   7
ATOM      7  N   UNL     1       0.204  10.601  19.911  0.00  0.00    +0.000 N 
ATOM      8  C   UNL     1      -1.028  10.797  19.357  0.00  0.00    +0.000 C 
ATOM      9  O   UNL     1      -1.616  10.136  18.512  0.00  0.00    +0.000 OA
ATOM     10  C   UNL     1      -1.613  11.972  20.018  0.00  0.00    +0.000 C 
ATOM     11 BR   UNL     1      -3.368  12.462  19.782  0.00  0.00    +0.000 Br
ATOM     12  C   UNL     1      -0.686  12.501  20.812  0.00  0.00    +0.000 C 
ATOM     13 BR   UNL     1      -0.797  13.950  21.934  0.00  0.00    +0.000 Br
ATOM     14  C   UNL     1       0.518  11.655  20.719  0.00  0.00    +0.000 C 
ATOM     15  O   UNL     1       1.578  11.920  21.265  0.00  0.00    +0.000 OA
ENDBRANCH   4   7
BRANCH   1  17
ATOM     16  O   UNL     1       3.423   5.072  20.181  0.00  0.00    +0.000 OA
ATOM     17  C   UNL     1       3.185   5.789  19.202  0.00  0.00    +0.000 C 
BRANCH  17  18
ATOM     18  C   UNL     1       3.698   5.485  17.845  0.00  0.00    +0.000 C 
ATOM     19  C   UNL     1       4.982   5.154  17.643  0.00  0.00    +0.000 C 
BRANCH  19  20
ATOM     20  C   UNL     1       5.551   4.907  16.309  0.00  0.00    +0.000 A 
ATOM     21  C   UNL     1       4.833   4.255  15.294  0.00  0.00    +0.000 A 
ATOM     22  C   UNL     1       5.397   4.062  14.030  0.00  0.00    +0.000 A 
ATOM     23  C   UNL     1       6.680   4.530  13.767  0.00  0.00    +0.000 A 
ATOM     24 CL   UNL     1       7.374   4.297  12.210  0.00  0.00    +0.000 Cl
ATOM     25  C   UNL     1       7.402   5.194  14.755  0.00  0.00    +0.000 A 
ATOM     26  C   UNL     1       6.836   5.387  16.020  0.00  0.00    +0.000 A 
ENDBRANCH  19  20
ENDBRANCH  17  18
ENDBRANCH   1  17
TORSDOF 4
ENDMDL
MODEL 5
REMARK VINA RESULT:      -8.1      5.348      9.425
REMARK  Name = 
REMARK  4 active torsions:
REMARK  status: ('A' for Active; 'I' for Inactive)
REMARK    1  A    between atoms: C_2  and  C_3
REMARK    2  A    between atoms: C_2  and  C_12
REMARK    3  A    between atoms: C_4  and  C_5
REMARK    4  A    between atoms: C_15  and  N_16
REMARK                            x       y       z     vdW  Elec       q    Type
REMARK                         _______ _______ _______ _____ _____    ______ ____
ROOT
ATOM      1  C   UNL     1       2.700   5.993  19.287  0.00  0.00    +0.000 A 
ATOM      2  C   UNL     1       2.785   7.088  18.418  0.00  0.00    +0.000 A 
ATOM      3  C   UNL     1       2.132   8.279  18.729  0.00  0.00    +0.000 A 
ATOM      4  C   UNL     1       1.399   8.406  19.913  0.00  0.00    +0.000 A 
ATOM      5  C   UNL     1       1.317   7.304  20.777  0.00  0.00    +0.000 A 
ATOM      6  C   UNL     1       1.944   6.100  20.456  0.00  0.00    +0.000 A 
ENDROOT
BRANCH   4   7
ATOM      7  N   UNL     1       0.663   9.577  20.193  0.00  0.00    +0.000 N 
ATOM      8  C   UNL     1      -0.159  10.210  19.306  0.00  0.00    +0.000 C 
ATOM      9  O   UNL     1      -0.303  10.021  18.106  0.00  0.00    +0.000 OA
ATOM     10  C   UNL     1      -0.948  11.185  20.072  0.00  0.00    +0.000 C 
ATOM     11 BR   UNL     1      -2.371  12.090  19.344  0.00  0.00    +0.000 Br
ATOM     12  C   UNL     1      -0.486  11.197  21.320  0.00  0.00    +0.000 C 
ATOM     13 BR   UNL     1      -1.065  12.163  22.770  0.00  0.00    +0.000 Br
ATOM     14  C   UNL     1       0.594  10.197  21.407  0.00  0.00    +0.000 C 
ATOM     15  O   UNL     1       1.281  10.026  22.402  0.00  0.00    +0.000 OA
ENDBRANCH   4   7
BRANCH   1  17
ATOM     16  O   UNL     1       3.657   3.925  19.926  0.00  0.00    +0.000 OA
ATOM     17  C   UNL     1       3.447   4.738  19.018  0.00  0.00    +0.000 C 
BRANCH  17  18
ATOM     18  C   UNL     1       3.942   4.538  17.635  0.00  0.00    +0.000 C 
ATOM     19  C   UNL     1       5.239   4.689  17.331  0.00  0.00    +0.000 C 
BRANCH  19  20
ATOM     20  C   UNL     1       5.766   4.565  15.963  0.00  0.00    +0.000 A 
ATOM     21  C   UNL     1       5.064   3.901  14.945  0.00  0.00    +0.000 A 
ATOM     22  C   UNL     1       5.584   3.826  13.649  0.00  0.00    +0.000 A 
ATOM     23  C   UNL     1       6.807   4.425  13.360  0.00  0.00    +0.000 A 
ATOM     24 CL   UNL     1       7.447   4.336  11.766  0.00  0.00    +0.000 Cl
ATOM     25  C   UNL     1       7.510   5.101  14.353  0.00  0.00    +0.000 A 
ATOM     26  C   UNL     1       6.987   5.176  15.649  0.00  0.00    +0.000 A 
ENDBRANCH  19  20
ENDBRANCH  17  18
ENDBRANCH   1  17
TORSDOF 4
ENDMDL
MODEL 6
REMARK VINA RESULT:      -8.0      5.441      9.550
REMARK  Name = 
REMARK  4 active torsions:
REMARK  status: ('A' for Active; 'I' for Inactive)
REMARK    1  A    between atoms: C_2  and  C_3
REMARK    2  A    between atoms: C_2  and  C_12
REMARK    3  A    between atoms: C_4  and  C_5
REMARK    4  A    between atoms: C_15  and  N_16
REMARK                            x       y       z     vdW  Elec       q    Type
REMARK                         _______ _______ _______ _____ _____    ______ ____
ROOT
ATOM      1  C   UNL     1       2.542   7.260  19.292  0.00  0.00    +0.000 A 
ATOM      2  C   UNL     1       1.870   7.437  20.507  0.00  0.00    +0.000 A 
ATOM      3  C   UNL     1       1.060   8.555  20.701  0.00  0.00    +0.000 A 
ATOM      4  C   UNL     1       0.892   9.502  19.686  0.00  0.00    +0.000 A 
ATOM      5  C   UNL     1       1.570   9.318  18.473  0.00  0.00    +0.000 A 
ATOM      6  C   UNL     1       2.407   8.217  18.285  0.00  0.00    +0.000 A 
ENDROOT
BRANCH   4   7
ATOM      7  N   UNL     1       0.145  10.679  19.904  0.00  0.00    +0.000 N 
ATOM      8  C   UNL     1      -1.115  10.901  19.426  0.00  0.00    +0.000 C 
ATOM      9  O   UNL     1      -1.768  10.252  18.620  0.00  0.00    +0.000 OA
ATOM     10  C   UNL     1      -1.634  12.089  20.119  0.00  0.00    +0.000 C 
ATOM     11 BR   UNL     1      -3.389  12.615  19.990  0.00  0.00    +0.000 Br
ATOM     12  C   UNL     1      -0.649  12.598  20.854  0.00  0.00    +0.000 C 
ATOM     13 BR   UNL     1      -0.661  14.051  21.977  0.00  0.00    +0.000 Br
ATOM     14  C   UNL     1       0.529  11.727  20.689  0.00  0.00    +0.000 C 
ATOM     15  O   UNL     1       1.626  11.971  21.168  0.00  0.00    +0.000 OA
ENDBRANCH   4   7
BRANCH   1  17
ATOM     16  O   UNL     1       3.535   5.206  19.923  0.00  0.00    +0.000 OA
ATOM     17  C   UNL     1       3.352   6.043  19.031  0.00  0.00    +0.000 C 
BRANCH  17  18
ATOM     18  C   UNL     1       3.941   5.910  17.677  0.00  0.00    +0.000 C 
ATOM     19  C   UNL     1       4.821   4.939  17.392  0.00  0.00    +0.000 C 
BRANCH  19  20
ATOM     20  C   UNL     1       5.480   4.808  16.084  0.00  0.00    +0.000 A 
ATOM     21  C   UNL     1       6.779   5.283  15.845  0.00  0.00    +0.000 A 
ATOM     22  C   UNL     1       7.383   5.116  14.595  0.00  0.00    +0.000 A 
ATOM     23  C   UNL     1       6.695   4.463  13.577  0.00  0.00    +0.000 A 
ATOM     24 CL   UNL     1       7.437   4.254  12.039  0.00  0.00    +0.000 Cl
ATOM     25  C   UNL     1       5.412   3.971  13.800  0.00  0.00    +0.000 A 
ATOM     26  C   UNL     1       4.810   4.137  15.052  0.00  0.00    +0.000 A 
ENDBRANCH  19  20
ENDBRANCH  17  18
ENDBRANCH   1  17
TORSDOF 4
ENDMDL
MODEL 7
REMARK VINA RESULT:      -7.9      5.360      9.416
REMARK  Name = 
REMARK  4 active torsions:
REMARK  status: ('A' for Active; 'I' for Inactive)
REMARK    1  A    between atoms: C_2  and  C_3
REMARK    2  A    between atoms: C_2  and  C_12
REMARK    3  A    between atoms: C_4  and  C_5
REMARK    4  A    between atoms: C_15  and  N_16
REMARK                            x       y       z     vdW  Elec       q    Type
REMARK                         _______ _______ _______ _____ _____    ______ ____
ROOT
ATOM      1  C   UNL     1       2.722   6.126  19.407  0.00  0.00    +0.000 A 
ATOM      2  C   UNL     1       1.916   6.198  20.550  0.00  0.00    +0.000 A 
ATOM      3  C   UNL     1       1.161   7.342  20.802  0.00  0.00    +0.000 A 
ATOM      4  C   UNL     1       1.181   8.423  19.914  0.00  0.00    +0.000 A 
ATOM      5  C   UNL     1       1.992   8.343  18.773  0.00  0.00    +0.000 A 
ATOM      6  C   UNL     1       2.774   7.213  18.533  0.00  0.00    +0.000 A 
ENDROOT
BRANCH   4   7
ATOM      7  N   UNL     1       0.489   9.618  20.205  0.00  0.00    +0.000 N 
ATOM      8  C   UNL     1      -0.339  10.268  19.336  0.00  0.00    +0.000 C 
ATOM      9  O   UNL     1      -0.525  10.073  18.143  0.00  0.00    +0.000 OA
ATOM     10  C   UNL     1      -1.076  11.273  20.117  0.00  0.00    +0.000 C 
ATOM     11 BR   UNL     1      -2.492  12.214  19.423  0.00  0.00    +0.000 Br
ATOM     12  C   UNL     1      -0.576  11.282  21.350  0.00  0.00    +0.000 C 
ATOM     13 BR   UNL     1      -1.081  12.278  22.808  0.00  0.00    +0.000 Br
ATOM     14  C   UNL     1       0.476  10.251  21.414  0.00  0.00    +0.000 C 
ATOM     15  O   UNL     1       1.187  10.067  22.389  0.00  0.00    +0.000 OA
ENDBRANCH   4   7
BRANCH   1  17
ATOM     16  O   UNL     1       3.711   4.044  19.946  0.00  0.00    +0.000 OA
ATOM     17  C   UNL     1       3.478   4.892  19.076  0.00  0.00    +0.000 C 
BRANCH  17  18
ATOM     18  C   UNL     1       3.955   4.756  17.679  0.00  0.00    +0.000 C 
ATOM     19  C   UNL     1       5.263   4.674  17.394  0.00  0.00    +0.000 C 
BRANCH  19  20
ATOM     20  C   UNL     1       5.785   4.603  16.020  0.00  0.00    +0.000 A 
ATOM     21  C   UNL     1       7.004   5.192  15.648  0.00  0.00    +0.000 A 
ATOM     22  C   UNL     1       7.481   5.081  14.338  0.00  0.00    +0.000 A 
ATOM     23  C   UNL     1       6.747   4.371  13.393  0.00  0.00    +0.000 A 
ATOM     24 CL   UNL     1       7.334   4.232  11.782  0.00  0.00    +0.000 Cl
ATOM     25  C   UNL     1       5.543   3.768  13.748  0.00  0.00    +0.000 A 
ATOM     26  C   UNL     1       5.068   3.878  15.059  0.00  0.00    +0.000 A 
ENDBRANCH  19  20
ENDBRANCH  17  18
ENDBRANCH   1  17
TORSDOF 4
ENDMDL
MODEL 8
REMARK VINA RESULT:      -7.8      2.226      3.322
REMARK  Name = 
REMARK  4 active torsions:
REMARK  status: ('A' for Active; 'I' for Inactive)
REMARK    1  A    between atoms: C_2  and  C_3
REMARK    2  A    between atoms: C_2  and  C_12
REMARK    3  A    between atoms: C_4  and  C_5
REMARK    4  A    between atoms: C_15  and  N_16
REMARK                            x       y       z     vdW  Elec       q    Type
REMARK                         _______ _______ _______ _____ _____    ______ ____
ROOT
ATOM      1  C   UNL     1       1.105   9.981  19.260  0.00  0.00    +0.000 A 
ATOM      2  C   UNL     1       1.286   9.032  20.273  0.00  0.00    +0.000 A 
ATOM      3  C   UNL     1       1.914   7.820  19.990  0.00  0.00    +0.000 A 
ATOM      4  C   UNL     1       2.385   7.541  18.703  0.00  0.00    +0.000 A 
ATOM      5  C   UNL     1       2.197   8.496  17.695  0.00  0.00    +0.000 A 
ATOM      6  C   UNL     1       1.542   9.698  17.965  0.00  0.00    +0.000 A 
ENDROOT
BRANCH   4   7
ATOM      7  N   UNL     1       2.942   6.283  18.387  0.00  0.00    +0.000 N 
ATOM      8  C   UNL     1       2.375   5.081  18.700  0.00  0.00    +0.000 C 
ATOM      9  O   UNL     1       1.415   4.835  19.417  0.00  0.00    +0.000 OA
ATOM     10  C   UNL     1       3.104   4.053  17.942  0.00  0.00    +0.000 C 
ATOM     11 BR   UNL     1       2.531   2.311  17.843  0.00  0.00    +0.000 Br
ATOM     12  C   UNL     1       4.133   4.642  17.337  0.00  0.00    +0.000 C 
ATOM     13 BR   UNL     1       5.396   3.922  16.216  0.00  0.00    +0.000 Br
ATOM     14  C   UNL     1       4.075   6.081  17.654  0.00  0.00    +0.000 C 
ATOM     15  O   UNL     1       4.931   6.884  17.318  0.00  0.00    +0.000 OA
ENDBRANCH   4   7
BRANCH   1  17
ATOM     16  O   UNL     1       1.068  12.346  19.174  0.00  0.00    +0.000 OA
ATOM     17  C   UNL     1       0.507  11.310  19.549  0.00  0.00    +0.000 C 
BRANCH  17  18
ATOM     18  C   UNL     1      -0.756  11.319  20.326  0.00  0.00    +0.000 C 
ATOM     19  C   UNL     1      -1.218  12.445  20.891  0.00  0.00    +0.000 C 
BRANCH  19  20
ATOM     20  C   UNL     1      -2.430  12.489  21.723  0.00  0.00    +0.000 A 
ATOM     21  C   UNL     1      -2.395  12.300  23.114  0.00  0.00    +0.000 A 
ATOM     22  C   UNL     1      -3.565  12.375  23.875  0.00  0.00    +0.000 A 
ATOM     23  C   UNL     1      -4.778  12.652  23.253  0.00  0.00    +0.000 A 
ATOM     24 CL   UNL     1      -6.217  12.749  24.189  0.00  0.00    +0.000 Cl
ATOM     25  C   UNL     1      -4.830  12.859  21.877  0.00  0.00    +0.000 A 
ATOM     26  C   UNL     1      -3.659  12.784  21.116  0.00  0.00    +0.000 A 
ENDBRANCH  19  20
ENDBRANCH  17  18
ENDBRANCH   1  17
TORSDOF 4
ENDMDL
MODEL 9
REMARK VINA RESULT:      -7.8      0.626      1.497
REMARK  Name = 
REMARK  4 active torsions:
REMARK  status: ('A' for Active; 'I' for Inactive)
REMARK    1  A    between atoms: C_2  and  C_3
REMARK    2  A    between atoms: C_2  and  C_12
REMARK    3  A    between atoms: C_4  and  C_5
REMARK    4  A    between atoms: C_15  and  N_16
REMARK                            x       y       z     vdW  Elec       q    Type
REMARK                         _______ _______ _______ _____ _____    ______ ____
ROOT
ATOM      1  C   UNL     1       1.118   9.711  19.449  0.00  0.00    +0.000 A 
ATOM      2  C   UNL     1       1.433   9.577  18.092  0.00  0.00    +0.000 A 
ATOM      3  C   UNL     1       2.061   8.421  17.632  0.00  0.00    +0.000 A 
ATOM      4  C   UNL     1       2.370   7.376  18.509  0.00  0.00    +0.000 A 
ATOM      5  C   UNL     1       2.051   7.520  19.867  0.00  0.00    +0.000 A 
ATOM      6  C   UNL     1       1.450   8.688  20.338  0.00  0.00    +0.000 A 
ENDROOT
BRANCH   4   7
ATOM      7  N   UNL     1       3.083   6.241  18.069  0.00  0.00    +0.000 N 
ATOM      8  C   UNL     1       4.371   6.259  17.615  0.00  0.00    +0.000 C 
ATOM      9  O   UNL     1       5.088   7.213  17.346  0.00  0.00    +0.000 OA
ATOM     10  C   UNL     1       4.823   4.862  17.549  0.00  0.00    +0.000 C 
ATOM     11 BR   UNL     1       6.575   4.408  17.240  0.00  0.00    +0.000 Br
ATOM     12  C   UNL     1       3.780   4.080  17.821  0.00  0.00    +0.000 C 
ATOM     13 BR   UNL     1       3.692   2.250  17.937  0.00  0.00    +0.000 Br
ATOM     14  C   UNL     1       2.629   4.955  18.111  0.00  0.00    +0.000 C 
ATOM     15  O   UNL     1       1.498   4.542  18.314  0.00  0.00    +0.000 OA
ENDBRANCH   4   7
BRANCH   1  17
ATOM     16  O   UNL     1       0.818  11.548  20.911  0.00  0.00    +0.000 OA
ATOM     17  C   UNL     1       0.382  10.899  19.954  0.00  0.00    +0.000 C 
BRANCH  17  18
ATOM     18  C   UNL     1      -0.895  11.231  19.276  0.00  0.00    +0.000 C 
ATOM     19  C   UNL     1      -1.966  11.641  19.972  0.00  0.00    +0.000 C 
BRANCH  19  20
ATOM     20  C   UNL     1      -3.270  11.920  19.351  0.00  0.00    +0.000 A 
ATOM     21  C   UNL     1      -4.257  12.690  19.987  0.00  0.00    +0.000 A 
ATOM     22  C   UNL     1      -5.475  12.955  19.355  0.00  0.00    +0.000 A 
ATOM     23  C   UNL     1      -5.712  12.461  18.076  0.00  0.00    +0.000 A 
ATOM     24 CL   UNL     1      -7.209  12.790  17.295  0.00  0.00    +0.000 Cl
ATOM     25  C   UNL     1      -4.739  11.709  17.423  0.00  0.00    +0.000 A 
ATOM     26  C   UNL     1      -3.520  11.445  18.056  0.00  0.00    +0.000 A 
ENDBRANCH  19  20
ENDBRANCH  17  18
ENDBRANCH   1  17
TORSDOF 4
ENDMDL
