MODEL 1
REMARK VINA RESULT:      -5.7      0.000      0.000
REMARK  Name = 
REMARK  7 active torsions:
REMARK  status: ('A' for Active; 'I' for Inactive)
REMARK    1  A    between atoms: C_1  and  O_2
REMARK    2  A    between atoms: O_2  and  C_3
REMARK    3  A    between atoms: C_3  and  C_4
REMARK    4  A    between atoms: C_4  and  O_5
REMARK    5  A    between atoms: O_5  and  C_6
REMARK    6  A    between atoms: N_11  and  C_12
REMARK    7  A    between atoms: N_15  and  C_16
REMARK                            x       y       z     vdW  Elec       q    Type
REMARK                         _______ _______ _______ _____ _____    ______ ____
ROOT
ATOM      1  C   UNL     1       3.044   1.786  18.960  0.00  0.00    +0.000 C 
ATOM      2  C   UNL     1       1.996   2.348  19.933  0.00  0.00    +0.000 C 
ATOM      3  O   UNL     1       2.130   3.749  20.137  0.00  0.00    +0.000 OA
ATOM      4  C   UNL     1       1.357   4.562  19.257  0.00  0.00    +0.000 C 
ATOM      5  C   UNL     1       1.500   4.284  17.745  0.00  0.00    +0.000 C 
ATOM      6  N   UNL     1       2.761   3.728  17.228  0.00  0.00    +0.000 NA
ATOM      7  C   UNL     1       2.825   2.276  17.506  0.00  0.00    +0.000 C 
ENDROOT
BRANCH   6   8
ATOM      8  C   UNL     1       3.980   4.490  17.609  0.00  0.00    +0.000 C 
ATOM      9  C   UNL     1       3.800   6.014  17.451  0.00  0.00    +0.000 C 
ATOM     10  C   UNL     1       5.081   6.761  17.841  0.00  0.00    +0.000 C 
ATOM     11  N   UNL     1       6.201   6.343  16.990  0.00  0.00    +0.000 NA
ATOM     12  C   UNL     1       7.401   7.118  17.277  0.00  0.00    +0.000 C 
ATOM     13  C   UNL     1       6.451   4.907  17.148  0.00  0.00    +0.000 C 
ATOM     14  C   UNL     1       5.217   4.093  16.763  0.00  0.00    +0.000 C 
ENDBRANCH   6   8
BRANCH   1  15
ATOM     15  O   UNL     1       4.396   2.086  19.331  0.00  0.00    +0.000 OA
BRANCH  15  16
ATOM     16  C   UNL     1       4.705   1.962  20.712  0.00  0.00    +0.000 C 
BRANCH  16  17
ATOM     17  C   UNL     1       5.379   0.609  20.920  0.00  0.00    +0.000 C 
BRANCH  17  19
ATOM     18  C   UNL     1       6.655  -0.677  22.419  0.00  0.00    +0.000 C 
ATOM     19  O   UNL     1       6.080   0.599  22.162  0.00  0.00    +0.000 OA
ENDBRANCH  17  19
ENDBRANCH  16  17
ENDBRANCH  15  16
ENDBRANCH   1  15
TORSDOF 5
ENDMDL
MODEL 2
REMARK VINA RESULT:      -5.6      2.392      4.132
REMARK  Name = 
REMARK  7 active torsions:
REMARK  status: ('A' for Active; 'I' for Inactive)
REMARK    1  A    between atoms: C_1  and  O_2
REMARK    2  A    between atoms: O_2  and  C_3
REMARK    3  A    between atoms: C_3  and  C_4
REMARK    4  A    between atoms: C_4  and  O_5
REMARK    5  A    between atoms: O_5  and  C_6
REMARK    6  A    between atoms: N_11  and  C_12
REMARK    7  A    between atoms: N_15  and  C_16
REMARK                            x       y       z     vdW  Elec       q    Type
REMARK                         _______ _______ _______ _____ _____    ______ ____
ROOT
ATOM      1  C   UNL     1       2.303   3.657  20.637  0.00  0.00    +0.000 C 
ATOM      2  C   UNL     1       1.153   3.355  19.663  0.00  0.00    +0.000 C 
ATOM      3  O   UNL     1       1.455   3.730  18.324  0.00  0.00    +0.000 OA
ATOM      4  C   UNL     1       2.042   2.703  17.529  0.00  0.00    +0.000 C 
ATOM      5  C   UNL     1       3.280   1.990  18.115  0.00  0.00    +0.000 C 
ATOM      6  N   UNL     1       4.157   2.715  19.049  0.00  0.00    +0.000 NA
ATOM      7  C   UNL     1       3.539   2.756  20.393  0.00  0.00    +0.000 C 
ENDROOT
BRANCH   6   8
ATOM      8  C   UNL     1       4.652   4.025  18.549  0.00  0.00    +0.000 C 
ATOM      9  C   UNL     1       5.101   3.966  17.075  0.00  0.00    +0.000 C 
ATOM     10  C   UNL     1       5.615   5.332  16.603  0.00  0.00    +0.000 C 
ATOM     11  N   UNL     1       6.762   5.758  17.413  0.00  0.00    +0.000 NA
ATOM     12  C   UNL     1       7.329   7.003  16.912  0.00  0.00    +0.000 C 
ATOM     13  C   UNL     1       6.372   5.886  18.820  0.00  0.00    +0.000 C 
ATOM     14  C   UNL     1       5.859   4.554  19.366  0.00  0.00    +0.000 C 
ENDBRANCH   6   8
BRANCH   1  15
ATOM     15  O   UNL     1       2.737   5.024  20.611  0.00  0.00    +0.000 OA
BRANCH  15  16
ATOM     16  C   UNL     1       1.721   6.003  20.777  0.00  0.00    +0.000 C 
BRANCH  16  17
ATOM     17  C   UNL     1       2.093   7.211  19.921  0.00  0.00    +0.000 C 
BRANCH  17  19
ATOM     18  C   UNL     1       2.983   7.719  17.804  0.00  0.00    +0.000 C 
ATOM     19  O   UNL     1       3.023   6.824  18.910  0.00  0.00    +0.000 OA
ENDBRANCH  17  19
ENDBRANCH  16  17
ENDBRANCH  15  16
ENDBRANCH   1  15
TORSDOF 5
ENDMDL
MODEL 3
REMARK VINA RESULT:      -5.5      2.730      4.813
REMARK  Name = 
REMARK  7 active torsions:
REMARK  status: ('A' for Active; 'I' for Inactive)
REMARK    1  A    between atoms: C_1  and  O_2
REMARK    2  A    between atoms: O_2  and  C_3
REMARK    3  A    between atoms: C_3  and  C_4
REMARK    4  A    between atoms: C_4  and  O_5
REMARK    5  A    between atoms: O_5  and  C_6
REMARK    6  A    between atoms: N_11  and  C_12
REMARK    7  A    between atoms: N_15  and  C_16
REMARK                            x       y       z     vdW  Elec       q    Type
REMARK                         _______ _______ _______ _____ _____    ______ ____
ROOT
ATOM      1  C   UNL     1       2.132   4.380  20.890  0.00  0.00    +0.000 C 
ATOM      2  C   UNL     1       0.812   3.983  20.210  0.00  0.00    +0.000 C 
ATOM      3  O   UNL     1       0.940   3.847  18.800  0.00  0.00    +0.000 OA
ATOM      4  C   UNL     1       1.257   2.532  18.349  0.00  0.00    +0.000 C 
ATOM      5  C   UNL     1       2.472   1.843  19.006  0.00  0.00    +0.000 C 
ATOM      6  N   UNL     1       3.572   2.667  19.533  0.00  0.00    +0.000 NA
ATOM      7  C   UNL     1       3.188   3.247  20.839  0.00  0.00    +0.000 C 
ENDROOT
BRANCH   6   8
ATOM      8  C   UNL     1       4.143   3.639  18.562  0.00  0.00    +0.000 C 
ATOM      9  C   UNL     1       4.351   3.025  17.163  0.00  0.00    +0.000 C 
ATOM     10  C   UNL     1       4.951   4.054  16.196  0.00  0.00    +0.000 C 
ATOM     11  N   UNL     1       6.253   4.522  16.687  0.00  0.00    +0.000 NA
ATOM     12  C   UNL     1       6.886   5.421  15.730  0.00  0.00    +0.000 C 
ATOM     13  C   UNL     1       6.101   5.168  17.995  0.00  0.00    +0.000 C 
ATOM     14  C   UNL     1       5.517   4.195  19.018  0.00  0.00    +0.000 C 
ENDBRANCH   6   8
BRANCH   1  15
ATOM     15  O   UNL     1       2.726   5.567  20.348  0.00  0.00    +0.000 OA
BRANCH  15  16
ATOM     16  C   UNL     1       1.912   6.731  20.357  0.00  0.00    +0.000 C 
BRANCH  16  17
ATOM     17  C   UNL     1       2.344   7.612  19.189  0.00  0.00    +0.000 C 
BRANCH  17  19
ATOM     18  C   UNL     1       1.578   9.405  17.874  0.00  0.00    +0.000 C 
ATOM     19  O   UNL     1       1.566   8.807  19.165  0.00  0.00    +0.000 OA
ENDBRANCH  17  19
ENDBRANCH  16  17
ENDBRANCH  15  16
ENDBRANCH   1  15
TORSDOF 5
ENDMDL
MODEL 4
REMARK VINA RESULT:      -5.5      2.436      4.292
REMARK  Name = 
REMARK  7 active torsions:
REMARK  status: ('A' for Active; 'I' for Inactive)
REMARK    1  A    between atoms: C_1  and  O_2
REMARK    2  A    between atoms: O_2  and  C_3
REMARK    3  A    between atoms: C_3  and  C_4
REMARK    4  A    between atoms: C_4  and  O_5
REMARK    5  A    between atoms: O_5  and  C_6
REMARK    6  A    between atoms: N_11  and  C_12
REMARK    7  A    between atoms: N_15  and  C_16
REMARK                            x       y       z     vdW  Elec       q    Type
REMARK                         _______ _______ _______ _____ _____    ______ ____
ROOT
ATOM      1  C   UNL     1       2.253   3.546  21.180  0.00  0.00    +0.000 C 
ATOM      2  C   UNL     1       0.936   3.229  20.454  0.00  0.00    +0.000 C 
ATOM      3  O   UNL     1       0.995   3.514  19.061  0.00  0.00    +0.000 OA
ATOM      4  C   UNL     1       1.399   2.421  18.241  0.00  0.00    +0.000 C 
ATOM      5  C   UNL     1       2.706   1.699  18.635  0.00  0.00    +0.000 C 
ATOM      6  N   UNL     1       3.758   2.444  19.344  0.00  0.00    +0.000 NA
ATOM      7  C   UNL     1       3.400   2.587  20.773  0.00  0.00    +0.000 C 
ENDROOT
BRANCH   6   8
ATOM      8  C   UNL     1       4.185   3.704  18.679  0.00  0.00    +0.000 C 
ATOM      9  C   UNL     1       4.465   3.514  17.175  0.00  0.00    +0.000 C 
ATOM     10  C   UNL     1       4.914   4.832  16.530  0.00  0.00    +0.000 C 
ATOM     11  N   UNL     1       6.143   5.322  17.164  0.00  0.00    +0.000 NA
ATOM     12  C   UNL     1       6.642   6.517  16.495  0.00  0.00    +0.000 C 
ATOM     13  C   UNL     1       5.914   5.574  18.590  0.00  0.00    +0.000 C 
ATOM     14  C   UNL     1       5.474   4.298  19.305  0.00  0.00    +0.000 C 
ENDBRANCH   6   8
BRANCH   1  15
ATOM     15  O   UNL     1       2.709   4.892  20.987  0.00  0.00    +0.000 OA
BRANCH  15  16
ATOM     16  C   UNL     1       1.706   5.855  20.698  0.00  0.00    +0.000 C 
BRANCH  16  17
ATOM     17  C   UNL     1       2.278   6.834  19.678  0.00  0.00    +0.000 C 
BRANCH  17  19
ATOM     18  C   UNL     1       1.071   8.194  21.168  0.00  0.00    +0.000 C 
ATOM     19  O   UNL     1       1.941   8.171  20.043  0.00  0.00    +0.000 OA
ENDBRANCH  17  19
ENDBRANCH  16  17
ENDBRANCH  15  16
ENDBRANCH   1  15
TORSDOF 5
ENDMDL
MODEL 5
REMARK VINA RESULT:      -5.5      2.859      6.391
REMARK  Name = 
REMARK  7 active torsions:
REMARK  status: ('A' for Active; 'I' for Inactive)
REMARK    1  A    between atoms: C_1  and  O_2
REMARK    2  A    between atoms: O_2  and  C_3
REMARK    3  A    between atoms: C_3  and  C_4
REMARK    4  A    between atoms: C_4  and  O_5
REMARK    5  A    between atoms: O_5  and  C_6
REMARK    6  A    between atoms: N_11  and  C_12
REMARK    7  A    between atoms: N_15  and  C_16
REMARK                            x       y       z     vdW  Elec       q    Type
REMARK                         _______ _______ _______ _____ _____    ______ ____
ROOT
ATOM      1  C   UNL     1       5.185   7.054  16.874  0.00  0.00    +0.000 C 
ATOM      2  C   UNL     1       6.640   7.008  17.364  0.00  0.00    +0.000 C 
ATOM      3  O   UNL     1       6.839   6.061  18.407  0.00  0.00    +0.000 OA
ATOM      4  C   UNL     1       7.226   4.760  17.972  0.00  0.00    +0.000 C 
ATOM      5  C   UNL     1       6.348   4.098  16.887  0.00  0.00    +0.000 C 
ATOM      6  N   UNL     1       4.923   4.451  16.795  0.00  0.00    +0.000 NA
ATOM      7  C   UNL     1       4.770   5.762  16.126  0.00  0.00    +0.000 C 
ENDROOT
BRANCH   6   8
ATOM      8  C   UNL     1       4.161   4.307  18.065  0.00  0.00    +0.000 C 
ATOM      9  C   UNL     1       4.434   2.962  18.769  0.00  0.00    +0.000 C 
ATOM     10  C   UNL     1       3.622   2.848  20.065  0.00  0.00    +0.000 C 
ATOM     11  N   UNL     1       2.185   2.931  19.781  0.00  0.00    +0.000 NA
ATOM     12  C   UNL     1       1.395   2.719  20.987  0.00  0.00    +0.000 C 
ATOM     13  C   UNL     1       1.863   4.220  19.161  0.00  0.00    +0.000 C 
ATOM     14  C   UNL     1       2.629   4.401  17.851  0.00  0.00    +0.000 C 
ENDBRANCH   6   8
BRANCH   1  15
ATOM     15  O   UNL     1       4.231   7.289  17.919  0.00  0.00    +0.000 OA
BRANCH  15  16
ATOM     16  C   UNL     1       3.069   8.019  17.549  0.00  0.00    +0.000 C 
BRANCH  16  17
ATOM     17  C   UNL     1       2.158   8.096  18.771  0.00  0.00    +0.000 C 
BRANCH  17  19
ATOM     18  C   UNL     1       0.755   9.517  20.011  0.00  0.00    +0.000 C 
ATOM     19  O   UNL     1       1.502   9.362  18.811  0.00  0.00    +0.000 OA
ENDBRANCH  17  19
ENDBRANCH  16  17
ENDBRANCH  15  16
ENDBRANCH   1  15
TORSDOF 5
ENDMDL
MODEL 6
REMARK VINA RESULT:      -5.4      2.697      5.148
REMARK  Name = 
REMARK  7 active torsions:
REMARK  status: ('A' for Active; 'I' for Inactive)
REMARK    1  A    between atoms: C_1  and  O_2
REMARK    2  A    between atoms: O_2  and  C_3
REMARK    3  A    between atoms: C_3  and  C_4
REMARK    4  A    between atoms: C_4  and  O_5
REMARK    5  A    between atoms: O_5  and  C_6
REMARK    6  A    between atoms: N_11  and  C_12
REMARK    7  A    between atoms: N_15  and  C_16
REMARK                            x       y       z     vdW  Elec       q    Type
REMARK                         _______ _______ _______ _____ _____    ______ ____
ROOT
ATOM      1  C   UNL     1       2.137   5.056  19.324  0.00  0.00    +0.000 C 
ATOM      2  C   UNL     1       1.230   3.911  18.847  0.00  0.00    +0.000 C 
ATOM      3  O   UNL     1       1.727   3.265  17.681  0.00  0.00    +0.000 OA
ATOM      4  C   UNL     1       2.565   2.140  17.928  0.00  0.00    +0.000 C 
ATOM      5  C   UNL     1       3.750   2.352  18.897  0.00  0.00    +0.000 C 
ATOM      6  N   UNL     1       4.349   3.690  19.024  0.00  0.00    +0.000 NA
ATOM      7  C   UNL     1       3.494   4.548  19.874  0.00  0.00    +0.000 C 
ENDROOT
BRANCH   6   8
ATOM      8  C   UNL     1       4.771   4.308  17.738  0.00  0.00    +0.000 C 
ATOM      9  C   UNL     1       5.130   3.259  16.667  0.00  0.00    +0.000 C 
ATOM     10  C   UNL     1       5.572   3.935  15.363  0.00  0.00    +0.000 C 
ATOM     11  N   UNL     1       6.753   4.775  15.594  0.00  0.00    +0.000 NA
ATOM     12  C   UNL     1       7.249   5.343  14.347  0.00  0.00    +0.000 C 
ATOM     13  C   UNL     1       6.447   5.828  16.566  0.00  0.00    +0.000 C 
ATOM     14  C   UNL     1       6.010   5.227  17.901  0.00  0.00    +0.000 C 
ENDBRANCH   6   8
BRANCH   1  15
ATOM     15  O   UNL     1       2.406   6.038  18.314  0.00  0.00    +0.000 OA
BRANCH  15  16
ATOM     16  C   UNL     1       2.413   7.391  18.746  0.00  0.00    +0.000 C 
BRANCH  16  17
ATOM     17  C   UNL     1       2.942   8.245  17.597  0.00  0.00    +0.000 C 
BRANCH  17  19
ATOM     18  C   UNL     1       1.151   9.492  18.472  0.00  0.00    +0.000 C 
ATOM     19  O   UNL     1       2.146   9.420  17.457  0.00  0.00    +0.000 OA
ENDBRANCH  17  19
ENDBRANCH  16  17
ENDBRANCH  15  16
ENDBRANCH   1  15
TORSDOF 5
ENDMDL
MODEL 7
REMARK VINA RESULT:      -5.2      2.815      4.835
REMARK  Name = 
REMARK  7 active torsions:
REMARK  status: ('A' for Active; 'I' for Inactive)
REMARK    1  A    between atoms: C_1  and  O_2
REMARK    2  A    between atoms: O_2  and  C_3
REMARK    3  A    between atoms: C_3  and  C_4
REMARK    4  A    between atoms: C_4  and  O_5
REMARK    5  A    between atoms: O_5  and  C_6
REMARK    6  A    between atoms: N_11  and  C_12
REMARK    7  A    between atoms: N_15  and  C_16
REMARK                            x       y       z     vdW  Elec       q    Type
REMARK                         _______ _______ _______ _____ _____    ______ ____
ROOT
ATOM      1  C   UNL     1       2.460   5.149  19.230  0.00  0.00    +0.000 C 
ATOM      2  C   UNL     1       1.413   4.146  18.721  0.00  0.00    +0.000 C 
ATOM      3  O   UNL     1       1.791   3.532  17.495  0.00  0.00    +0.000 OA
ATOM      4  C   UNL     1       2.506   2.306  17.633  0.00  0.00    +0.000 C 
ATOM      5  C   UNL     1       3.740   2.319  18.561  0.00  0.00    +0.000 C 
ATOM      6  N   UNL     1       4.491   3.570  18.747  0.00  0.00    +0.000 NA
ATOM      7  C   UNL     1       3.769   4.457  19.687  0.00  0.00    +0.000 C 
ENDROOT
BRANCH   6   8
ATOM      8  C   UNL     1       4.934   4.225  17.487  0.00  0.00    +0.000 C 
ATOM      9  C   UNL     1       5.173   3.215  16.347  0.00  0.00    +0.000 C 
ATOM     10  C   UNL     1       5.639   3.927  15.072  0.00  0.00    +0.000 C 
ATOM     11  N   UNL     1       6.896   4.646  15.314  0.00  0.00    +0.000 NA
ATOM     12  C   UNL     1       7.409   5.242  14.088  0.00  0.00    +0.000 C 
ATOM     13  C   UNL     1       6.708   5.662  16.354  0.00  0.00    +0.000 C 
ATOM     14  C   UNL     1       6.253   5.022  17.665  0.00  0.00    +0.000 C 
ENDBRANCH   6   8
BRANCH   1  15
ATOM     15  O   UNL     1       2.802   6.162  18.275  0.00  0.00    +0.000 OA
BRANCH  15  16
ATOM     16  C   UNL     1       2.476   7.496  18.637  0.00  0.00    +0.000 C 
BRANCH  16  17
ATOM     17  C   UNL     1       1.994   7.482  20.085  0.00  0.00    +0.000 C 
BRANCH  17  19
ATOM     18  C   UNL     1       1.197   8.946  21.743  0.00  0.00    +0.000 C 
ATOM     19  O   UNL     1       1.216   8.647  20.352  0.00  0.00    +0.000 OA
ENDBRANCH  17  19
ENDBRANCH  16  17
ENDBRANCH  15  16
ENDBRANCH   1  15
TORSDOF 5
ENDMDL
MODEL 8
REMARK VINA RESULT:      -5.2      1.047      1.207
REMARK  Name = 
REMARK  7 active torsions:
REMARK  status: ('A' for Active; 'I' for Inactive)
REMARK    1  A    between atoms: C_1  and  O_2
REMARK    2  A    between atoms: O_2  and  C_3
REMARK    3  A    between atoms: C_3  and  C_4
REMARK    4  A    between atoms: C_4  and  O_5
REMARK    5  A    between atoms: O_5  and  C_6
REMARK    6  A    between atoms: N_11  and  C_12
REMARK    7  A    between atoms: N_15  and  C_16
REMARK                            x       y       z     vdW  Elec       q    Type
REMARK                         _______ _______ _______ _____ _____    ______ ____
ROOT
ATOM      1  C   UNL     1       2.127   2.299  19.831  0.00  0.00    +0.000 C 
ATOM      2  C   UNL     1       1.839   3.094  21.115  0.00  0.00    +0.000 C 
ATOM      3  O   UNL     1       2.545   4.328  21.167  0.00  0.00    +0.000 OA
ATOM      4  C   UNL     1       1.839   5.447  20.636  0.00  0.00    +0.000 C 
ATOM      5  C   UNL     1       1.254   5.292  19.215  0.00  0.00    +0.000 C 
ATOM      6  N   UNL     1       1.906   4.382  18.260  0.00  0.00    +0.000 NA
ATOM      7  C   UNL     1       1.541   2.981  18.569  0.00  0.00    +0.000 C 
ENDROOT
BRANCH   6   8
ATOM      8  C   UNL     1       3.361   4.619  18.067  0.00  0.00    +0.000 C 
ATOM      9  C   UNL     1       3.686   6.096  17.768  0.00  0.00    +0.000 C 
ATOM     10  C   UNL     1       5.193   6.297  17.563  0.00  0.00    +0.000 C 
ATOM     11  N   UNL     1       5.671   5.487  16.437  0.00  0.00    +0.000 NA
ATOM     12  C   UNL     1       7.079   5.744  16.161  0.00  0.00    +0.000 C 
ATOM     13  C   UNL     1       5.437   4.063  16.698  0.00  0.00    +0.000 C 
ATOM     14  C   UNL     1       3.949   3.784  16.901  0.00  0.00    +0.000 C 
ENDBRANCH   6   8
BRANCH   1  15
ATOM     15  O   UNL     1       3.523   2.061  19.600  0.00  0.00    +0.000 OA
BRANCH  15  16
ATOM     16  C   UNL     1       4.371   2.184  20.733  0.00  0.00    +0.000 C 
BRANCH  16  17
ATOM     17  C   UNL     1       5.217   0.917  20.821  0.00  0.00    +0.000 C 
BRANCH  17  19
ATOM     18  C   UNL     1       6.512  -0.381  22.293  0.00  0.00    +0.000 C 
ATOM     19  O   UNL     1       5.940   0.898  22.051  0.00  0.00    +0.000 OA
ENDBRANCH  17  19
ENDBRANCH  16  17
ENDBRANCH  15  16
ENDBRANCH   1  15
TORSDOF 5
ENDMDL
MODEL 9
REMARK VINA RESULT:      -5.2      3.471      6.063
REMARK  Name = 
REMARK  7 active torsions:
REMARK  status: ('A' for Active; 'I' for Inactive)
REMARK    1  A    between atoms: C_1  and  O_2
REMARK    2  A    between atoms: O_2  and  C_3
REMARK    3  A    between atoms: C_3  and  C_4
REMARK    4  A    between atoms: C_4  and  O_5
REMARK    5  A    between atoms: O_5  and  C_6
REMARK    6  A    between atoms: N_11  and  C_12
REMARK    7  A    between atoms: N_15  and  C_16
REMARK                            x       y       z     vdW  Elec       q    Type
REMARK                         _______ _______ _______ _____ _____    ______ ____
ROOT
ATOM      1  C   UNL     1       6.781   5.802  16.838  0.00  0.00    +0.000 C 
ATOM      2  C   UNL     1       7.189   4.695  17.823  0.00  0.00    +0.000 C 
ATOM      3  O   UNL     1       6.326   4.619  18.952  0.00  0.00    +0.000 OA
ATOM      4  C   UNL     1       5.230   3.719  18.811  0.00  0.00    +0.000 C 
ATOM      5  C   UNL     1       4.353   3.880  17.550  0.00  0.00    +0.000 C 
ATOM      6  N   UNL     1       4.235   5.203  16.916  0.00  0.00    +0.000 NA
ATOM      7  C   UNL     1       5.446   5.490  16.116  0.00  0.00    +0.000 C 
ENDROOT
BRANCH   6   8
ATOM      8  C   UNL     1       3.818   6.298  17.833  0.00  0.00    +0.000 C 
ATOM      9  C   UNL     1       2.755   5.844  18.853  0.00  0.00    +0.000 C 
ATOM     10  C   UNL     1       2.344   7.003  19.770  0.00  0.00    +0.000 C 
ATOM     11  N   UNL     1       1.781   8.107  18.983  0.00  0.00    +0.000 NA
ATOM     12  C   UNL     1       1.289   9.173  19.845  0.00  0.00    +0.000 C 
ATOM     13  C   UNL     1       2.776   8.614  18.033  0.00  0.00    +0.000 C 
ATOM     14  C   UNL     1       3.225   7.513  17.074  0.00  0.00    +0.000 C 
ENDBRANCH   6   8
BRANCH   1  15
ATOM     15  O   UNL     1       6.668   7.098  17.441  0.00  0.00    +0.000 OA
BRANCH  15  16
ATOM     16  C   UNL     1       7.850   7.612  18.039  0.00  0.00    +0.000 C 
BRANCH  16  17
ATOM     17  C   UNL     1       7.856   9.125  17.837  0.00  0.00    +0.000 C 
BRANCH  17  19
ATOM     18  C   UNL     1       9.056  10.652  19.162  0.00  0.00    +0.000 C 
ATOM     19  O   UNL     1       9.143   9.653  18.152  0.00  0.00    +0.000 OA
ENDBRANCH  17  19
ENDBRANCH  16  17
ENDBRANCH  15  16
ENDBRANCH   1  15
TORSDOF 5
ENDMDL
